MODEL 1
REMARK VINA RESULT:      -7.3      0.000      0.000
REMARK  Name = Minocycline
REMARK  11 active torsions:
REMARK  status: ('A' for Active; 'I' for Inactive)
REMARK    1  A    between atoms: C_6  and  O_7
REMARK    2  A    between atoms: C_10  and  N_11
REMARK    3  A    between atoms: N_11  and  C_12
REMARK    4  A    between atoms: N_11  and  C_13
REMARK    5  A    between atoms: C_17  and  O_18
REMARK    6  A    between atoms: C_19  and  O_20
REMARK    7  A    between atoms: C_23  and  C_24
REMARK    8  A    between atoms: C_27  and  O_28
REMARK    9  A    between atoms: C_29  and  N_30
REMARK   10  A    between atoms: N_30  and  C_31
REMARK   11  A    between atoms: N_30  and  C_32
REMARK                            x       y       z     vdW  Elec       q    Type
REMARK                         _______ _______ _______ _____ _____    ______ ____
ROOT
ATOM      1  C   UNL     1      -6.968   2.464 128.724  0.00  0.00    +0.000 C 
ATOM      2  C   UNL     1      -7.405   2.905 130.070  0.00  0.00    +0.000 C 
ATOM      3  C   UNL     1      -6.550   3.789 130.875  0.00  0.00    +0.000 A 
ATOM      4  C   UNL     1      -5.677   4.653 130.172  0.00  0.00    +0.000 A 
ATOM      5  C   UNL     1      -4.884   5.543 130.882  0.00  0.00    +0.000 A 
ATOM      6  C   UNL     1      -4.963   5.553 132.262  0.00  0.00    +0.000 A 
ATOM      7  C   UNL     1      -5.846   4.687 132.937  0.00  0.00    +0.000 A 
ATOM      8  C   UNL     1      -6.701   3.777 132.286  0.00  0.00    +0.000 A 
ATOM      9  C   UNL     1      -5.635   4.636 128.682  0.00  0.00    +0.000 C 
ATOM     10  O   UNL     1      -5.010   5.506 128.074  0.00  0.00    +0.000 OA
ATOM     11  C   UNL     1      -6.374   3.570 127.942  0.00  0.00    +0.000 C 
ATOM     12  C   UNL     1      -6.490   3.586 126.601  0.00  0.00    +0.000 C 
ATOM     13  C   UNL     1      -7.206   2.493 125.813  0.00  0.00    +0.000 C 
ATOM     14  C   UNL     1      -8.275   3.027 124.881  0.00  0.00    +0.000 C 
ATOM     15  O   UNL     1      -8.799   4.133 125.072  0.00  0.00    +0.000 OA
ATOM     16  C   UNL     1      -8.942   2.061 123.936  0.00  0.00    +0.000 C 
ATOM     17  C   UNL     1      -9.837   1.516 124.762  0.00  0.00    +0.000 C 
ATOM     18  C   UNL     1      -9.128   0.613 126.023  0.00  0.00    +0.000 C 
ATOM     19  C   UNL     1      -7.958   1.465 126.691  0.00  0.00    +0.000 C 
ATOM     20  C   UNL     1      -8.254   1.873 128.104  0.00  0.00    +0.000 C 
ENDROOT
BRANCH  16  21
ATOM     21  C   UNL     1      -8.486   0.749 123.351  0.00  0.00    +0.000 C 
ATOM     22  N   UNL     1      -7.114   0.563 123.180  0.00  0.00    +0.000 N 
ATOM     23  O   UNL     1      -9.262  -0.099 122.901  0.00  0.00    +0.000 OA
ATOM     24  H   UNL     1      -6.470   1.344 123.307  0.00  0.00    +0.000 HD
ATOM     25  H   UNL     1      -6.858   0.025 122.360  0.00  0.00    +0.000 HD
ENDBRANCH  16  21
BRANCH   8  26
ATOM     26  N   UNL     1      -7.618   2.974 132.977  0.00  0.00    +0.000 N 
ATOM     27  C   UNL     1      -9.031   3.243 133.337  0.00  0.00    +0.000 C 
ATOM     28  C   UNL     1      -7.282   1.602 133.368  0.00  0.00    +0.000 C 
ENDBRANCH   8  26
BRANCH  18  29
ATOM     29  N   UNL     1      -8.502  -0.779 126.070  0.00  0.00    +0.000 NA
ATOM     30  C   UNL     1      -9.215  -2.085 125.877  0.00  0.00    +0.000 C 
ATOM     31  C   UNL     1      -7.335  -1.025 126.874  0.00  0.00    +0.000 C 
ENDBRANCH  18  29
BRANCH   5  32
ATOM     32  O   UNL     1      -4.013   6.419 130.296  0.00  0.00    +0.000 OA
ATOM     33  H   UNL     1      -3.269   5.900 129.918  0.00  0.00    +0.000 HD
ENDBRANCH   5  32
BRANCH  12  34
ATOM     34  O   UNL     1      -5.884   4.555 125.818  0.00  0.00    +0.000 OA
ATOM     35  H   UNL     1      -5.800   4.189 124.907  0.00  0.00    +0.000 HD
ENDBRANCH  12  34
BRANCH  13  36
ATOM     36  O   UNL     1      -6.154   1.884 125.077  0.00  0.00    +0.000 OA
ATOM     37  H   UNL     1      -5.689   1.303 125.710  0.00  0.00    +0.000 HD
ENDBRANCH  13  36
BRANCH  17  38
ATOM     38  O   UNL     1     -11.123   1.315 124.139  0.00  0.00    +0.000 OA
ATOM     39  H   UNL     1     -11.593   2.205 124.112  0.00  0.00    +0.000 HD
ENDBRANCH  17  38
TORSDOF 7
ENDMDL
MODEL 2
REMARK VINA RESULT:      -7.2      3.367      8.201
REMARK  Name = Minocycline
REMARK  11 active torsions:
REMARK  status: ('A' for Active; 'I' for Inactive)
REMARK    1  A    between atoms: C_6  and  O_7
REMARK    2  A    between atoms: C_10  and  N_11
REMARK    3  A    between atoms: N_11  and  C_12
REMARK    4  A    between atoms: N_11  and  C_13
REMARK    5  A    between atoms: C_17  and  O_18
REMARK    6  A    between atoms: C_19  and  O_20
REMARK    7  A    between atoms: C_23  and  C_24
REMARK    8  A    between atoms: C_27  and  O_28
REMARK    9  A    between atoms: C_29  and  N_30
REMARK   10  A    between atoms: N_30  and  C_31
REMARK   11  A    between atoms: N_30  and  C_32
REMARK                            x       y       z     vdW  Elec       q    Type
REMARK                         _______ _______ _______ _____ _____    ______ ____
ROOT
ATOM      1  C   UNL     1      -7.495   1.801 128.849  0.00  0.00    +0.000 C 
ATOM      2  C   UNL     1      -7.975   1.715 127.449  0.00  0.00    +0.000 C 
ATOM      3  C   UNL     1      -7.796   0.478 126.677  0.00  0.00    +0.000 A 
ATOM      4  C   UNL     1      -7.740  -0.733 127.408  0.00  0.00    +0.000 A 
ATOM      5  C   UNL     1      -7.622  -1.935 126.726  0.00  0.00    +0.000 A 
ATOM      6  C   UNL     1      -7.551  -1.915 125.346  0.00  0.00    +0.000 A 
ATOM      7  C   UNL     1      -7.616  -0.696 124.641  0.00  0.00    +0.000 A 
ATOM      8  C   UNL     1      -7.763   0.561 125.261  0.00  0.00    +0.000 A 
ATOM      9  C   UNL     1      -7.847  -0.723 128.895  0.00  0.00    +0.000 C 
ATOM     10  O   UNL     1      -7.976  -1.782 129.510  0.00  0.00    +0.000 OA
ATOM     11  C   UNL     1      -7.815   0.581 129.622  0.00  0.00    +0.000 C 
ATOM     12  C   UNL     1      -8.049   0.664 130.945  0.00  0.00    +0.000 C 
ATOM     13  C   UNL     1      -7.987   1.975 131.723  0.00  0.00    +0.000 C 
ATOM     14  C   UNL     1      -9.239   2.254 132.530  0.00  0.00    +0.000 C 
ATOM     15  O   UNL     1     -10.322   1.727 132.237  0.00  0.00    +0.000 OA
ATOM     16  C   UNL     1      -9.236   3.438 133.461  0.00  0.00    +0.000 C 
ATOM     17  C   UNL     1      -9.498   4.414 132.589  0.00  0.00    +0.000 C 
ATOM     18  C   UNL     1      -8.256   4.644 131.443  0.00  0.00    +0.000 C 
ATOM     19  C   UNL     1      -7.829   3.232 130.836  0.00  0.00    +0.000 C 
ATOM     20  C   UNL     1      -8.172   3.083 129.384  0.00  0.00    +0.000 C 
ENDROOT
BRANCH  16  21
ATOM     21  C   UNL     1      -8.116   4.173 134.149  0.00  0.00    +0.000 C 
ATOM     22  N   UNL     1      -8.276   5.543 134.356  0.00  0.00    +0.000 N 
ATOM     23  O   UNL     1      -7.027   3.655 134.414  0.00  0.00    +0.000 OA
ATOM     24  H   UNL     1      -9.053   6.041 133.920  0.00  0.00    +0.000 HD
ATOM     25  H   UNL     1      -7.423   6.086 134.279  0.00  0.00    +0.000 HD
ENDBRANCH  16  21
BRANCH   8  26
ATOM     26  N   UNL     1      -7.892   1.751 124.535  0.00  0.00    +0.000 N 
ATOM     27  C   UNL     1      -6.848   2.693 124.063  0.00  0.00    +0.000 C 
ATOM     28  C   UNL     1      -9.193   2.189 124.019  0.00  0.00    +0.000 C 
ENDBRANCH   8  26
BRANCH  18  29
ATOM     29  N   UNL     1      -6.891   5.323 131.522  0.00  0.00    +0.000 NA
ATOM     30  C   UNL     1      -6.612   6.787 131.353  0.00  0.00    +0.000 C 
ATOM     31  C   UNL     1      -5.698   4.601 131.171  0.00  0.00    +0.000 C 
ENDBRANCH  18  29
BRANCH   5  32
ATOM     32  O   UNL     1      -7.565  -3.155 127.340  0.00  0.00    +0.000 OA
ATOM     33  H   UNL     1      -8.482  -3.421 127.572  0.00  0.00    +0.000 HD
ENDBRANCH   5  32
BRANCH  12  34
ATOM     34  O   UNL     1      -8.273  -0.458 131.728  0.00  0.00    +0.000 OA
ATOM     35  H   UNL     1      -8.622  -0.148 132.595  0.00  0.00    +0.000 HD
ENDBRANCH  12  34
BRANCH  13  36
ATOM     36  O   UNL     1      -6.867   1.791 132.578  0.00  0.00    +0.000 OA
ATOM     37  H   UNL     1      -6.349   2.617 132.518  0.00  0.00    +0.000 HD
ENDBRANCH  13  36
BRANCH  17  38
ATOM     38  O   UNL     1     -10.422   5.394 133.107  0.00  0.00    +0.000 OA
ATOM     39  H   UNL     1     -10.252   5.484 134.095  0.00  0.00    +0.000 HD
ENDBRANCH  17  38
TORSDOF 7
ENDMDL
MODEL 3
REMARK VINA RESULT:      -7.1      3.318      8.314
REMARK  Name = Minocycline
REMARK  11 active torsions:
REMARK  status: ('A' for Active; 'I' for Inactive)
REMARK    1  A    between atoms: C_6  and  O_7
REMARK    2  A    between atoms: C_10  and  N_11
REMARK    3  A    between atoms: N_11  and  C_12
REMARK    4  A    between atoms: N_11  and  C_13
REMARK    5  A    between atoms: C_17  and  O_18
REMARK    6  A    between atoms: C_19  and  O_20
REMARK    7  A    between atoms: C_23  and  C_24
REMARK    8  A    between atoms: C_27  and  O_28
REMARK    9  A    between atoms: C_29  and  N_30
REMARK   10  A    between atoms: N_30  and  C_31
REMARK   11  A    between atoms: N_30  and  C_32
REMARK                            x       y       z     vdW  Elec       q    Type
REMARK                         _______ _______ _______ _____ _____    ______ ____
ROOT
ATOM      1  C   UNL     1      -7.762   0.671 127.888  0.00  0.00    +0.000 C 
ATOM      2  C   UNL     1      -8.533   0.681 126.622  0.00  0.00    +0.000 C 
ATOM      3  C   UNL     1      -8.525  -0.493 125.738  0.00  0.00    +0.000 A 
ATOM      4  C   UNL     1      -8.313  -1.753 126.347  0.00  0.00    +0.000 A 
ATOM      5  C   UNL     1      -8.345  -2.900 125.566  0.00  0.00    +0.000 A 
ATOM      6  C   UNL     1      -8.574  -2.776 124.208  0.00  0.00    +0.000 A 
ATOM      7  C   UNL     1      -8.790  -1.509 123.629  0.00  0.00    +0.000 A 
ATOM      8  C   UNL     1      -8.799  -0.305 124.359  0.00  0.00    +0.000 A 
ATOM      9  C   UNL     1      -8.095  -1.855 127.818  0.00  0.00    +0.000 C 
ATOM     10  O   UNL     1      -8.089  -2.959 128.365  0.00  0.00    +0.000 OA
ATOM     11  C   UNL     1      -7.908  -0.608 128.617  0.00  0.00    +0.000 C 
ATOM     12  C   UNL     1      -7.849  -0.627 129.962  0.00  0.00    +0.000 C 
ATOM     13  C   UNL     1      -7.621   0.624 130.805  0.00  0.00    +0.000 C 
ATOM     14  C   UNL     1      -8.669   0.822 131.882  0.00  0.00    +0.000 C 
ATOM     15  O   UNL     1      -9.790   0.300 131.790  0.00  0.00    +0.000 OA
ATOM     16  C   UNL     1      -8.465   1.934 132.878  0.00  0.00    +0.000 C 
ATOM     17  C   UNL     1      -8.909   2.967 132.158  0.00  0.00    +0.000 C 
ATOM     18  C   UNL     1      -7.944   3.301 130.793  0.00  0.00    +0.000 C 
ATOM     19  C   UNL     1      -7.658   1.946 130.003  0.00  0.00    +0.000 C 
ATOM     20  C   UNL     1      -8.307   1.898 128.652  0.00  0.00    +0.000 C 
ENDROOT
BRANCH  16  21
ATOM     21  C   UNL     1      -7.222   2.634 133.362  0.00  0.00    +0.000 C 
ATOM     22  N   UNL     1      -6.029   1.911 133.348  0.00  0.00    +0.000 N 
ATOM     23  O   UNL     1      -7.234   3.752 133.886  0.00  0.00    +0.000 OA
ATOM     24  H   UNL     1      -6.038   0.908 133.161  0.00  0.00    +0.000 HD
ATOM     25  H   UNL     1      -5.398   2.120 134.114  0.00  0.00    +0.000 HD
ENDBRANCH  16  21
BRANCH   8  26
ATOM     26  N   UNL     1      -9.082   0.934 123.770  0.00  0.00    +0.000 N 
ATOM     27  C   UNL     1      -8.164   1.925 123.158  0.00  0.00    +0.000 C 
ATOM     28  C   UNL     1     -10.463   1.387 123.580  0.00  0.00    +0.000 C 
ENDBRANCH   8  26
BRANCH  18  29
ATOM     29  N   UNL     1      -6.594   3.995 130.627  0.00  0.00    +0.000 NA
ATOM     30  C   UNL     1      -6.334   5.471 130.699  0.00  0.00    +0.000 C 
ATOM     31  C   UNL     1      -5.567   3.403 129.812  0.00  0.00    +0.000 C 
ENDBRANCH  18  29
BRANCH   5  32
ATOM     32  O   UNL     1      -8.157  -4.160 126.059  0.00  0.00    +0.000 OA
ATOM     33  H   UNL     1      -8.447  -4.801 125.372  0.00  0.00    +0.000 HD
ENDBRANCH   5  32
BRANCH  12  34
ATOM     34  O   UNL     1      -7.899  -1.808 130.687  0.00  0.00    +0.000 OA
ATOM     35  H   UNL     1      -7.028  -2.255 130.581  0.00  0.00    +0.000 HD
ENDBRANCH  12  34
BRANCH  13  36
ATOM     36  O   UNL     1      -6.343   0.395 131.382  0.00  0.00    +0.000 OA
ATOM     37  H   UNL     1      -6.325   0.922 132.205  0.00  0.00    +0.000 HD
ENDBRANCH  13  36
BRANCH  17  38
ATOM     38  O   UNL     1      -9.699   3.891 132.936  0.00  0.00    +0.000 OA
ATOM     39  H   UNL     1      -9.065   4.459 133.474  0.00  0.00    +0.000 HD
ENDBRANCH  17  38
TORSDOF 7
ENDMDL
MODEL 4
REMARK VINA RESULT:      -7.0      3.766      7.822
REMARK  Name = Minocycline
REMARK  11 active torsions:
REMARK  status: ('A' for Active; 'I' for Inactive)
REMARK    1  A    between atoms: C_6  and  O_7
REMARK    2  A    between atoms: C_10  and  N_11
REMARK    3  A    between atoms: N_11  and  C_12
REMARK    4  A    between atoms: N_11  and  C_13
REMARK    5  A    between atoms: C_17  and  O_18
REMARK    6  A    between atoms: C_19  and  O_20
REMARK    7  A    between atoms: C_23  and  C_24
REMARK    8  A    between atoms: C_27  and  O_28
REMARK    9  A    between atoms: C_29  and  N_30
REMARK   10  A    between atoms: N_30  and  C_31
REMARK   11  A    between atoms: N_30  and  C_32
REMARK                            x       y       z     vdW  Elec       q    Type
REMARK                         _______ _______ _______ _____ _____    ______ ____
ROOT
ATOM      1  C   UNL     1      -7.420  -0.583 127.406  0.00  0.00    +0.000 C 
ATOM      2  C   UNL     1      -7.369  -0.784 125.939  0.00  0.00    +0.000 C 
ATOM      3  C   UNL     1      -8.128   0.098 125.042  0.00  0.00    +0.000 A 
ATOM      4  C   UNL     1      -8.382   1.414 125.498  0.00  0.00    +0.000 A 
ATOM      5  C   UNL     1      -9.051   2.304 124.671  0.00  0.00    +0.000 A 
ATOM      6  C   UNL     1      -9.463   1.874 123.423  0.00  0.00    +0.000 A 
ATOM      7  C   UNL     1      -9.191   0.561 122.990  0.00  0.00    +0.000 A 
ATOM      8  C   UNL     1      -8.494  -0.390 123.761  0.00  0.00    +0.000 A 
ATOM      9  C   UNL     1      -7.901   1.855 126.839  0.00  0.00    +0.000 C 
ATOM     10  O   UNL     1      -7.966   3.043 127.156  0.00  0.00    +0.000 OA
ATOM     11  C   UNL     1      -7.323   0.846 127.776  0.00  0.00    +0.000 C 
ATOM     12  C   UNL     1      -6.745   1.204 128.938  0.00  0.00    +0.000 C 
ATOM     13  C   UNL     1      -6.180   0.196 129.934  0.00  0.00    +0.000 C 
ATOM     14  C   UNL     1      -4.742   0.477 130.322  0.00  0.00    +0.000 C 
ATOM     15  O   UNL     1      -4.000   1.149 129.592  0.00  0.00    +0.000 OA
ATOM     16  C   UNL     1      -4.125  -0.355 131.416  0.00  0.00    +0.000 C 
ATOM     17  C   UNL     1      -3.795  -1.443 130.715  0.00  0.00    +0.000 C 
ATOM     18  C   UNL     1      -5.147  -2.289 130.110  0.00  0.00    +0.000 C 
ATOM     19  C   UNL     1      -6.146  -1.260 129.413  0.00  0.00    +0.000 C 
ATOM     20  C   UNL     1      -6.253  -1.451 127.930  0.00  0.00    +0.000 C 
ENDROOT
BRANCH  16  21
ATOM     21  C   UNL     1      -4.733  -1.117 132.564  0.00  0.00    +0.000 C 
ATOM     22  N   UNL     1      -5.938  -0.645 133.083  0.00  0.00    +0.000 N 
ATOM     23  O   UNL     1      -4.158  -2.043 133.144  0.00  0.00    +0.000 OA
ATOM     24  H   UNL     1      -6.303   0.262 132.791  0.00  0.00    +0.000 HD
ATOM     25  H   UNL     1      -6.042  -0.759 134.085  0.00  0.00    +0.000 HD
ENDBRANCH  16  21
BRANCH   8  26
ATOM     26  N   UNL     1      -8.179  -1.668 123.282  0.00  0.00    +0.000 N 
ATOM     27  C   UNL     1      -8.989  -2.910 123.288  0.00  0.00    +0.000 C 
ATOM     28  C   UNL     1      -6.932  -1.920 122.554  0.00  0.00    +0.000 C 
ENDBRANCH   8  26
BRANCH  18  29
ATOM     29  N   UNL     1      -6.152  -3.233 130.766  0.00  0.00    +0.000 NA
ATOM     30  C   UNL     1      -5.895  -4.644 131.207  0.00  0.00    +0.000 C 
ATOM     31  C   UNL     1      -7.557  -3.104 130.491  0.00  0.00    +0.000 C 
ENDBRANCH  18  29
BRANCH   5  32
ATOM     32  O   UNL     1      -9.339   3.594 125.017  0.00  0.00    +0.000 OA
ATOM     33  H   UNL     1     -10.203   3.597 125.487  0.00  0.00    +0.000 HD
ENDBRANCH   5  32
BRANCH  12  34
ATOM     34  O   UNL     1      -6.702   2.522 129.367  0.00  0.00    +0.000 OA
ATOM     35  H   UNL     1      -5.796   2.862 129.182  0.00  0.00    +0.000 HD
ENDBRANCH  12  34
BRANCH  13  36
ATOM     36  O   UNL     1      -7.040   0.333 131.056  0.00  0.00    +0.000 OA
ATOM     37  H   UNL     1      -7.663  -0.418 131.006  0.00  0.00    +0.000 HD
ENDBRANCH  13  36
BRANCH  17  38
ATOM     38  O   UNL     1      -2.505  -1.974 131.082  0.00  0.00    +0.000 OA
ATOM     39  H   UNL     1      -1.813  -1.272 130.875  0.00  0.00    +0.000 HD
ENDBRANCH  17  38
TORSDOF 7
ENDMDL
MODEL 5
REMARK VINA RESULT:      -6.9      1.784      2.130
REMARK  Name = Minocycline
REMARK  11 active torsions:
REMARK  status: ('A' for Active; 'I' for Inactive)
REMARK    1  A    between atoms: C_6  and  O_7
REMARK    2  A    between atoms: C_10  and  N_11
REMARK    3  A    between atoms: N_11  and  C_12
REMARK    4  A    between atoms: N_11  and  C_13
REMARK    5  A    between atoms: C_17  and  O_18
REMARK    6  A    between atoms: C_19  and  O_20
REMARK    7  A    between atoms: C_23  and  C_24
REMARK    8  A    between atoms: C_27  and  O_28
REMARK    9  A    between atoms: C_29  and  N_30
REMARK   10  A    between atoms: N_30  and  C_31
REMARK   11  A    between atoms: N_30  and  C_32
REMARK                            x       y       z     vdW  Elec       q    Type
REMARK                         _______ _______ _______ _____ _____    ______ ____
ROOT
ATOM      1  C   UNL     1      -6.882   2.068 128.765  0.00  0.00    +0.000 C 
ATOM      2  C   UNL     1      -7.683   3.021 129.569  0.00  0.00    +0.000 C 
ATOM      3  C   UNL     1      -7.044   4.188 130.192  0.00  0.00    +0.000 A 
ATOM      4  C   UNL     1      -5.889   4.703 129.557  0.00  0.00    +0.000 A 
ATOM      5  C   UNL     1      -5.274   5.834 130.074  0.00  0.00    +0.000 A 
ATOM      6  C   UNL     1      -5.805   6.422 131.207  0.00  0.00    +0.000 A 
ATOM      7  C   UNL     1      -6.960   5.893 131.816  0.00  0.00    +0.000 A 
ATOM      8  C   UNL     1      -7.655   4.766 131.335  0.00  0.00    +0.000 A 
ATOM      9  C   UNL     1      -5.357   4.061 128.320  0.00  0.00    +0.000 C 
ATOM     10  O   UNL     1      -4.466   4.613 127.674  0.00  0.00    +0.000 OA
ATOM     11  C   UNL     1      -5.933   2.760 127.867  0.00  0.00    +0.000 C 
ATOM     12  C   UNL     1      -5.595   2.205 126.688  0.00  0.00    +0.000 C 
ATOM     13  C   UNL     1      -6.135   0.860 126.213  0.00  0.00    +0.000 C 
ATOM     14  C   UNL     1      -6.761   0.917 124.834  0.00  0.00    +0.000 C 
ATOM     15  O   UNL     1      -7.181   1.984 124.363  0.00  0.00    +0.000 OA
ATOM     16  C   UNL     1      -7.189  -0.378 124.193  0.00  0.00    +0.000 C 
ATOM     17  C   UNL     1      -8.366  -0.552 124.796  0.00  0.00    +0.000 C 
ATOM     18  C   UNL     1      -8.231  -0.817 126.475  0.00  0.00    +0.000 C 
ATOM     19  C   UNL     1      -7.255   0.275 127.105  0.00  0.00    +0.000 C 
ATOM     20  C   UNL     1      -7.951   1.229 128.029  0.00  0.00    +0.000 C 
ENDROOT
BRANCH  16  21
ATOM     21  C   UNL     1      -6.727  -1.798 124.390  0.00  0.00    +0.000 C 
ATOM     22  N   UNL     1      -5.405  -1.996 124.787  0.00  0.00    +0.000 N 
ATOM     23  O   UNL     1      -7.413  -2.781 124.094  0.00  0.00    +0.000 OA
ATOM     24  H   UNL     1      -4.747  -1.216 124.792  0.00  0.00    +0.000 HD
ATOM     25  H   UNL     1      -4.965  -2.824 124.400  0.00  0.00    +0.000 HD
ENDBRANCH  16  21
BRANCH   8  26
ATOM     26  N   UNL     1      -8.839   4.301 131.920  0.00  0.00    +0.000 N 
ATOM     27  C   UNL     1      -9.035   3.303 132.998  0.00  0.00    +0.000 C 
ATOM     28  C   UNL     1     -10.138   4.882 131.571  0.00  0.00    +0.000 C 
ENDBRANCH   8  26
BRANCH  18  29
ATOM     29  N   UNL     1      -7.829  -2.039 127.298  0.00  0.00    +0.000 NA
ATOM     30  C   UNL     1      -8.637  -3.288 127.494  0.00  0.00    +0.000 C 
ATOM     31  C   UNL     1      -6.950  -1.898 128.427  0.00  0.00    +0.000 C 
ENDBRANCH  18  29
BRANCH   5  32
ATOM     32  O   UNL     1      -4.160   6.409 129.531  0.00  0.00    +0.000 OA
ATOM     33  H   UNL     1      -3.392   6.184 130.103  0.00  0.00    +0.000 HD
ENDBRANCH   5  32
BRANCH  12  34
ATOM     34  O   UNL     1      -4.649   2.774 125.848  0.00  0.00    +0.000 OA
ATOM     35  H   UNL     1      -3.863   2.180 125.845  0.00  0.00    +0.000 HD
ENDBRANCH  12  34
BRANCH  13  36
ATOM     36  O   UNL     1      -4.981   0.032 126.208  0.00  0.00    +0.000 OA
ATOM     37  H   UNL     1      -4.309   0.509 126.733  0.00  0.00    +0.000 HD
ENDBRANCH  13  36
BRANCH  17  38
ATOM     38  O   UNL     1      -9.388  -1.038 123.899  0.00  0.00    +0.000 OA
ATOM     39  H   UNL     1      -9.245  -0.597 123.005  0.00  0.00    +0.000 HD
ENDBRANCH  17  38
TORSDOF 7
ENDMDL
MODEL 6
REMARK VINA RESULT:      -6.8      3.512      4.786
REMARK  Name = Minocycline
REMARK  11 active torsions:
REMARK  status: ('A' for Active; 'I' for Inactive)
REMARK    1  A    between atoms: C_6  and  O_7
REMARK    2  A    between atoms: C_10  and  N_11
REMARK    3  A    between atoms: N_11  and  C_12
REMARK    4  A    between atoms: N_11  and  C_13
REMARK    5  A    between atoms: C_17  and  O_18
REMARK    6  A    between atoms: C_19  and  O_20
REMARK    7  A    between atoms: C_23  and  C_24
REMARK    8  A    between atoms: C_27  and  O_28
REMARK    9  A    between atoms: C_29  and  N_30
REMARK   10  A    between atoms: N_30  and  C_31
REMARK   11  A    between atoms: N_30  and  C_32
REMARK                            x       y       z     vdW  Elec       q    Type
REMARK                         _______ _______ _______ _____ _____    ______ ____
ROOT
ATOM      1  C   UNL     1      -6.089   1.132 127.786  0.00  0.00    +0.000 C 
ATOM      2  C   UNL     1      -4.980   2.053 128.133  0.00  0.00    +0.000 C 
ATOM      3  C   UNL     1      -4.540   2.194 129.528  0.00  0.00    +0.000 A 
ATOM      4  C   UNL     1      -4.733   1.078 130.378  0.00  0.00    +0.000 A 
ATOM      5  C   UNL     1      -4.291   1.139 131.691  0.00  0.00    +0.000 A 
ATOM      6  C   UNL     1      -3.681   2.297 132.137  0.00  0.00    +0.000 A 
ATOM      7  C   UNL     1      -3.495   3.391 131.267  0.00  0.00    +0.000 A 
ATOM      8  C   UNL     1      -3.892   3.394 129.916  0.00  0.00    +0.000 A 
ATOM      9  C   UNL     1      -5.370  -0.166 129.859  0.00  0.00    +0.000 C 
ATOM     10  O   UNL     1      -5.373  -1.189 130.545  0.00  0.00    +0.000 OA
ATOM     11  C   UNL     1      -5.979  -0.162 128.495  0.00  0.00    +0.000 C 
ATOM     12  C   UNL     1      -6.440  -1.287 127.919  0.00  0.00    +0.000 C 
ATOM     13  C   UNL     1      -7.101  -1.310 126.544  0.00  0.00    +0.000 C 
ATOM     14  C   UNL     1      -6.473  -2.308 125.592  0.00  0.00    +0.000 C 
ATOM     15  O   UNL     1      -5.312  -2.709 125.757  0.00  0.00    +0.000 OA
ATOM     16  C   UNL     1      -7.138  -2.534 124.258  0.00  0.00    +0.000 C 
ATOM     17  C   UNL     1      -6.659  -1.486 123.586  0.00  0.00    +0.000 C 
ATOM     18  C   UNL     1      -7.202   0.011 124.195  0.00  0.00    +0.000 C 
ATOM     19  C   UNL     1      -7.024   0.032 125.780  0.00  0.00    +0.000 C 
ATOM     20  C   UNL     1      -5.995   1.018 126.248  0.00  0.00    +0.000 C 
ENDROOT
BRANCH  16  21
ATOM     21  C   UNL     1      -8.560  -2.348 123.799  0.00  0.00    +0.000 C 
ATOM     22  N   UNL     1      -8.761  -1.804 122.531  0.00  0.00    +0.000 N 
ATOM     23  O   UNL     1      -9.538  -2.525 124.532  0.00  0.00    +0.000 OA
ATOM     24  H   UNL     1      -7.976  -1.414 122.009  0.00  0.00    +0.000 HD
ATOM     25  H   UNL     1      -9.572  -1.200 122.452  0.00  0.00    +0.000 HD
ENDBRANCH  16  21
BRANCH   8  26
ATOM     26  N   UNL     1      -3.635   4.469 129.056  0.00  0.00    +0.000 N 
ATOM     27  C   UNL     1      -2.616   4.607 127.988  0.00  0.00    +0.000 C 
ATOM     28  C   UNL     1      -4.498   5.654 129.043  0.00  0.00    +0.000 C 
ENDBRANCH   8  26
BRANCH  18  29
ATOM     29  N   UNL     1      -8.526   0.759 124.067  0.00  0.00    +0.000 NA
ATOM     30  C   UNL     1      -8.868   1.799 123.041  0.00  0.00    +0.000 C 
ATOM     31  C   UNL     1      -9.344   0.995 125.226  0.00  0.00    +0.000 C 
ENDBRANCH  18  29
BRANCH   5  32
ATOM     32  O   UNL     1      -4.426   0.116 132.587  0.00  0.00    +0.000 OA
ATOM     33  H   UNL     1      -4.173   0.454 133.474  0.00  0.00    +0.000 HD
ENDBRANCH   5  32
BRANCH  12  34
ATOM     34  O   UNL     1      -6.434  -2.509 128.574  0.00  0.00    +0.000 OA
ATOM     35  H   UNL     1      -7.203  -3.026 128.240  0.00  0.00    +0.000 HD
ENDBRANCH  12  34
BRANCH  13  36
ATOM     36  O   UNL     1      -8.444  -1.671 126.838  0.00  0.00    +0.000 OA
ATOM     37  H   UNL     1      -8.590  -2.531 126.399  0.00  0.00    +0.000 HD
ENDBRANCH  13  36
BRANCH  17  38
ATOM     38  O   UNL     1      -6.293  -1.813 122.228  0.00  0.00    +0.000 OA
ATOM     39  H   UNL     1      -5.925  -2.750 122.227  0.00  0.00    +0.000 HD
ENDBRANCH  17  38
TORSDOF 7
ENDMDL
MODEL 7
REMARK VINA RESULT:      -6.8      1.763      2.054
REMARK  Name = Minocycline
REMARK  11 active torsions:
REMARK  status: ('A' for Active; 'I' for Inactive)
REMARK    1  A    between atoms: C_6  and  O_7
REMARK    2  A    between atoms: C_10  and  N_11
REMARK    3  A    between atoms: N_11  and  C_12
REMARK    4  A    between atoms: N_11  and  C_13
REMARK    5  A    between atoms: C_17  and  O_18
REMARK    6  A    between atoms: C_19  and  O_20
REMARK    7  A    between atoms: C_23  and  C_24
REMARK    8  A    between atoms: C_27  and  O_28
REMARK    9  A    between atoms: C_29  and  N_30
REMARK   10  A    between atoms: N_30  and  C_31
REMARK   11  A    between atoms: N_30  and  C_32
REMARK                            x       y       z     vdW  Elec       q    Type
REMARK                         _______ _______ _______ _____ _____    ______ ____
ROOT
ATOM      1  C   UNL     1      -5.144   2.541 128.258  0.00  0.00    +0.000 C 
ATOM      2  C   UNL     1      -5.068   2.629 129.736  0.00  0.00    +0.000 C 
ATOM      3  C   UNL     1      -4.146   3.576 130.377  0.00  0.00    +0.000 A 
ATOM      4  C   UNL     1      -3.819   4.746 129.650  0.00  0.00    +0.000 A 
ATOM      5  C   UNL     1      -2.993   5.698 130.229  0.00  0.00    +0.000 A 
ATOM      6  C   UNL     1      -2.501   5.470 131.501  0.00  0.00    +0.000 A 
ATOM      7  C   UNL     1      -2.848   4.300 132.206  0.00  0.00    +0.000 A 
ATOM      8  C   UNL     1      -3.702   3.302 131.696  0.00  0.00    +0.000 A 
ATOM      9  C   UNL     1      -4.388   4.975 128.291  0.00  0.00    +0.000 C 
ATOM     10  O   UNL     1      -4.246   6.067 127.740  0.00  0.00    +0.000 OA
ATOM     11  C   UNL     1      -5.145   3.876 127.622  0.00  0.00    +0.000 C 
ATOM     12  C   UNL     1      -5.800   4.068 126.461  0.00  0.00    +0.000 C 
ATOM     13  C   UNL     1      -6.551   2.958 125.733  0.00  0.00    +0.000 C 
ATOM     14  C   UNL     1      -7.988   3.316 125.411  0.00  0.00    +0.000 C 
ATOM     15  O   UNL     1      -8.590   4.191 126.050  0.00  0.00    +0.000 OA
ATOM     16  C   UNL     1      -8.784   2.363 124.557  0.00  0.00    +0.000 C 
ATOM     17  C   UNL     1      -9.141   1.471 125.483  0.00  0.00    +0.000 C 
ATOM     18  C   UNL     1      -7.820   0.612 126.135  0.00  0.00    +0.000 C 
ATOM     19  C   UNL     1      -6.666   1.639 126.532  0.00  0.00    +0.000 C 
ATOM     20  C   UNL     1      -6.431   1.723 128.011  0.00  0.00    +0.000 C 
ENDROOT
BRANCH  16  21
ATOM     21  C   UNL     1      -8.365   1.337 123.537  0.00  0.00    +0.000 C 
ATOM     22  N   UNL     1      -7.184   1.573 122.833  0.00  0.00    +0.000 N 
ATOM     23  O   UNL     1      -9.073   0.381 123.207  0.00  0.00    +0.000 OA
ATOM     24  H   UNL     1      -6.716   2.477 122.905  0.00  0.00    +0.000 HD
ATOM     25  H   UNL     1      -7.195   1.258 121.870  0.00  0.00    +0.000 HD
ENDBRANCH  16  21
BRANCH   8  26
ATOM     26  N   UNL     1      -4.084   2.181 132.443  0.00  0.00    +0.000 N 
ATOM     27  C   UNL     1      -3.419   0.862 132.582  0.00  0.00    +0.000 C 
ATOM     28  C   UNL     1      -5.241   2.225 133.342  0.00  0.00    +0.000 C 
ENDBRANCH   8  26
BRANCH  18  29
ATOM     29  N   UNL     1      -6.975  -0.542 125.602  0.00  0.00    +0.000 NA
ATOM     30  C   UNL     1      -7.411  -1.969 125.446  0.00  0.00    +0.000 C 
ATOM     31  C   UNL     1      -5.546  -0.531 125.759  0.00  0.00    +0.000 C 
ENDBRANCH  18  29
BRANCH   5  32
ATOM     32  O   UNL     1      -2.623   6.860 129.612  0.00  0.00    +0.000 OA
ATOM     33  H   UNL     1      -1.918   7.280 130.153  0.00  0.00    +0.000 HD
ENDBRANCH   5  32
BRANCH  12  34
ATOM     34  O   UNL     1      -5.765   5.278 125.784  0.00  0.00    +0.000 OA
ATOM     35  H   UNL     1      -5.250   5.910 126.338  0.00  0.00    +0.000 HD
ENDBRANCH  12  34
BRANCH  13  36
ATOM     36  O   UNL     1      -5.797   2.785 124.542  0.00  0.00    +0.000 OA
ATOM     37  H   UNL     1      -6.292   2.137 124.004  0.00  0.00    +0.000 HD
ENDBRANCH  13  36
BRANCH  17  38
ATOM     38  O   UNL     1     -10.505   1.024 125.332  0.00  0.00    +0.000 OA
ATOM     39  H   UNL     1     -10.772   0.563 126.186  0.00  0.00    +0.000 HD
ENDBRANCH  17  38
TORSDOF 7
ENDMDL
MODEL 8
REMARK VINA RESULT:      -6.7      5.210      7.365
REMARK  Name = Minocycline
REMARK  11 active torsions:
REMARK  status: ('A' for Active; 'I' for Inactive)
REMARK    1  A    between atoms: C_6  and  O_7
REMARK    2  A    between atoms: C_10  and  N_11
REMARK    3  A    between atoms: N_11  and  C_12
REMARK    4  A    between atoms: N_11  and  C_13
REMARK    5  A    between atoms: C_17  and  O_18
REMARK    6  A    between atoms: C_19  and  O_20
REMARK    7  A    between atoms: C_23  and  C_24
REMARK    8  A    between atoms: C_27  and  O_28
REMARK    9  A    between atoms: C_29  and  N_30
REMARK   10  A    between atoms: N_30  and  C_31
REMARK   11  A    between atoms: N_30  and  C_32
REMARK                            x       y       z     vdW  Elec       q    Type
REMARK                         _______ _______ _______ _____ _____    ______ ____
ROOT
ATOM      1  C   UNL     1      -4.627   2.105 130.443  0.00  0.00    +0.000 C 
ATOM      2  C   UNL     1      -3.752   2.581 129.345  0.00  0.00    +0.000 C 
ATOM      3  C   UNL     1      -3.250   3.962 129.341  0.00  0.00    +0.000 A 
ATOM      4  C   UNL     1      -3.097   4.593 130.599  0.00  0.00    +0.000 A 
ATOM      5  C   UNL     1      -2.579   5.878 130.657  0.00  0.00    +0.000 A 
ATOM      6  C   UNL     1      -2.237   6.513 129.478  0.00  0.00    +0.000 A 
ATOM      7  C   UNL     1      -2.393   5.860 128.239  0.00  0.00    +0.000 A 
ATOM      8  C   UNL     1      -2.885   4.547 128.102  0.00  0.00    +0.000 A 
ATOM      9  C   UNL     1      -3.450   3.870 131.855  0.00  0.00    +0.000 C 
ATOM     10  O   UNL     1      -3.150   4.352 132.948  0.00  0.00    +0.000 OA
ATOM     11  C   UNL     1      -4.149   2.554 131.769  0.00  0.00    +0.000 C 
ATOM     12  C   UNL     1      -4.366   1.791 132.857  0.00  0.00    +0.000 C 
ATOM     13  C   UNL     1      -5.110   0.460 132.808  0.00  0.00    +0.000 C 
ATOM     14  C   UNL     1      -4.335  -0.684 133.432  0.00  0.00    +0.000 C 
ATOM     15  O   UNL     1      -3.102  -0.636 133.547  0.00  0.00    +0.000 OA
ATOM     16  C   UNL     1      -5.029  -2.013 133.585  0.00  0.00    +0.000 C 
ATOM     17  C   UNL     1      -4.875  -2.492 132.349  0.00  0.00    +0.000 C 
ATOM     18  C   UNL     1      -5.716  -1.593 131.168  0.00  0.00    +0.000 C 
ATOM     19  C   UNL     1      -5.423  -0.040 131.378  0.00  0.00    +0.000 C 
ATOM     20  C   UNL     1      -4.632   0.571 130.260  0.00  0.00    +0.000 C 
ENDROOT
BRANCH  16  21
ATOM     21  C   UNL     1      -6.486  -2.380 133.689  0.00  0.00    +0.000 C 
ATOM     22  N   UNL     1      -6.891  -3.580 133.104  0.00  0.00    +0.000 N 
ATOM     23  O   UNL     1      -7.346  -1.620 134.143  0.00  0.00    +0.000 OA
ATOM     24  H   UNL     1      -6.251  -4.101 132.505  0.00  0.00    +0.000 HD
ATOM     25  H   UNL     1      -7.818  -3.560 132.695  0.00  0.00    +0.000 HD
ENDBRANCH  16  21
BRANCH   8  26
ATOM     26  N   UNL     1      -2.968   3.897 126.865  0.00  0.00    +0.000 N 
ATOM     27  C   UNL     1      -4.079   3.861 125.884  0.00  0.00    +0.000 C 
ATOM     28  C   UNL     1      -1.813   3.194 126.297  0.00  0.00    +0.000 C 
ENDBRANCH   8  26
BRANCH  18  29
ATOM     29  N   UNL     1      -7.189  -1.534 130.771  0.00  0.00    +0.000 NA
ATOM     30  C   UNL     1      -7.895  -2.456 129.821  0.00  0.00    +0.000 C 
ATOM     31  C   UNL     1      -7.895  -0.282 130.779  0.00  0.00    +0.000 C 
ENDBRANCH  18  29
BRANCH   5  32
ATOM     32  O   UNL     1      -2.389   6.570 131.821  0.00  0.00    +0.000 OA
ATOM     33  H   UNL     1      -3.202   7.093 132.000  0.00  0.00    +0.000 HD
ENDBRANCH   5  32
BRANCH  12  34
ATOM     34  O   UNL     1      -4.010   2.204 134.132  0.00  0.00    +0.000 OA
ATOM     35  H   UNL     1      -4.472   1.615 134.772  0.00  0.00    +0.000 HD
ENDBRANCH  12  34
BRANCH  13  36
ATOM     36  O   UNL     1      -6.296   0.726 133.543  0.00  0.00    +0.000 OA
ATOM     37  H   UNL     1      -7.026   0.680 132.895  0.00  0.00    +0.000 HD
ENDBRANCH  13  36
BRANCH  17  38
ATOM     38  O   UNL     1      -4.550  -3.898 132.331  0.00  0.00    +0.000 OA
ATOM     39  H   UNL     1      -4.025  -4.102 133.166  0.00  0.00    +0.000 HD
ENDBRANCH  17  38
TORSDOF 7
ENDMDL
MODEL 9
REMARK VINA RESULT:      -6.6      2.124      7.371
REMARK  Name = Minocycline
REMARK  11 active torsions:
REMARK  status: ('A' for Active; 'I' for Inactive)
REMARK    1  A    between atoms: C_6  and  O_7
REMARK    2  A    between atoms: C_10  and  N_11
REMARK    3  A    between atoms: N_11  and  C_12
REMARK    4  A    between atoms: N_11  and  C_13
REMARK    5  A    between atoms: C_17  and  O_18
REMARK    6  A    between atoms: C_19  and  O_20
REMARK    7  A    between atoms: C_23  and  C_24
REMARK    8  A    between atoms: C_27  and  O_28
REMARK    9  A    between atoms: C_29  and  N_30
REMARK   10  A    between atoms: N_30  and  C_31
REMARK   11  A    between atoms: N_30  and  C_32
REMARK                            x       y       z     vdW  Elec       q    Type
REMARK                         _______ _______ _______ _____ _____    ______ ____
ROOT
ATOM      1  C   UNL     1      -7.119   1.609 129.108  0.00  0.00    +0.000 C 
ATOM      2  C   UNL     1      -6.821   0.192 128.788  0.00  0.00    +0.000 C 
ATOM      3  C   UNL     1      -7.654  -0.543 127.827  0.00  0.00    +0.000 A 
ATOM      4  C   UNL     1      -8.296   0.218 126.820  0.00  0.00    +0.000 A 
ATOM      5  C   UNL     1      -9.054  -0.431 125.856  0.00  0.00    +0.000 A 
ATOM      6  C   UNL     1      -9.170  -1.807 125.914  0.00  0.00    +0.000 A 
ATOM      7  C   UNL     1      -8.515  -2.542 126.923  0.00  0.00    +0.000 A 
ATOM      8  C   UNL     1      -7.707  -1.957 127.918  0.00  0.00    +0.000 A 
ATOM      9  C   UNL     1      -8.129   1.698 126.769  0.00  0.00    +0.000 C 
ATOM     10  O   UNL     1      -8.539   2.331 125.796  0.00  0.00    +0.000 OA
ATOM     11  C   UNL     1      -7.443   2.395 127.898  0.00  0.00    +0.000 C 
ATOM     12  C   UNL     1      -7.138   3.705 127.844  0.00  0.00    +0.000 C 
ATOM     13  C   UNL     1      -6.471   4.455 128.994  0.00  0.00    +0.000 C 
ATOM     14  C   UNL     1      -5.219   5.202 128.579  0.00  0.00    +0.000 C 
ATOM     15  O   UNL     1      -4.584   4.875 127.566  0.00  0.00    +0.000 OA
ATOM     16  C   UNL     1      -4.562   6.105 129.590  0.00  0.00    +0.000 C 
ATOM     17  C   UNL     1      -3.874   5.200 130.289  0.00  0.00    +0.000 C 
ATOM     18  C   UNL     1      -4.868   4.103 131.134  0.00  0.00    +0.000 C 
ATOM     19  C   UNL     1      -5.995   3.547 130.152  0.00  0.00    +0.000 C 
ATOM     20  C   UNL     1      -5.850   2.085 129.849  0.00  0.00    +0.000 C 
ENDROOT
BRANCH  16  21
ATOM     21  C   UNL     1      -5.103   6.823 130.798  0.00  0.00    +0.000 C 
ATOM     22  N   UNL     1      -4.287   6.885 131.928  0.00  0.00    +0.000 N 
ATOM     23  O   UNL     1      -6.264   7.235 130.880  0.00  0.00    +0.000 OA
ATOM     24  H   UNL     1      -3.429   6.335 131.974  0.00  0.00    +0.000 HD
ATOM     25  H   UNL     1      -4.783   6.838 132.812  0.00  0.00    +0.000 HD
ENDBRANCH  16  21
BRANCH   8  26
ATOM     26  N   UNL     1      -7.013  -2.716 128.869  0.00  0.00    +0.000 N 
ATOM     27  C   UNL     1      -5.571  -3.051 128.947  0.00  0.00    +0.000 C 
ATOM     28  C   UNL     1      -7.683  -3.226 130.069  0.00  0.00    +0.000 C 
ENDBRANCH   8  26
BRANCH  18  29
ATOM     29  N   UNL     1      -5.676   4.224 132.424  0.00  0.00    +0.000 NA
ATOM     30  C   UNL     1      -5.183   3.952 133.814  0.00  0.00    +0.000 C 
ATOM     31  C   UNL     1      -7.100   4.024 132.412  0.00  0.00    +0.000 C 
ENDBRANCH  18  29
BRANCH   5  32
ATOM     32  O   UNL     1      -9.708   0.212 124.843  0.00  0.00    +0.000 OA
ATOM     33  H   UNL     1     -10.601   0.462 125.168  0.00  0.00    +0.000 HD
ENDBRANCH   5  32
BRANCH  12  34
ATOM     34  O   UNL     1      -7.492   4.503 126.767  0.00  0.00    +0.000 OA
ATOM     35  H   UNL     1      -7.303   3.992 125.947  0.00  0.00    +0.000 HD
ENDBRANCH  12  34
BRANCH  13  36
ATOM     36  O   UNL     1      -7.481   5.360 129.417  0.00  0.00    +0.000 OA
ATOM     37  H   UNL     1      -7.121   5.810 130.206  0.00  0.00    +0.000 HD
ENDBRANCH  13  36
BRANCH  17  38
ATOM     38  O   UNL     1      -2.551   5.656 130.644  0.00  0.00    +0.000 OA
ATOM     39  H   UNL     1      -2.306   6.405 130.017  0.00  0.00    +0.000 HD
ENDBRANCH  17  38
TORSDOF 7
ENDMDL
