MODEL 1
REMARK VINA RESULT:      -6.4      0.000      0.000
REMARK  Name = Minoxidil
REMARK  1 active torsions:
REMARK  status: ('A' for Active; 'I' for Inactive)
REMARK    1  A    between atoms: N_1  and  C_2
REMARK                            x       y       z     vdW  Elec       q    Type
REMARK                         _______ _______ _______ _____ _____    ______ ____
ROOT
ATOM      1  C   UNL     1      -9.565   5.359 132.695  0.00  0.00    +0.000 A 
ATOM      2  C   UNL     1     -10.624   5.903 131.968  0.00  0.00    +0.000 A 
ATOM      3  C   UNL     1     -10.362   6.812 130.952  0.00  0.00    +0.000 A 
ATOM      4  N   UNL     1      -9.089   7.170 130.659  0.00  0.00    +0.000 NA
ATOM      5  C   UNL     1      -8.040   6.671 131.368  0.00  0.00    +0.000 A 
ATOM      6  N   UNL     1      -6.746   7.056 131.051  0.00  0.00    +0.000 N 
ATOM      7  N   UNL     1      -8.249   5.751 132.404  0.00  0.00    +0.000 N 
ATOM      8  O   UNL     1      -7.256   5.259 133.076  0.00  0.00    +0.000 OA
ATOM      9  N   UNL     1     -11.349   7.322 130.140  0.00  0.00    +0.000 N 
ATOM     10  C   UNL     1     -11.505   6.685 128.836  0.00  0.00    +0.000 C 
ATOM     11  C   UNL     1     -11.726   7.783 127.796  0.00  0.00    +0.000 C 
ATOM     12  C   UNL     1     -12.920   8.668 128.162  0.00  0.00    +0.000 C 
ATOM     13  C   UNL     1     -12.823   9.175 129.608  0.00  0.00    +0.000 C 
ATOM     14  C   UNL     1     -12.536   8.035 130.607  0.00  0.00    +0.000 C 
ATOM     15  H   UNL     1      -6.591   7.773 130.362  0.00  0.00    +0.000 HD
ATOM     16  H   UNL     1      -6.019   6.686 131.652  0.00  0.00    +0.000 HD
ENDROOT
BRANCH   1  17
ATOM     17  N   UNL     1      -9.772   4.397 133.687  0.00  0.00    +0.000 N 
ATOM     18  H   UNL     1     -10.143   3.479 133.513  0.00  0.00    +0.000 HD
ATOM     19  H   UNL     1      -9.585   4.721 134.636  0.00  0.00    +0.000 HD
ENDBRANCH   1  17
TORSDOF 1
ENDMDL
MODEL 2
REMARK VINA RESULT:      -6.2      1.650      1.701
REMARK  Name = Minoxidil
REMARK  1 active torsions:
REMARK  status: ('A' for Active; 'I' for Inactive)
REMARK    1  A    between atoms: N_1  and  C_2
REMARK                            x       y       z     vdW  Elec       q    Type
REMARK                         _______ _______ _______ _____ _____    ______ ____
ROOT
ATOM      1  C   UNL     1      -9.945   5.235 131.968  0.00  0.00    +0.000 A 
ATOM      2  C   UNL     1     -10.952   6.072 131.484  0.00  0.00    +0.000 A 
ATOM      3  C   UNL     1     -10.994   6.381 130.131  0.00  0.00    +0.000 A 
ATOM      4  N   UNL     1     -10.069   5.876 129.279  0.00  0.00    +0.000 NA
ATOM      5  C   UNL     1      -9.064   5.077 129.731  0.00  0.00    +0.000 A 
ATOM      6  N   UNL     1      -8.128   4.575 128.839  0.00  0.00    +0.000 N 
ATOM      7  N   UNL     1      -8.975   4.734 131.085  0.00  0.00    +0.000 N 
ATOM      8  O   UNL     1      -8.031   3.962 131.524  0.00  0.00    +0.000 OA
ATOM      9  N   UNL     1     -12.005   7.128 129.572  0.00  0.00    +0.000 N 
ATOM     10  C   UNL     1     -13.070   6.380 128.912  0.00  0.00    +0.000 C 
ATOM     11  C   UNL     1     -13.422   7.103 127.612  0.00  0.00    +0.000 C 
ATOM     12  C   UNL     1     -13.805   8.563 127.870  0.00  0.00    +0.000 C 
ATOM     13  C   UNL     1     -12.752   9.278 128.728  0.00  0.00    +0.000 C 
ATOM     14  C   UNL     1     -12.387   8.474 129.994  0.00  0.00    +0.000 C 
ATOM     15  H   UNL     1      -8.138   4.877 127.879  0.00  0.00    +0.000 HD
ATOM     16  H   UNL     1      -7.380   4.030 129.250  0.00  0.00    +0.000 HD
ENDROOT
BRANCH   1  17
ATOM     17  N   UNL     1      -9.894   4.847 133.309  0.00  0.00    +0.000 N 
ATOM     18  H   UNL     1      -9.513   3.974 133.629  0.00  0.00    +0.000 HD
ATOM     19  H   UNL     1     -10.349   5.494 133.954  0.00  0.00    +0.000 HD
ENDBRANCH   1  17
TORSDOF 1
ENDMDL
MODEL 3
REMARK VINA RESULT:      -5.9      1.772      2.197
REMARK  Name = Minoxidil
REMARK  1 active torsions:
REMARK  status: ('A' for Active; 'I' for Inactive)
REMARK    1  A    between atoms: N_1  and  C_2
REMARK                            x       y       z     vdW  Elec       q    Type
REMARK                         _______ _______ _______ _____ _____    ______ ____
ROOT
ATOM      1  C   UNL     1      -9.940   3.302 131.565  0.00  0.00    +0.000 A 
ATOM      2  C   UNL     1     -10.575   4.065 130.584  0.00  0.00    +0.000 A 
ATOM      3  C   UNL     1     -10.621   5.446 130.713  0.00  0.00    +0.000 A 
ATOM      4  N   UNL     1     -10.053   6.057 131.781  0.00  0.00    +0.000 NA
ATOM      5  C   UNL     1      -9.450   5.335 132.763  0.00  0.00    +0.000 A 
ATOM      6  N   UNL     1      -8.879   5.984 133.847  0.00  0.00    +0.000 N 
ATOM      7  N   UNL     1      -9.374   3.938 132.681  0.00  0.00    +0.000 N 
ATOM      8  O   UNL     1      -8.788   3.241 133.603  0.00  0.00    +0.000 OA
ATOM      9  N   UNL     1     -11.154   6.265 129.745  0.00  0.00    +0.000 N 
ATOM     10  C   UNL     1     -10.202   6.893 128.836  0.00  0.00    +0.000 C 
ATOM     11  C   UNL     1     -10.634   8.344 128.625  0.00  0.00    +0.000 C 
ATOM     12  C   UNL     1     -12.074   8.430 128.114  0.00  0.00    +0.000 C 
ATOM     13  C   UNL     1     -13.031   7.604 128.985  0.00  0.00    +0.000 C 
ATOM     14  C   UNL     1     -12.514   6.168 129.218  0.00  0.00    +0.000 C 
ATOM     15  H   UNL     1      -8.994   6.978 133.954  0.00  0.00    +0.000 HD
ATOM     16  H   UNL     1      -8.491   5.382 134.564  0.00  0.00    +0.000 HD
ENDROOT
BRANCH   1  17
ATOM     17  N   UNL     1      -9.815   1.915 131.451  0.00  0.00    +0.000 N 
ATOM     18  H   UNL     1     -10.542   1.262 131.686  0.00  0.00    +0.000 HD
ATOM     19  H   UNL     1      -8.886   1.596 131.175  0.00  0.00    +0.000 HD
ENDBRANCH   1  17
TORSDOF 1
ENDMDL
MODEL 4
REMARK VINA RESULT:      -5.9      9.251     10.686
REMARK  Name = Minoxidil
REMARK  1 active torsions:
REMARK  status: ('A' for Active; 'I' for Inactive)
REMARK    1  A    between atoms: N_1  and  C_2
REMARK                            x       y       z     vdW  Elec       q    Type
REMARK                         _______ _______ _______ _____ _____    ______ ____
ROOT
ATOM      1  C   UNL     1      -8.600   3.845 120.256  0.00  0.00    +0.000 A 
ATOM      2  C   UNL     1      -8.974   3.236 121.454  0.00  0.00    +0.000 A 
ATOM      3  C   UNL     1      -8.011   2.971 122.418  0.00  0.00    +0.000 A 
ATOM      4  N   UNL     1      -6.714   3.303 122.206  0.00  0.00    +0.000 NA
ATOM      5  C   UNL     1      -6.320   3.876 121.037  0.00  0.00    +0.000 A 
ATOM      6  N   UNL     1      -4.987   4.203 120.843  0.00  0.00    +0.000 N 
ATOM      7  N   UNL     1      -7.251   4.165 120.031  0.00  0.00    +0.000 N 
ATOM      8  O   UNL     1      -6.890   4.724 118.919  0.00  0.00    +0.000 OA
ATOM      9  N   UNL     1      -8.321   2.452 123.654  0.00  0.00    +0.000 N 
ATOM     10  C   UNL     1      -8.421   3.410 124.750  0.00  0.00    +0.000 C 
ATOM     11  C   UNL     1      -7.743   2.801 125.976  0.00  0.00    +0.000 C 
ATOM     12  C   UNL     1      -8.349   1.441 126.332  0.00  0.00    +0.000 C 
ATOM     13  C   UNL     1      -8.403   0.512 125.110  0.00  0.00    +0.000 C 
ATOM     14  C   UNL     1      -9.038   1.199 123.883  0.00  0.00    +0.000 C 
ATOM     15  H   UNL     1      -4.299   3.931 121.525  0.00  0.00    +0.000 HD
ATOM     16  H   UNL     1      -4.756   4.580 119.931  0.00  0.00    +0.000 HD
ENDROOT
BRANCH   1  17
ATOM     17  N   UNL     1      -9.539   4.186 119.280  0.00  0.00    +0.000 N 
ATOM     18  H   UNL     1     -10.414   4.643 119.474  0.00  0.00    +0.000 HD
ATOM     19  H   UNL     1      -9.307   3.866 118.339  0.00  0.00    +0.000 HD
ENDBRANCH   1  17
TORSDOF 1
ENDMDL
MODEL 5
REMARK VINA RESULT:      -5.8      1.848      2.597
REMARK  Name = Minoxidil
REMARK  1 active torsions:
REMARK  status: ('A' for Active; 'I' for Inactive)
REMARK    1  A    between atoms: N_1  and  C_2
REMARK                            x       y       z     vdW  Elec       q    Type
REMARK                         _______ _______ _______ _____ _____    ______ ____
ROOT
ATOM      1  C   UNL     1      -7.756   5.930 131.214  0.00  0.00    +0.000 A 
ATOM      2  C   UNL     1      -8.697   6.811 130.682  0.00  0.00    +0.000 A 
ATOM      3  C   UNL     1      -9.757   6.314 129.936  0.00  0.00    +0.000 A 
ATOM      4  N   UNL     1      -9.886   4.982 129.725  0.00  0.00    +0.000 NA
ATOM      5  C   UNL     1      -8.969   4.104 130.213  0.00  0.00    +0.000 A 
ATOM      6  N   UNL     1      -9.121   2.745 129.981  0.00  0.00    +0.000 N 
ATOM      7  N   UNL     1      -7.881   4.553 130.972  0.00  0.00    +0.000 N 
ATOM      8  O   UNL     1      -7.009   3.724 131.455  0.00  0.00    +0.000 OA
ATOM      9  N   UNL     1     -10.767   7.116 129.454  0.00  0.00    +0.000 N 
ATOM     10  C   UNL     1     -11.997   7.144 130.237  0.00  0.00    +0.000 C 
ATOM     11  C   UNL     1     -13.177   7.099 129.267  0.00  0.00    +0.000 C 
ATOM     12  C   UNL     1     -13.107   8.238 128.247  0.00  0.00    +0.000 C 
ATOM     13  C   UNL     1     -11.731   8.302 127.569  0.00  0.00    +0.000 C 
ATOM     14  C   UNL     1     -10.575   8.279 128.591  0.00  0.00    +0.000 C 
ATOM     15  H   UNL     1      -9.855   2.420 129.374  0.00  0.00    +0.000 HD
ATOM     16  H   UNL     1      -8.376   2.154 130.330  0.00  0.00    +0.000 HD
ENDROOT
BRANCH   1  17
ATOM     17  N   UNL     1      -6.706   6.375 132.020  0.00  0.00    +0.000 N 
ATOM     18  H   UNL     1      -6.316   7.301 131.978  0.00  0.00    +0.000 HD
ATOM     19  H   UNL     1      -6.299   5.657 132.621  0.00  0.00    +0.000 HD
ENDBRANCH   1  17
TORSDOF 1
ENDMDL
MODEL 6
REMARK VINA RESULT:      -5.7      2.613      5.654
REMARK  Name = Minoxidil
REMARK  1 active torsions:
REMARK  status: ('A' for Active; 'I' for Inactive)
REMARK    1  A    between atoms: N_1  and  C_2
REMARK                            x       y       z     vdW  Elec       q    Type
REMARK                         _______ _______ _______ _____ _____    ______ ____
ROOT
ATOM      1  C   UNL     1     -10.478   7.626 129.490  0.00  0.00    +0.000 A 
ATOM      2  C   UNL     1      -9.566   6.902 130.258  0.00  0.00    +0.000 A 
ATOM      3  C   UNL     1      -9.956   6.401 131.493  0.00  0.00    +0.000 A 
ATOM      4  N   UNL     1     -11.213   6.606 131.954  0.00  0.00    +0.000 NA
ATOM      5  C   UNL     1     -12.114   7.329 131.234  0.00  0.00    +0.000 A 
ATOM      6  N   UNL     1     -13.394   7.528 131.729  0.00  0.00    +0.000 N 
ATOM      7  N   UNL     1     -11.772   7.857 129.983  0.00  0.00    +0.000 N 
ATOM      8  O   UNL     1     -12.627   8.534 129.281  0.00  0.00    +0.000 OA
ATOM      9  N   UNL     1      -9.138   5.608 132.264  0.00  0.00    +0.000 N 
ATOM     10  C   UNL     1      -9.368   4.170 132.180  0.00  0.00    +0.000 C 
ATOM     11  C   UNL     1      -9.276   3.591 133.592  0.00  0.00    +0.000 C 
ATOM     12  C   UNL     1      -7.937   3.932 134.250  0.00  0.00    +0.000 C 
ATOM     13  C   UNL     1      -7.630   5.433 134.159  0.00  0.00    +0.000 C 
ATOM     14  C   UNL     1      -7.801   5.977 132.725  0.00  0.00    +0.000 C 
ATOM     15  H   UNL     1     -13.625   7.220 132.659  0.00  0.00    +0.000 HD
ATOM     16  H   UNL     1     -13.996   8.117 131.165  0.00  0.00    +0.000 HD
ENDROOT
BRANCH   1  17
ATOM     17  N   UNL     1     -10.153   8.100 128.216  0.00  0.00    +0.000 N 
ATOM     18  H   UNL     1      -9.358   8.683 128.018  0.00  0.00    +0.000 HD
ATOM     19  H   UNL     1     -10.834   7.869 127.493  0.00  0.00    +0.000 HD
ENDBRANCH   1  17
TORSDOF 1
ENDMDL
MODEL 7
REMARK VINA RESULT:      -5.5      9.177     10.160
REMARK  Name = Minoxidil
REMARK  1 active torsions:
REMARK  status: ('A' for Active; 'I' for Inactive)
REMARK    1  A    between atoms: N_1  and  C_2
REMARK                            x       y       z     vdW  Elec       q    Type
REMARK                         _______ _______ _______ _____ _____    ______ ____
ROOT
ATOM      1  C   UNL     1      -5.307   1.570 125.856  0.00  0.00    +0.000 A 
ATOM      2  C   UNL     1      -5.874   0.301 125.739  0.00  0.00    +0.000 A 
ATOM      3  C   UNL     1      -7.043   0.136 125.010  0.00  0.00    +0.000 A 
ATOM      4  N   UNL     1      -7.635   1.198 124.409  0.00  0.00    +0.000 NA
ATOM      5  C   UNL     1      -7.115   2.449 124.528  0.00  0.00    +0.000 A 
ATOM      6  N   UNL     1      -7.741   3.519 123.906  0.00  0.00    +0.000 N 
ATOM      7  N   UNL     1      -5.937   2.670 125.253  0.00  0.00    +0.000 N 
ATOM      8  O   UNL     1      -5.424   3.855 125.360  0.00  0.00    +0.000 OA
ATOM      9  N   UNL     1      -7.610  -1.096 124.781  0.00  0.00    +0.000 N 
ATOM     10  C   UNL     1      -7.321  -1.710 123.489  0.00  0.00    +0.000 C 
ATOM     11  C   UNL     1      -8.613  -2.335 122.963  0.00  0.00    +0.000 C 
ATOM     12  C   UNL     1      -9.201  -3.332 123.965  0.00  0.00    +0.000 C 
ATOM     13  C   UNL     1      -9.320  -2.716 125.366  0.00  0.00    +0.000 C 
ATOM     14  C   UNL     1      -8.008  -2.043 125.821  0.00  0.00    +0.000 C 
ATOM     15  H   UNL     1      -8.627   3.385 123.449  0.00  0.00    +0.000 HD
ATOM     16  H   UNL     1      -7.328   4.429 124.078  0.00  0.00    +0.000 HD
ENDROOT
BRANCH   1  17
ATOM     17  N   UNL     1      -4.100   1.777 126.530  0.00  0.00    +0.000 N 
ATOM     18  H   UNL     1      -3.225   1.967 126.073  0.00  0.00    +0.000 HD
ATOM     19  H   UNL     1      -4.152   1.646 127.540  0.00  0.00    +0.000 HD
ENDBRANCH   1  17
TORSDOF 1
ENDMDL
MODEL 8
REMARK VINA RESULT:      -5.5      8.955     10.111
REMARK  Name = Minoxidil
REMARK  1 active torsions:
REMARK  status: ('A' for Active; 'I' for Inactive)
REMARK    1  A    between atoms: N_1  and  C_2
REMARK                            x       y       z     vdW  Elec       q    Type
REMARK                         _______ _______ _______ _____ _____    ______ ____
ROOT
ATOM      1  C   UNL     1      -6.634   2.791 124.177  0.00  0.00    +0.000 A 
ATOM      2  C   UNL     1      -7.419   1.667 123.923  0.00  0.00    +0.000 A 
ATOM      3  C   UNL     1      -7.202   0.501 124.644  0.00  0.00    +0.000 A 
ATOM      4  N   UNL     1      -6.237   0.449 125.594  0.00  0.00    +0.000 NA
ATOM      5  C   UNL     1      -5.442   1.524 125.844  0.00  0.00    +0.000 A 
ATOM      6  N   UNL     1      -4.459   1.444 126.819  0.00  0.00    +0.000 N 
ATOM      7  N   UNL     1      -5.619   2.724 125.145  0.00  0.00    +0.000 N 
ATOM      8  O   UNL     1      -4.877   3.760 125.386  0.00  0.00    +0.000 OA
ATOM      9  N   UNL     1      -7.993  -0.617 124.507  0.00  0.00    +0.000 N 
ATOM     10  C   UNL     1      -9.037  -0.796 125.510  0.00  0.00    +0.000 C 
ATOM     11  C   UNL     1      -9.070  -2.273 125.901  0.00  0.00    +0.000 C 
ATOM     12  C   UNL     1      -9.274  -3.171 124.678  0.00  0.00    +0.000 C 
ATOM     13  C   UNL     1      -8.278  -2.833 123.560  0.00  0.00    +0.000 C 
ATOM     14  C   UNL     1      -8.239  -1.322 123.250  0.00  0.00    +0.000 C 
ATOM     15  H   UNL     1      -4.272   0.565 127.273  0.00  0.00    +0.000 HD
ATOM     16  H   UNL     1      -3.871   2.264 126.918  0.00  0.00    +0.000 HD
ENDROOT
BRANCH   1  17
ATOM     17  N   UNL     1      -6.853   4.004 123.520  0.00  0.00    +0.000 N 
ATOM     18  H   UNL     1      -6.197   4.429 122.887  0.00  0.00    +0.000 HD
ATOM     19  H   UNL     1      -7.714   4.481 123.788  0.00  0.00    +0.000 HD
ENDBRANCH   1  17
TORSDOF 1
ENDMDL
MODEL 9
REMARK VINA RESULT:      -5.4      3.063      5.789
REMARK  Name = Minoxidil
REMARK  1 active torsions:
REMARK  status: ('A' for Active; 'I' for Inactive)
REMARK    1  A    between atoms: N_1  and  C_2
REMARK                            x       y       z     vdW  Elec       q    Type
REMARK                         _______ _______ _______ _____ _____    ______ ____
ROOT
ATOM      1  C   UNL     1      -8.141   5.883 132.958  0.00  0.00    +0.000 A 
ATOM      2  C   UNL     1      -6.828   5.807 132.493  0.00  0.00    +0.000 A 
ATOM      3  C   UNL     1      -6.528   6.251 131.212  0.00  0.00    +0.000 A 
ATOM      4  N   UNL     1      -7.498   6.758 130.414  0.00  0.00    +0.000 NA
ATOM      5  C   UNL     1      -8.790   6.820 130.835  0.00  0.00    +0.000 A 
ATOM      6  N   UNL     1      -9.765   7.340 129.998  0.00  0.00    +0.000 N 
ATOM      7  N   UNL     1      -9.147   6.387 132.118  0.00  0.00    +0.000 N 
ATOM      8  O   UNL     1     -10.372   6.455 132.536  0.00  0.00    +0.000 OA
ATOM      9  N   UNL     1      -5.243   6.285 130.720  0.00  0.00    +0.000 N 
ATOM     10  C   UNL     1      -4.566   7.576 130.775  0.00  0.00    +0.000 C 
ATOM     11  C   UNL     1      -3.812   7.772 129.460  0.00  0.00    +0.000 C 
ATOM     12  C   UNL     1      -2.845   6.615 129.193  0.00  0.00    +0.000 C 
ATOM     13  C   UNL     1      -3.544   5.255 129.327  0.00  0.00    +0.000 C 
ATOM     14  C   UNL     1      -4.343   5.137 130.642  0.00  0.00    +0.000 C 
ATOM     15  H   UNL     1      -9.534   7.583 129.049  0.00  0.00    +0.000 HD
ATOM     16  H   UNL     1     -10.713   7.310 130.356  0.00  0.00    +0.000 HD
ENDROOT
BRANCH   1  17
ATOM     17  N   UNL     1      -8.483   5.505 134.259  0.00  0.00    +0.000 N 
ATOM     18  H   UNL     1      -8.919   6.117 134.928  0.00  0.00    +0.000 HD
ATOM     19  H   UNL     1      -8.187   4.564 134.517  0.00  0.00    +0.000 HD
ENDBRANCH   1  17
TORSDOF 1
ENDMDL
