MODEL 1
REMARK VINA RESULT:      -8.0      0.000      0.000
REMARK  Name = Mirabegron
REMARK  10 active torsions:
REMARK  status: ('A' for Active; 'I' for Inactive)
REMARK    1  A    between atoms: C_4  and  C_5
REMARK    2  A    between atoms: C_5  and  C_6
REMARK    3  A    between atoms: N_8  and  C_9
REMARK    4  A    between atoms: C_12  and  C_13
REMARK    5  A    between atoms: C_13  and  C_14
REMARK    6  A    between atoms: C_14  and  N_15
REMARK    7  A    between atoms: N_15  and  C_16
REMARK    8  A    between atoms: C_16  and  C_17
REMARK    9  A    between atoms: C_17  and  O_18
REMARK   10  A    between atoms: C_17  and  C_19
REMARK                            x       y       z     vdW  Elec       q    Type
REMARK                         _______ _______ _______ _____ _____    ______ ____
ROOT
ATOM      1  C   UNL     1      -7.975   0.634 132.158  0.00  0.00    +0.000 A 
ATOM      2  C   UNL     1      -7.066   1.280 132.997  0.00  0.00    +0.000 A 
ATOM      3  C   UNL     1      -7.440   2.466 133.650  0.00  0.00    +0.000 A 
ATOM      4  C   UNL     1      -8.706   3.030 133.437  0.00  0.00    +0.000 A 
ATOM      5  C   UNL     1      -9.609   2.349 132.615  0.00  0.00    +0.000 A 
ATOM      6  C   UNL     1      -9.247   1.175 131.987  0.00  0.00    +0.000 A 
ENDROOT
BRANCH   1   9
ATOM      7  C   UNL     1      -7.674  -1.775 132.176  0.00  0.00    +0.000 C 
ATOM      8  O   UNL     1      -8.090  -1.828 133.341  0.00  0.00    +0.000 OA
ATOM      9  N   UNL     1      -7.647  -0.565 131.486  0.00  0.00    +0.000 N 
ATOM     10  H   UNL     1      -7.573  -0.543 130.477  0.00  0.00    +0.000 HD
BRANCH   7  11
ATOM     11  C   UNL     1      -7.207  -2.999 131.396  0.00  0.00    +0.000 C 
BRANCH  11  15
ATOM     12  N   UNL     1      -5.672  -1.732 127.006  0.00  0.00    +0.000 N 
ATOM     13  C   UNL     1      -6.535  -2.240 127.891  0.00  0.00    +0.000 A 
ATOM     14  N   UNL     1      -6.287  -2.279 129.168  0.00  0.00    +0.000 NA
ATOM     15  C   UNL     1      -7.317  -2.851 129.896  0.00  0.00    +0.000 A 
ATOM     16  C   UNL     1      -8.382  -3.236 129.104  0.00  0.00    +0.000 A 
ATOM     17  S   UNL     1      -8.055  -2.891 127.449  0.00  0.00    +0.000 S 
ATOM     18  H   UNL     1      -4.790  -1.365 127.346  0.00  0.00    +0.000 HD
ATOM     19  H   UNL     1      -5.855  -1.695 126.016  0.00  0.00    +0.000 HD
ENDBRANCH  11  15
ENDBRANCH   7  11
ENDBRANCH   1   9
BRANCH   4  20
ATOM     20  C   UNL     1      -9.051   4.370 134.041  0.00  0.00    +0.000 C 
BRANCH  20  21
ATOM     21  C   UNL     1      -9.061   5.491 132.999  0.00  0.00    +0.000 C 
BRANCH  21  22
ATOM     22  N   UNL     1     -10.398   6.013 132.783  0.00  0.00    +0.000 NA
ATOM     23  H   UNL     1     -10.557   6.815 133.400  0.00  0.00    +0.000 HD
BRANCH  22  24
ATOM     24  C   UNL     1     -10.497   6.484 131.391  0.00  0.00    +0.000 C 
BRANCH  24  25
ATOM     25  C   UNL     1     -11.784   5.945 130.740  0.00  0.00    +0.000 C 
BRANCH  25  26
ATOM     26  C   UNL     1     -12.440   6.992 129.881  0.00  0.00    +0.000 A 
ATOM     27  C   UNL     1     -13.121   6.611 128.717  0.00  0.00    +0.000 A 
ATOM     28  C   UNL     1     -13.620   7.584 127.854  0.00  0.00    +0.000 A 
ATOM     29  C   UNL     1     -13.524   8.934 128.190  0.00  0.00    +0.000 A 
ATOM     30  C   UNL     1     -12.919   9.317 129.382  0.00  0.00    +0.000 A 
ATOM     31  C   UNL     1     -12.384   8.351 130.225  0.00  0.00    +0.000 A 
ENDBRANCH  25  26
BRANCH  25  32
ATOM     32  O   UNL     1     -11.499   4.782 129.944  0.00  0.00    +0.000 OA
ATOM     33  H   UNL     1     -11.235   5.155 129.078  0.00  0.00    +0.000 HD
ENDBRANCH  25  32
ENDBRANCH  24  25
ENDBRANCH  22  24
ENDBRANCH  21  22
ENDBRANCH  20  21
ENDBRANCH   4  20
TORSDOF 10
ENDMDL
MODEL 2
REMARK VINA RESULT:      -7.9      5.899      9.783
REMARK  Name = Mirabegron
REMARK  10 active torsions:
REMARK  status: ('A' for Active; 'I' for Inactive)
REMARK    1  A    between atoms: C_4  and  C_5
REMARK    2  A    between atoms: C_5  and  C_6
REMARK    3  A    between atoms: N_8  and  C_9
REMARK    4  A    between atoms: C_12  and  C_13
REMARK    5  A    between atoms: C_13  and  C_14
REMARK    6  A    between atoms: C_14  and  N_15
REMARK    7  A    between atoms: N_15  and  C_16
REMARK    8  A    between atoms: C_16  and  C_17
REMARK    9  A    between atoms: C_17  and  O_18
REMARK   10  A    between atoms: C_17  and  C_19
REMARK                            x       y       z     vdW  Elec       q    Type
REMARK                         _______ _______ _______ _____ _____    ______ ____
ROOT
ATOM      1  C   UNL     1      -7.429   1.771 126.663  0.00  0.00    +0.000 A 
ATOM      2  C   UNL     1      -8.710   1.234 126.789  0.00  0.00    +0.000 A 
ATOM      3  C   UNL     1      -9.318   0.612 125.686  0.00  0.00    +0.000 A 
ATOM      4  C   UNL     1      -8.664   0.559 124.446  0.00  0.00    +0.000 A 
ATOM      5  C   UNL     1      -7.370   1.078 124.353  0.00  0.00    +0.000 A 
ATOM      6  C   UNL     1      -6.767   1.674 125.441  0.00  0.00    +0.000 A 
ENDROOT
BRANCH   1   9
ATOM      7  C   UNL     1      -6.898   3.777 127.924  0.00  0.00    +0.000 C 
ATOM      8  O   UNL     1      -7.662   4.439 127.211  0.00  0.00    +0.000 OA
ATOM      9  N   UNL     1      -6.775   2.400 127.746  0.00  0.00    +0.000 N 
ATOM     10  H   UNL     1      -6.379   1.816 128.471  0.00  0.00    +0.000 HD
BRANCH   7  11
ATOM     11  C   UNL     1      -6.074   4.379 129.058  0.00  0.00    +0.000 C 
BRANCH  11  15
ATOM     12  N   UNL     1      -1.799   3.802 126.909  0.00  0.00    +0.000 N 
ATOM     13  C   UNL     1      -2.719   4.454 127.626  0.00  0.00    +0.000 A 
ATOM     14  N   UNL     1      -3.883   3.942 127.902  0.00  0.00    +0.000 NA
ATOM     15  C   UNL     1      -4.679   4.792 128.652  0.00  0.00    +0.000 A 
ATOM     16  C   UNL     1      -4.050   5.986 128.952  0.00  0.00    +0.000 A 
ATOM     17  S   UNL     1      -2.473   6.024 128.261  0.00  0.00    +0.000 S 
ATOM     18  H   UNL     1      -2.020   2.874 126.566  0.00  0.00    +0.000 HD
ATOM     19  H   UNL     1      -0.894   4.189 126.692  0.00  0.00    +0.000 HD
ENDBRANCH  11  15
ENDBRANCH   7  11
ENDBRANCH   1   9
BRANCH   4  20
ATOM     20  C   UNL     1      -9.376   0.003 123.236  0.00  0.00    +0.000 C 
BRANCH  20  21
ATOM     21  C   UNL     1      -8.790  -1.335 122.781  0.00  0.00    +0.000 C 
BRANCH  21  22
ATOM     22  N   UNL     1      -9.518  -2.459 123.342  0.00  0.00    +0.000 NA
ATOM     23  H   UNL     1      -9.960  -2.992 122.588  0.00  0.00    +0.000 HD
BRANCH  22  24
ATOM     24  C   UNL     1      -8.558  -3.346 124.021  0.00  0.00    +0.000 C 
BRANCH  24  25
ATOM     25  C   UNL     1      -8.881  -3.424 125.524  0.00  0.00    +0.000 C 
BRANCH  25  26
ATOM     26  C   UNL     1      -7.826  -2.731 126.346  0.00  0.00    +0.000 A 
ATOM     27  C   UNL     1      -8.065  -2.458 127.698  0.00  0.00    +0.000 A 
ATOM     28  C   UNL     1      -7.146  -1.708 128.429  0.00  0.00    +0.000 A 
ATOM     29  C   UNL     1      -5.947  -1.305 127.842  0.00  0.00    +0.000 A 
ATOM     30  C   UNL     1      -5.667  -1.641 126.521  0.00  0.00    +0.000 A 
ATOM     31  C   UNL     1      -6.600  -2.353 125.779  0.00  0.00    +0.000 A 
ENDBRANCH  25  26
BRANCH  25  32
ATOM     32  O   UNL     1     -10.163  -2.832 125.797  0.00  0.00    +0.000 OA
ATOM     33  H   UNL     1     -10.093  -2.550 126.732  0.00  0.00    +0.000 HD
ENDBRANCH  25  32
ENDBRANCH  24  25
ENDBRANCH  22  24
ENDBRANCH  21  22
ENDBRANCH  20  21
ENDBRANCH   4  20
TORSDOF 10
ENDMDL
MODEL 3
REMARK VINA RESULT:      -7.8      1.350      1.955
REMARK  Name = Mirabegron
REMARK  10 active torsions:
REMARK  status: ('A' for Active; 'I' for Inactive)
REMARK    1  A    between atoms: C_4  and  C_5
REMARK    2  A    between atoms: C_5  and  C_6
REMARK    3  A    between atoms: N_8  and  C_9
REMARK    4  A    between atoms: C_12  and  C_13
REMARK    5  A    between atoms: C_13  and  C_14
REMARK    6  A    between atoms: C_14  and  N_15
REMARK    7  A    between atoms: N_15  and  C_16
REMARK    8  A    between atoms: C_16  and  C_17
REMARK    9  A    between atoms: C_17  and  O_18
REMARK   10  A    between atoms: C_17  and  C_19
REMARK                            x       y       z     vdW  Elec       q    Type
REMARK                         _______ _______ _______ _____ _____    ______ ____
ROOT
ATOM      1  C   UNL     1      -7.677   0.528 132.374  0.00  0.00    +0.000 A 
ATOM      2  C   UNL     1      -8.948   0.969 132.002  0.00  0.00    +0.000 A 
ATOM      3  C   UNL     1      -9.431   2.195 132.487  0.00  0.00    +0.000 A 
ATOM      4  C   UNL     1      -8.664   2.965 133.373  0.00  0.00    +0.000 A 
ATOM      5  C   UNL     1      -7.383   2.517 133.708  0.00  0.00    +0.000 A 
ATOM      6  C   UNL     1      -6.902   1.320 133.219  0.00  0.00    +0.000 A 
ENDROOT
BRANCH   1   9
ATOM      7  C   UNL     1      -7.454  -1.882 132.569  0.00  0.00    +0.000 C 
ATOM      8  O   UNL     1      -8.275  -1.893 133.495  0.00  0.00    +0.000 OA
ATOM      9  N   UNL     1      -7.146  -0.695 131.907  0.00  0.00    +0.000 N 
ATOM     10  H   UNL     1      -6.701  -0.707 130.998  0.00  0.00    +0.000 HD
BRANCH   7  11
ATOM     11  C   UNL     1      -6.753  -3.135 132.053  0.00  0.00    +0.000 C 
BRANCH  11  15
ATOM     12  N   UNL     1      -4.935  -1.596 127.863  0.00  0.00    +0.000 N 
ATOM     13  C   UNL     1      -4.880  -2.120 129.092  0.00  0.00    +0.000 A 
ATOM     14  N   UNL     1      -5.941  -2.308 129.821  0.00  0.00    +0.000 NA
ATOM     15  C   UNL     1      -5.650  -2.857 131.059  0.00  0.00    +0.000 A 
ATOM     16  C   UNL     1      -4.300  -3.096 131.233  0.00  0.00    +0.000 A 
ATOM     17  S   UNL     1      -3.418  -2.601 129.840  0.00  0.00    +0.000 S 
ATOM     18  H   UNL     1      -5.840  -1.335 127.488  0.00  0.00    +0.000 HD
ATOM     19  H   UNL     1      -4.119  -1.448 127.290  0.00  0.00    +0.000 HD
ENDBRANCH  11  15
ENDBRANCH   7  11
ENDBRANCH   1   9
BRANCH   4  20
ATOM     20  C   UNL     1      -9.243   4.216 133.988  0.00  0.00    +0.000 C 
BRANCH  20  21
ATOM     21  C   UNL     1      -9.124   5.428 133.061  0.00  0.00    +0.000 C 
BRANCH  21  22
ATOM     22  N   UNL     1     -10.421   6.005 132.760  0.00  0.00    +0.000 NA
ATOM     23  H   UNL     1     -10.557   6.853 133.319  0.00  0.00    +0.000 HD
BRANCH  22  24
ATOM     24  C   UNL     1     -10.444   6.391 131.339  0.00  0.00    +0.000 C 
BRANCH  24  25
ATOM     25  C   UNL     1     -11.735   5.879 130.674  0.00  0.00    +0.000 C 
BRANCH  25  26
ATOM     26  C   UNL     1     -12.326   6.919 129.759  0.00  0.00    +0.000 A 
ATOM     27  C   UNL     1     -12.111   8.279 130.019  0.00  0.00    +0.000 A 
ATOM     28  C   UNL     1     -12.758   9.244 129.252  0.00  0.00    +0.000 A 
ATOM     29  C   UNL     1     -13.548   8.863 128.168  0.00  0.00    +0.000 A 
ATOM     30  C   UNL     1     -13.704   7.517 127.854  0.00  0.00    +0.000 A 
ATOM     31  C   UNL     1     -13.093   6.551 128.643  0.00  0.00    +0.000 A 
ENDBRANCH  25  26
BRANCH  25  32
ATOM     32  O   UNL     1     -11.478   4.677 129.928  0.00  0.00    +0.000 OA
ATOM     33  H   UNL     1     -11.536   4.968 128.995  0.00  0.00    +0.000 HD
ENDBRANCH  25  32
ENDBRANCH  24  25
ENDBRANCH  22  24
ENDBRANCH  21  22
ENDBRANCH  20  21
ENDBRANCH   4  20
TORSDOF 10
ENDMDL
MODEL 4
REMARK VINA RESULT:      -7.7      5.092      8.723
REMARK  Name = Mirabegron
REMARK  10 active torsions:
REMARK  status: ('A' for Active; 'I' for Inactive)
REMARK    1  A    between atoms: C_4  and  C_5
REMARK    2  A    between atoms: C_5  and  C_6
REMARK    3  A    between atoms: N_8  and  C_9
REMARK    4  A    between atoms: C_12  and  C_13
REMARK    5  A    between atoms: C_13  and  C_14
REMARK    6  A    between atoms: C_14  and  N_15
REMARK    7  A    between atoms: N_15  and  C_16
REMARK    8  A    between atoms: C_16  and  C_17
REMARK    9  A    between atoms: C_17  and  O_18
REMARK   10  A    between atoms: C_17  and  C_19
REMARK                            x       y       z     vdW  Elec       q    Type
REMARK                         _______ _______ _______ _____ _____    ______ ____
ROOT
ATOM      1  C   UNL     1      -8.311   5.845 130.771  0.00  0.00    +0.000 A 
ATOM      2  C   UNL     1      -7.479   6.892 131.170  0.00  0.00    +0.000 A 
ATOM      3  C   UNL     1      -6.110   6.654 131.381  0.00  0.00    +0.000 A 
ATOM      4  C   UNL     1      -5.579   5.365 131.232  0.00  0.00    +0.000 A 
ATOM      5  C   UNL     1      -6.426   4.339 130.803  0.00  0.00    +0.000 A 
ATOM      6  C   UNL     1      -7.767   4.577 130.580  0.00  0.00    +0.000 A 
ENDROOT
BRANCH   1   9
ATOM      7  C   UNL     1     -10.550   6.252 131.616  0.00  0.00    +0.000 C 
ATOM      8  O   UNL     1     -10.104   6.385 132.762  0.00  0.00    +0.000 OA
ATOM      9  N   UNL     1      -9.691   6.038 130.539  0.00  0.00    +0.000 N 
ATOM     10  H   UNL     1     -10.000   6.196 129.589  0.00  0.00    +0.000 HD
BRANCH   7  11
ATOM     11  C   UNL     1     -12.035   6.347 131.276  0.00  0.00    +0.000 C 
BRANCH  11  15
ATOM     12  N   UNL     1     -12.501   6.802 126.501  0.00  0.00    +0.000 N 
ATOM     13  C   UNL     1     -12.526   7.223 127.769  0.00  0.00    +0.000 A 
ATOM     14  N   UNL     1     -12.230   6.447 128.770  0.00  0.00    +0.000 NA
ATOM     15  C   UNL     1     -12.325   7.090 129.993  0.00  0.00    +0.000 A 
ATOM     16  C   UNL     1     -12.698   8.416 129.872  0.00  0.00    +0.000 A 
ATOM     17  S   UNL     1     -12.944   8.821 128.217  0.00  0.00    +0.000 S 
ATOM     18  H   UNL     1     -12.244   5.839 126.315  0.00  0.00    +0.000 HD
ATOM     19  H   UNL     1     -12.727   7.395 125.718  0.00  0.00    +0.000 HD
ENDBRANCH  11  15
ENDBRANCH   7  11
ENDBRANCH   1   9
BRANCH   4  20
ATOM     20  C   UNL     1      -4.136   5.094 131.585  0.00  0.00    +0.000 C 
BRANCH  20  21
ATOM     21  C   UNL     1      -3.462   6.301 132.241  0.00  0.00    +0.000 C 
BRANCH  21  22
ATOM     22  N   UNL     1      -3.143   6.047 133.634  0.00  0.00    +0.000 NA
ATOM     23  H   UNL     1      -3.869   6.451 134.232  0.00  0.00    +0.000 HD
BRANCH  22  24
ATOM     24  C   UNL     1      -3.130   4.591 133.855  0.00  0.00    +0.000 C 
BRANCH  24  25
ATOM     25  C   UNL     1      -3.902   4.244 135.141  0.00  0.00    +0.000 C 
BRANCH  25  26
ATOM     26  C   UNL     1      -5.378   4.112 134.872  0.00  0.00    +0.000 A 
ATOM     27  C   UNL     1      -5.884   2.921 134.337  0.00  0.00    +0.000 A 
ATOM     28  C   UNL     1      -7.225   2.839 133.970  0.00  0.00    +0.000 A 
ATOM     29  C   UNL     1      -8.085   3.909 134.216  0.00  0.00    +0.000 A 
ATOM     30  C   UNL     1      -7.607   5.067 134.820  0.00  0.00    +0.000 A 
ATOM     31  C   UNL     1      -6.262   5.167 135.149  0.00  0.00    +0.000 A 
ENDBRANCH  25  26
BRANCH  25  32
ATOM     32  O   UNL     1      -3.409   3.020 135.712  0.00  0.00    +0.000 OA
ATOM     33  H   UNL     1      -4.100   2.365 135.486  0.00  0.00    +0.000 HD
ENDBRANCH  25  32
ENDBRANCH  24  25
ENDBRANCH  22  24
ENDBRANCH  21  22
ENDBRANCH  20  21
ENDBRANCH   4  20
TORSDOF 10
ENDMDL
MODEL 5
REMARK VINA RESULT:      -7.7      3.806      9.769
REMARK  Name = Mirabegron
REMARK  10 active torsions:
REMARK  status: ('A' for Active; 'I' for Inactive)
REMARK    1  A    between atoms: C_4  and  C_5
REMARK    2  A    between atoms: C_5  and  C_6
REMARK    3  A    between atoms: N_8  and  C_9
REMARK    4  A    between atoms: C_12  and  C_13
REMARK    5  A    between atoms: C_13  and  C_14
REMARK    6  A    between atoms: C_14  and  N_15
REMARK    7  A    between atoms: N_15  and  C_16
REMARK    8  A    between atoms: C_16  and  C_17
REMARK    9  A    between atoms: C_17  and  O_18
REMARK   10  A    between atoms: C_17  and  C_19
REMARK                            x       y       z     vdW  Elec       q    Type
REMARK                         _______ _______ _______ _____ _____    ______ ____
ROOT
ATOM      1  C   UNL     1      -9.232   2.772 131.099  0.00  0.00    +0.000 A 
ATOM      2  C   UNL     1      -8.508   2.563 129.925  0.00  0.00    +0.000 A 
ATOM      3  C   UNL     1      -8.081   1.267 129.590  0.00  0.00    +0.000 A 
ATOM      4  C   UNL     1      -8.344   0.186 130.443  0.00  0.00    +0.000 A 
ATOM      5  C   UNL     1      -9.096   0.416 131.599  0.00  0.00    +0.000 A 
ATOM      6  C   UNL     1      -9.529   1.686 131.919  0.00  0.00    +0.000 A 
ENDROOT
BRANCH   1   9
ATOM      7  C   UNL     1     -10.821   4.593 130.864  0.00  0.00    +0.000 C 
ATOM      8  O   UNL     1     -11.496   3.916 130.079  0.00  0.00    +0.000 OA
ATOM      9  N   UNL     1      -9.689   4.056 131.474  0.00  0.00    +0.000 N 
ATOM     10  H   UNL     1      -9.292   4.482 132.301  0.00  0.00    +0.000 HD
BRANCH   7  11
ATOM     11  C   UNL     1     -11.176   6.023 131.260  0.00  0.00    +0.000 C 
BRANCH  11  15
ATOM     12  N   UNL     1     -12.896   9.744 128.726  0.00  0.00    +0.000 N 
ATOM     13  C   UNL     1     -12.062   8.732 128.982  0.00  0.00    +0.000 A 
ATOM     14  N   UNL     1     -12.184   7.975 130.034  0.00  0.00    +0.000 NA
ATOM     15  C   UNL     1     -11.210   6.992 130.101  0.00  0.00    +0.000 A 
ATOM     16  C   UNL     1     -10.340   7.027 129.028  0.00  0.00    +0.000 A 
ATOM     17  S   UNL     1     -10.752   8.316 127.964  0.00  0.00    +0.000 S 
ATOM     18  H   UNL     1     -13.650   9.929 129.379  0.00  0.00    +0.000 HD
ATOM     19  H   UNL     1     -12.812  10.335 127.914  0.00  0.00    +0.000 HD
ENDBRANCH  11  15
ENDBRANCH   7  11
ENDBRANCH   1   9
BRANCH   4  20
ATOM     20  C   UNL     1      -7.771  -1.178 130.139  0.00  0.00    +0.000 C 
BRANCH  20  21
ATOM     21  C   UNL     1      -7.688  -1.450 128.635  0.00  0.00    +0.000 C 
BRANCH  21  22
ATOM     22  N   UNL     1      -7.769  -2.868 128.340  0.00  0.00    +0.000 NA
ATOM     23  H   UNL     1      -8.350  -3.333 129.044  0.00  0.00    +0.000 HD
BRANCH  22  24
ATOM     24  C   UNL     1      -8.422  -3.037 127.030  0.00  0.00    +0.000 C 
BRANCH  24  25
ATOM     25  C   UNL     1      -8.251  -1.762 126.185  0.00  0.00    +0.000 C 
BRANCH  25  26
ATOM     26  C   UNL     1      -7.280  -1.982 125.055  0.00  0.00    +0.000 A 
ATOM     27  C   UNL     1      -7.585  -1.506 123.774  0.00  0.00    +0.000 A 
ATOM     28  C   UNL     1      -6.752  -1.817 122.701  0.00  0.00    +0.000 A 
ATOM     29  C   UNL     1      -5.569  -2.524 122.915  0.00  0.00    +0.000 A 
ATOM     30  C   UNL     1      -5.220  -2.932 124.198  0.00  0.00    +0.000 A 
ATOM     31  C   UNL     1      -6.069  -2.660 125.263  0.00  0.00    +0.000 A 
ENDBRANCH  25  26
BRANCH  25  32
ATOM     32  O   UNL     1      -9.516  -1.334 125.652  0.00  0.00    +0.000 OA
ATOM     33  H   UNL     1     -10.169  -1.715 126.274  0.00  0.00    +0.000 HD
ENDBRANCH  25  32
ENDBRANCH  24  25
ENDBRANCH  22  24
ENDBRANCH  21  22
ENDBRANCH  20  21
ENDBRANCH   4  20
TORSDOF 10
ENDMDL
MODEL 6
REMARK VINA RESULT:      -7.5      6.807      9.984
REMARK  Name = Mirabegron
REMARK  10 active torsions:
REMARK  status: ('A' for Active; 'I' for Inactive)
REMARK    1  A    between atoms: C_4  and  C_5
REMARK    2  A    between atoms: C_5  and  C_6
REMARK    3  A    between atoms: N_8  and  C_9
REMARK    4  A    between atoms: C_12  and  C_13
REMARK    5  A    between atoms: C_13  and  C_14
REMARK    6  A    between atoms: C_14  and  N_15
REMARK    7  A    between atoms: N_15  and  C_16
REMARK    8  A    between atoms: C_16  and  C_17
REMARK    9  A    between atoms: C_17  and  O_18
REMARK   10  A    between atoms: C_17  and  C_19
REMARK                            x       y       z     vdW  Elec       q    Type
REMARK                         _______ _______ _______ _____ _____    ______ ____
ROOT
ATOM      1  C   UNL     1      -6.220   3.126 125.755  0.00  0.00    +0.000 A 
ATOM      2  C   UNL     1      -7.152   2.690 126.698  0.00  0.00    +0.000 A 
ATOM      3  C   UNL     1      -8.274   1.956 126.281  0.00  0.00    +0.000 A 
ATOM      4  C   UNL     1      -8.488   1.687 124.921  0.00  0.00    +0.000 A 
ATOM      5  C   UNL     1      -7.525   2.110 124.000  0.00  0.00    +0.000 A 
ATOM      6  C   UNL     1      -6.415   2.817 124.411  0.00  0.00    +0.000 A 
ENDROOT
BRANCH   1   9
ATOM      7  C   UNL     1      -3.918   3.190 126.523  0.00  0.00    +0.000 C 
ATOM      8  O   UNL     1      -3.848   1.957 126.448  0.00  0.00    +0.000 OA
ATOM      9  N   UNL     1      -5.072   3.862 126.127  0.00  0.00    +0.000 N 
ATOM     10  H   UNL     1      -5.054   4.854 125.927  0.00  0.00    +0.000 HD
BRANCH   7  11
ATOM     11  C   UNL     1      -2.766   4.068 127.003  0.00  0.00    +0.000 C 
BRANCH  11  15
ATOM     12  N   UNL     1      -5.428   6.013 130.519  0.00  0.00    +0.000 N 
ATOM     13  C   UNL     1      -4.458   5.993 129.600  0.00  0.00    +0.000 A 
ATOM     14  N   UNL     1      -4.238   4.963 128.836  0.00  0.00    +0.000 NA
ATOM     15  C   UNL     1      -3.183   5.160 127.961  0.00  0.00    +0.000 A 
ATOM     16  C   UNL     1      -2.614   6.413 128.084  0.00  0.00    +0.000 A 
ATOM     17  S   UNL     1      -3.405   7.313 129.321  0.00  0.00    +0.000 S 
ATOM     18  H   UNL     1      -6.012   5.190 130.625  0.00  0.00    +0.000 HD
ATOM     19  H   UNL     1      -5.608   6.807 131.114  0.00  0.00    +0.000 HD
ENDBRANCH  11  15
ENDBRANCH   7  11
ENDBRANCH   1   9
BRANCH   4  20
ATOM     20  C   UNL     1      -9.760   1.010 124.472  0.00  0.00    +0.000 C 
BRANCH  20  21
ATOM     21  C   UNL     1      -9.694   0.560 123.011  0.00  0.00    +0.000 C 
BRANCH  21  22
ATOM     22  N   UNL     1     -10.014  -0.848 122.866  0.00  0.00    +0.000 NA
ATOM     23  H   UNL     1     -10.578  -0.987 122.023  0.00  0.00    +0.000 HD
BRANCH  22  24
ATOM     24  C   UNL     1      -8.758  -1.599 122.701  0.00  0.00    +0.000 C 
BRANCH  24  25
ATOM     25  C   UNL     1      -8.560  -2.566 123.882  0.00  0.00    +0.000 C 
BRANCH  25  26
ATOM     26  C   UNL     1      -7.689  -1.955 124.947  0.00  0.00    +0.000 A 
ATOM     27  C   UNL     1      -6.439  -1.425 124.604  0.00  0.00    +0.000 A 
ATOM     28  C   UNL     1      -5.577  -0.974 125.602  0.00  0.00    +0.000 A 
ATOM     29  C   UNL     1      -5.992  -0.965 126.933  0.00  0.00    +0.000 A 
ATOM     30  C   UNL     1      -7.263  -1.417 127.274  0.00  0.00    +0.000 A 
ATOM     31  C   UNL     1      -8.108  -1.906 126.286  0.00  0.00    +0.000 A 
ENDBRANCH  25  26
BRANCH  25  32
ATOM     32  O   UNL     1      -9.828  -2.933 124.454  0.00  0.00    +0.000 OA
ATOM     33  H   UNL     1     -10.356  -2.112 124.387  0.00  0.00    +0.000 HD
ENDBRANCH  25  32
ENDBRANCH  24  25
ENDBRANCH  22  24
ENDBRANCH  21  22
ENDBRANCH  20  21
ENDBRANCH   4  20
TORSDOF 10
ENDMDL
MODEL 7
REMARK VINA RESULT:      -7.5      3.839      9.210
REMARK  Name = Mirabegron
REMARK  10 active torsions:
REMARK  status: ('A' for Active; 'I' for Inactive)
REMARK    1  A    between atoms: C_4  and  C_5
REMARK    2  A    between atoms: C_5  and  C_6
REMARK    3  A    between atoms: N_8  and  C_9
REMARK    4  A    between atoms: C_12  and  C_13
REMARK    5  A    between atoms: C_13  and  C_14
REMARK    6  A    between atoms: C_14  and  N_15
REMARK    7  A    between atoms: N_15  and  C_16
REMARK    8  A    between atoms: C_16  and  C_17
REMARK    9  A    between atoms: C_17  and  O_18
REMARK   10  A    between atoms: C_17  and  C_19
REMARK                            x       y       z     vdW  Elec       q    Type
REMARK                         _______ _______ _______ _____ _____    ______ ____
ROOT
ATOM      1  C   UNL     1      -9.228   2.614 131.065  0.00  0.00    +0.000 A 
ATOM      2  C   UNL     1      -8.434   2.269 129.971  0.00  0.00    +0.000 A 
ATOM      3  C   UNL     1      -8.031   0.935 129.795  0.00  0.00    +0.000 A 
ATOM      4  C   UNL     1      -8.388  -0.049 130.729  0.00  0.00    +0.000 A 
ATOM      5  C   UNL     1      -9.207   0.316 131.800  0.00  0.00    +0.000 A 
ATOM      6  C   UNL     1      -9.617   1.624 131.965  0.00  0.00    +0.000 A 
ENDROOT
BRANCH   1   9
ATOM      7  C   UNL     1     -10.827   4.396 130.663  0.00  0.00    +0.000 C 
ATOM      8  O   UNL     1     -11.543   3.621 130.017  0.00  0.00    +0.000 OA
ATOM      9  N   UNL     1      -9.664   3.941 131.281  0.00  0.00    +0.000 N 
ATOM     10  H   UNL     1      -9.223   4.475 132.018  0.00  0.00    +0.000 HD
BRANCH   7  11
ATOM     11  C   UNL     1     -11.161   5.870 130.873  0.00  0.00    +0.000 C 
BRANCH  11  15
ATOM     12  N   UNL     1     -11.162   7.566 126.362  0.00  0.00    +0.000 N 
ATOM     13  C   UNL     1     -11.693   7.301 127.560  0.00  0.00    +0.000 A 
ATOM     14  N   UNL     1     -11.019   6.721 128.511  0.00  0.00    +0.000 NA
ATOM     15  C   UNL     1     -11.767   6.541 129.663  0.00  0.00    +0.000 A 
ATOM     16  C   UNL     1     -13.053   7.033 129.548  0.00  0.00    +0.000 A 
ATOM     17  S   UNL     1     -13.305   7.693 127.978  0.00  0.00    +0.000 S 
ATOM     18  H   UNL     1     -10.198   7.301 126.190  0.00  0.00    +0.000 HD
ATOM     19  H   UNL     1     -11.674   8.016 125.620  0.00  0.00    +0.000 HD
ENDBRANCH  11  15
ENDBRANCH   7  11
ENDBRANCH   1   9
BRANCH   4  20
ATOM     20  C   UNL     1      -7.843  -1.451 130.599  0.00  0.00    +0.000 C 
BRANCH  20  21
ATOM     21  C   UNL     1      -6.601  -1.512 129.708  0.00  0.00    +0.000 C 
BRANCH  21  22
ATOM     22  N   UNL     1      -6.641  -2.649 128.807  0.00  0.00    +0.000 NA
ATOM     23  H   UNL     1      -7.402  -3.277 129.079  0.00  0.00    +0.000 HD
BRANCH  22  24
ATOM     24  C   UNL     1      -6.922  -2.159 127.447  0.00  0.00    +0.000 C 
BRANCH  24  25
ATOM     25  C   UNL     1      -8.379  -2.472 127.062  0.00  0.00    +0.000 C 
BRANCH  25  26
ATOM     26  C   UNL     1      -8.601  -2.302 125.582  0.00  0.00    +0.000 A 
ATOM     27  C   UNL     1      -8.305  -1.078 124.970  0.00  0.00    +0.000 A 
ATOM     28  C   UNL     1      -8.626  -0.875 123.630  0.00  0.00    +0.000 A 
ATOM     29  C   UNL     1      -9.159  -1.918 122.872  0.00  0.00    +0.000 A 
ATOM     30  C   UNL     1      -9.383  -3.162 123.453  0.00  0.00    +0.000 A 
ATOM     31  C   UNL     1      -9.102  -3.353 124.800  0.00  0.00    +0.000 A 
ENDBRANCH  25  26
BRANCH  25  32
ATOM     32  O   UNL     1      -8.727  -3.813 127.447  0.00  0.00    +0.000 OA
ATOM     33  H   UNL     1      -9.534  -4.000 126.924  0.00  0.00    +0.000 HD
ENDBRANCH  25  32
ENDBRANCH  24  25
ENDBRANCH  22  24
ENDBRANCH  21  22
ENDBRANCH  20  21
ENDBRANCH   4  20
TORSDOF 10
ENDMDL
MODEL 8
REMARK VINA RESULT:      -7.5      5.616      9.215
REMARK  Name = Mirabegron
REMARK  10 active torsions:
REMARK  status: ('A' for Active; 'I' for Inactive)
REMARK    1  A    between atoms: C_4  and  C_5
REMARK    2  A    between atoms: C_5  and  C_6
REMARK    3  A    between atoms: N_8  and  C_9
REMARK    4  A    between atoms: C_12  and  C_13
REMARK    5  A    between atoms: C_13  and  C_14
REMARK    6  A    between atoms: C_14  and  N_15
REMARK    7  A    between atoms: N_15  and  C_16
REMARK    8  A    between atoms: C_16  and  C_17
REMARK    9  A    between atoms: C_17  and  O_18
REMARK   10  A    between atoms: C_17  and  C_19
REMARK                            x       y       z     vdW  Elec       q    Type
REMARK                         _______ _______ _______ _____ _____    ______ ____
ROOT
ATOM      1  C   UNL     1      -7.966   5.173 131.438  0.00  0.00    +0.000 A 
ATOM      2  C   UNL     1      -7.419   4.289 130.508  0.00  0.00    +0.000 A 
ATOM      3  C   UNL     1      -6.026   4.116 130.445  0.00  0.00    +0.000 A 
ATOM      4  C   UNL     1      -5.177   4.852 131.283  0.00  0.00    +0.000 A 
ATOM      5  C   UNL     1      -5.750   5.709 132.227  0.00  0.00    +0.000 A 
ATOM      6  C   UNL     1      -7.119   5.867 132.299  0.00  0.00    +0.000 A 
ENDROOT
BRANCH   1   9
ATOM      7  C   UNL     1      -9.935   6.530 131.015  0.00  0.00    +0.000 C 
ATOM      8  O   UNL     1      -9.255   7.328 130.357  0.00  0.00    +0.000 OA
ATOM      9  N   UNL     1      -9.361   5.375 131.543  0.00  0.00    +0.000 N 
ATOM     10  H   UNL     1      -9.936   4.597 131.839  0.00  0.00    +0.000 HD
BRANCH   7  11
ATOM     11  C   UNL     1     -11.429   6.707 131.266  0.00  0.00    +0.000 C 
BRANCH  11  15
ATOM     12  N   UNL     1     -13.455  10.168 128.593  0.00  0.00    +0.000 N 
ATOM     13  C   UNL     1     -13.104   8.913 128.892  0.00  0.00    +0.000 A 
ATOM     14  N   UNL     1     -12.452   8.609 129.977  0.00  0.00    +0.000 NA
ATOM     15  C   UNL     1     -12.191   7.252 130.081  0.00  0.00    +0.000 A 
ATOM     16  C   UNL     1     -12.696   6.527 129.019  0.00  0.00    +0.000 A 
ATOM     17  S   UNL     1     -13.472   7.574 127.893  0.00  0.00    +0.000 S 
ATOM     18  H   UNL     1     -13.200  10.909 129.237  0.00  0.00    +0.000 HD
ATOM     19  H   UNL     1     -13.962  10.414 127.757  0.00  0.00    +0.000 HD
ENDBRANCH  11  15
ENDBRANCH   7  11
ENDBRANCH   1   9
BRANCH   4  20
ATOM     20  C   UNL     1      -3.679   4.754 131.120  0.00  0.00    +0.000 C 
BRANCH  20  21
ATOM     21  C   UNL     1      -2.959   6.016 131.601  0.00  0.00    +0.000 C 
BRANCH  21  22
ATOM     22  N   UNL     1      -2.926   7.041 130.574  0.00  0.00    +0.000 NA
ATOM     23  H   UNL     1      -2.467   7.880 130.940  0.00  0.00    +0.000 HD
BRANCH  22  24
ATOM     24  C   UNL     1      -2.126   6.544 129.442  0.00  0.00    +0.000 C 
BRANCH  24  25
ATOM     25  C   UNL     1      -2.926   6.672 128.132  0.00  0.00    +0.000 C 
BRANCH  25  26
ATOM     26  C   UNL     1      -3.303   5.319 127.589  0.00  0.00    +0.000 A 
ATOM     27  C   UNL     1      -4.614   5.084 127.157  0.00  0.00    +0.000 A 
ATOM     28  C   UNL     1      -5.000   3.801 126.773  0.00  0.00    +0.000 A 
ATOM     29  C   UNL     1      -4.061   2.771 126.732  0.00  0.00    +0.000 A 
ATOM     30  C   UNL     1      -2.738   3.015 127.084  0.00  0.00    +0.000 A 
ATOM     31  C   UNL     1      -2.361   4.283 127.507  0.00  0.00    +0.000 A 
ENDBRANCH  25  26
BRANCH  25  32
ATOM     32  O   UNL     1      -4.116   7.452 128.340  0.00  0.00    +0.000 OA
ATOM     33  H   UNL     1      -4.281   7.368 129.301  0.00  0.00    +0.000 HD
ENDBRANCH  25  32
ENDBRANCH  24  25
ENDBRANCH  22  24
ENDBRANCH  21  22
ENDBRANCH  20  21
ENDBRANCH   4  20
TORSDOF 10
ENDMDL
MODEL 9
REMARK VINA RESULT:      -7.5      5.063     10.215
REMARK  Name = Mirabegron
REMARK  10 active torsions:
REMARK  status: ('A' for Active; 'I' for Inactive)
REMARK    1  A    between atoms: C_4  and  C_5
REMARK    2  A    between atoms: C_5  and  C_6
REMARK    3  A    between atoms: N_8  and  C_9
REMARK    4  A    between atoms: C_12  and  C_13
REMARK    5  A    between atoms: C_13  and  C_14
REMARK    6  A    between atoms: C_14  and  N_15
REMARK    7  A    between atoms: N_15  and  C_16
REMARK    8  A    between atoms: C_16  and  C_17
REMARK    9  A    between atoms: C_17  and  O_18
REMARK   10  A    between atoms: C_17  and  C_19
REMARK                            x       y       z     vdW  Elec       q    Type
REMARK                         _______ _______ _______ _____ _____    ______ ____
ROOT
ATOM      1  C   UNL     1      -7.753   3.236 126.880  0.00  0.00    +0.000 A 
ATOM      2  C   UNL     1      -7.498   1.874 127.047  0.00  0.00    +0.000 A 
ATOM      3  C   UNL     1      -7.548   1.014 125.938  0.00  0.00    +0.000 A 
ATOM      4  C   UNL     1      -7.888   1.504 124.669  0.00  0.00    +0.000 A 
ATOM      5  C   UNL     1      -8.110   2.876 124.522  0.00  0.00    +0.000 A 
ATOM      6  C   UNL     1      -8.045   3.723 125.609  0.00  0.00    +0.000 A 
ENDROOT
BRANCH   1   9
ATOM      7  C   UNL     1      -8.594   3.990 129.029  0.00  0.00    +0.000 C 
ATOM      8  O   UNL     1      -9.346   3.009 129.090  0.00  0.00    +0.000 OA
ATOM      9  N   UNL     1      -7.708   4.141 127.965  0.00  0.00    +0.000 N 
ATOM     10  H   UNL     1      -6.917   4.769 128.032  0.00  0.00    +0.000 HD
BRANCH   7  11
ATOM     11  C   UNL     1      -8.538   5.073 130.102  0.00  0.00    +0.000 C 
BRANCH  11  15
ATOM     12  N   UNL     1     -10.887   8.819 128.186  0.00  0.00    +0.000 N 
ATOM     13  C   UNL     1     -10.690   7.829 129.062  0.00  0.00    +0.000 A 
ATOM     14  N   UNL     1      -9.654   7.044 129.008  0.00  0.00    +0.000 NA
ATOM     15  C   UNL     1      -9.654   6.088 130.010  0.00  0.00    +0.000 A 
ATOM     16  C   UNL     1     -10.746   6.194 130.851  0.00  0.00    +0.000 A 
ATOM     17  S   UNL     1     -11.766   7.486 130.347  0.00  0.00    +0.000 S 
ATOM     18  H   UNL     1     -10.203   8.960 127.451  0.00  0.00    +0.000 HD
ATOM     19  H   UNL     1     -11.685   9.434 128.221  0.00  0.00    +0.000 HD
ENDBRANCH  11  15
ENDBRANCH   7  11
ENDBRANCH   1   9
BRANCH   4  20
ATOM     20  C   UNL     1      -8.064   0.552 123.510  0.00  0.00    +0.000 C 
BRANCH  20  21
ATOM     21  C   UNL     1      -9.537   0.304 123.182  0.00  0.00    +0.000 C 
BRANCH  21  22
ATOM     22  N   UNL     1      -9.760  -1.045 122.692  0.00  0.00    +0.000 NA
ATOM     23  H   UNL     1     -10.043  -1.010 121.708  0.00  0.00    +0.000 HD
BRANCH  22  24
ATOM     24  C   UNL     1      -8.491  -1.788 122.773  0.00  0.00    +0.000 C 
BRANCH  24  25
ATOM     25  C   UNL     1      -8.694  -3.095 123.561  0.00  0.00    +0.000 C 
BRANCH  25  26
ATOM     26  C   UNL     1      -8.200  -2.961 124.977  0.00  0.00    +0.000 A 
ATOM     27  C   UNL     1      -9.075  -3.195 126.045  0.00  0.00    +0.000 A 
ATOM     28  C   UNL     1      -8.660  -2.950 127.352  0.00  0.00    +0.000 A 
ATOM     29  C   UNL     1      -7.346  -2.558 127.606  0.00  0.00    +0.000 A 
ATOM     30  C   UNL     1      -6.447  -2.399 126.557  0.00  0.00    +0.000 A 
ATOM     31  C   UNL     1      -6.871  -2.602 125.250  0.00  0.00    +0.000 A 
ENDBRANCH  25  26
BRANCH  25  32
ATOM     32  O   UNL     1     -10.082  -3.469 123.573  0.00  0.00    +0.000 OA
ATOM     33  H   UNL     1     -10.410  -3.165 122.702  0.00  0.00    +0.000 HD
ENDBRANCH  25  32
ENDBRANCH  24  25
ENDBRANCH  22  24
ENDBRANCH  21  22
ENDBRANCH  20  21
ENDBRANCH   4  20
TORSDOF 10
ENDMDL
