MODEL 1
REMARK VINA RESULT:      -7.0      0.000      0.000
REMARK  Name = Mirtazapine
REMARK  1 active torsions:
REMARK  status: ('A' for Active; 'I' for Inactive)
REMARK    1  A    between atoms: C_1  and  N_2
REMARK                            x       y       z     vdW  Elec       q    Type
REMARK                         _______ _______ _______ _____ _____    ______ ____
ROOT
ATOM      1  C   UNL     1      -8.098   4.963 125.690  0.00  0.00    +0.000 C 
ATOM      2  N   UNL     1      -8.645   3.639 125.232  0.00  0.00    +0.000 NA
ATOM      3  C   UNL     1      -7.908   2.789 126.098  0.00  0.00    +0.000 C 
ATOM      4  C   UNL     1      -8.708   1.500 126.001  0.00  0.00    +0.000 C 
ATOM      5  N   UNL     1      -7.712   0.651 125.475  0.00  0.00    +0.000 N 
ATOM      6  C   UNL     1      -7.694   0.808 124.019  0.00  0.00    +0.000 C 
ATOM      7  C   UNL     1      -8.386   2.640 123.853  0.00  0.00    +0.000 C 
ATOM      8  C   UNL     1      -8.004  -0.899 123.813  0.00  0.00    +0.000 A 
ATOM      9  C   UNL     1      -9.076  -1.501 123.131  0.00  0.00    +0.000 A 
ATOM     10  C   UNL     1      -9.387  -2.926 123.245  0.00  0.00    +0.000 A 
ATOM     11  C   UNL     1      -8.686  -3.830 124.043  0.00  0.00    +0.000 A 
ATOM     12  C   UNL     1      -7.585  -3.336 124.685  0.00  0.00    +0.000 A 
ATOM     13  C   UNL     1      -7.207  -1.941 124.553  0.00  0.00    +0.000 A 
ATOM     14  C   UNL     1      -5.893  -1.715 125.285  0.00  0.00    +0.000 C 
ATOM     15  C   UNL     1      -6.008  -0.807 126.460  0.00  0.00    +0.000 A 
ATOM     16  C   UNL     1      -6.803   0.268 126.458  0.00  0.00    +0.000 A 
ATOM     17  N   UNL     1      -6.901   1.029 127.571  0.00  0.00    +0.000 NA
ATOM     18  C   UNL     1      -6.209   0.767 128.683  0.00  0.00    +0.000 A 
ATOM     19  C   UNL     1      -5.431  -0.321 128.784  0.00  0.00    +0.000 A 
ATOM     20  C   UNL     1      -5.324  -1.143 127.664  0.00  0.00    +0.000 A 
ENDROOT
TORSDOF 0
ENDMDL
MODEL 2
REMARK VINA RESULT:      -6.9      1.916      3.916
REMARK  Name = Mirtazapine
REMARK  1 active torsions:
REMARK  status: ('A' for Active; 'I' for Inactive)
REMARK    1  A    between atoms: C_1  and  N_2
REMARK                            x       y       z     vdW  Elec       q    Type
REMARK                         _______ _______ _______ _____ _____    ______ ____
ROOT
ATOM      1  C   UNL     1      -6.468   3.707 129.035  0.00  0.00    +0.000 C 
ATOM      2  N   UNL     1      -6.753   2.352 128.451  0.00  0.00    +0.000 NA
ATOM      3  C   UNL     1      -6.658   2.685 127.074  0.00  0.00    +0.000 C 
ATOM      4  C   UNL     1      -6.505   1.309 126.446  0.00  0.00    +0.000 C 
ATOM      5  N   UNL     1      -7.661   1.298 125.636  0.00  0.00    +0.000 N 
ATOM      6  C   UNL     1      -8.792   0.853 126.453  0.00  0.00    +0.000 C 
ATOM      7  C   UNL     1      -8.179   1.409 128.236  0.00  0.00    +0.000 C 
ATOM      8  C   UNL     1      -9.089  -0.473 125.354  0.00  0.00    +0.000 A 
ATOM      9  C   UNL     1      -9.111  -1.846 125.652  0.00  0.00    +0.000 A 
ATOM     10  C   UNL     1      -9.103  -2.880 124.616  0.00  0.00    +0.000 A 
ATOM     11  C   UNL     1      -9.051  -2.631 123.245  0.00  0.00    +0.000 A 
ATOM     12  C   UNL     1      -9.097  -1.317 122.872  0.00  0.00    +0.000 A 
ATOM     13  C   UNL     1      -9.164  -0.260 123.864  0.00  0.00    +0.000 A 
ATOM     14  C   UNL     1      -9.313   1.075 123.153  0.00  0.00    +0.000 C 
ATOM     15  C   UNL     1      -8.150   1.988 123.337  0.00  0.00    +0.000 A 
ATOM     16  C   UNL     1      -7.488   2.077 124.495  0.00  0.00    +0.000 A 
ATOM     17  N   UNL     1      -6.411   2.889 124.589  0.00  0.00    +0.000 NA
ATOM     18  C   UNL     1      -5.986   3.638 123.568  0.00  0.00    +0.000 A 
ATOM     19  C   UNL     1      -6.563   3.567 122.359  0.00  0.00    +0.000 A 
ATOM     20  C   UNL     1      -7.662   2.721 122.217  0.00  0.00    +0.000 A 
ENDROOT
TORSDOF 0
ENDMDL
MODEL 3
REMARK VINA RESULT:      -6.9      2.694      5.418
REMARK  Name = Mirtazapine
REMARK  1 active torsions:
REMARK  status: ('A' for Active; 'I' for Inactive)
REMARK    1  A    between atoms: C_1  and  N_2
REMARK                            x       y       z     vdW  Elec       q    Type
REMARK                         _______ _______ _______ _____ _____    ______ ____
ROOT
ATOM      1  C   UNL     1      -5.801   2.425 125.470  0.00  0.00    +0.000 C 
ATOM      2  N   UNL     1      -5.200   1.391 126.381  0.00  0.00    +0.000 NA
ATOM      3  C   UNL     1      -6.129   0.341 126.160  0.00  0.00    +0.000 C 
ATOM      4  C   UNL     1      -5.360  -0.855 126.696  0.00  0.00    +0.000 C 
ATOM      5  N   UNL     1      -6.238  -1.248 127.728  0.00  0.00    +0.000 N 
ATOM      6  C   UNL     1      -5.933  -0.454 128.921  0.00  0.00    +0.000 C 
ATOM      7  C   UNL     1      -5.176   1.157 128.088  0.00  0.00    +0.000 C 
ATOM      8  C   UNL     1      -5.628  -1.911 129.836  0.00  0.00    +0.000 A 
ATOM      9  C   UNL     1      -4.447  -2.270 130.510  0.00  0.00    +0.000 A 
ATOM     10  C   UNL     1      -4.205  -3.621 131.016  0.00  0.00    +0.000 A 
ATOM     11  C   UNL     1      -5.086  -4.693 130.873  0.00  0.00    +0.000 A 
ATOM     12  C   UNL     1      -6.288  -4.408 130.288  0.00  0.00    +0.000 A 
ATOM     13  C   UNL     1      -6.593  -3.067 129.824  0.00  0.00    +0.000 A 
ATOM     14  C   UNL     1      -8.030  -3.034 129.324  0.00  0.00    +0.000 C 
ATOM     15  C   UNL     1      -8.152  -2.771 127.863  0.00  0.00    +0.000 A 
ATOM     16  C   UNL     1      -7.349  -1.916 127.221  0.00  0.00    +0.000 A 
ATOM     17  N   UNL     1      -7.478  -1.753 125.885  0.00  0.00    +0.000 NA
ATOM     18  C   UNL     1      -8.403  -2.399 125.169  0.00  0.00    +0.000 A 
ATOM     19  C   UNL     1      -9.211  -3.312 125.728  0.00  0.00    +0.000 A 
ATOM     20  C   UNL     1      -9.090  -3.525 127.101  0.00  0.00    +0.000 A 
ENDROOT
TORSDOF 0
ENDMDL
MODEL 4
REMARK VINA RESULT:      -6.9      2.175      3.218
REMARK  Name = Mirtazapine
REMARK  1 active torsions:
REMARK  status: ('A' for Active; 'I' for Inactive)
REMARK    1  A    between atoms: C_1  and  N_2
REMARK                            x       y       z     vdW  Elec       q    Type
REMARK                         _______ _______ _______ _____ _____    ______ ____
ROOT
ATOM      1  C   UNL     1      -8.751   2.719 122.717  0.00  0.00    +0.000 C 
ATOM      2  N   UNL     1      -9.089   1.452 123.454  0.00  0.00    +0.000 NA
ATOM      3  C   UNL     1      -8.745   1.868 124.767  0.00  0.00    +0.000 C 
ATOM      4  C   UNL     1      -9.454   0.817 125.606  0.00  0.00    +0.000 C 
ATOM      5  N   UNL     1      -8.337   0.250 126.256  0.00  0.00    +0.000 N 
ATOM      6  C   UNL     1      -7.760  -0.769 125.377  0.00  0.00    +0.000 C 
ATOM      7  C   UNL     1      -8.325  -0.083 123.623  0.00  0.00    +0.000 C 
ATOM      8  C   UNL     1      -7.977  -1.985 126.613  0.00  0.00    +0.000 A 
ATOM      9  C   UNL     1      -8.710  -3.182 126.521  0.00  0.00    +0.000 A 
ATOM     10  C   UNL     1      -9.048  -3.994 127.689  0.00  0.00    +0.000 A 
ATOM     11  C   UNL     1      -8.712  -3.672 129.005  0.00  0.00    +0.000 A 
ATOM     12  C   UNL     1      -7.939  -2.558 129.171  0.00  0.00    +0.000 A 
ATOM     13  C   UNL     1      -7.531  -1.754 128.033  0.00  0.00    +0.000 A 
ATOM     14  C   UNL     1      -6.598  -0.654 128.515  0.00  0.00    +0.000 C 
ATOM     15  C   UNL     1      -7.150   0.719 128.347  0.00  0.00    +0.000 A 
ATOM     16  C   UNL     1      -7.877   1.072 127.282  0.00  0.00    +0.000 A 
ATOM     17  N   UNL     1      -8.391   2.320 127.206  0.00  0.00    +0.000 NA
ATOM     18  C   UNL     1      -8.180   3.241 128.151  0.00  0.00    +0.000 A 
ATOM     19  C   UNL     1      -7.507   2.951 129.275  0.00  0.00    +0.000 A 
ATOM     20  C   UNL     1      -6.983   1.665 129.399  0.00  0.00    +0.000 A 
ENDROOT
TORSDOF 0
ENDMDL
MODEL 5
REMARK VINA RESULT:      -6.8      2.247      4.318
REMARK  Name = Mirtazapine
REMARK  1 active torsions:
REMARK  status: ('A' for Active; 'I' for Inactive)
REMARK    1  A    between atoms: C_1  and  N_2
REMARK                            x       y       z     vdW  Elec       q    Type
REMARK                         _______ _______ _______ _____ _____    ______ ____
ROOT
ATOM      1  C   UNL     1      -5.198   4.462 128.878  0.00  0.00    +0.000 C 
ATOM      2  N   UNL     1      -4.986   3.081 128.322  0.00  0.00    +0.000 NA
ATOM      3  C   UNL     1      -5.234   3.359 126.952  0.00  0.00    +0.000 C 
ATOM      4  C   UNL     1      -4.625   2.136 126.286  0.00  0.00    +0.000 C 
ATOM      5  N   UNL     1      -5.778   1.618 125.660  0.00  0.00    +0.000 N 
ATOM      6  C   UNL     1      -6.499   0.791 126.630  0.00  0.00    +0.000 C 
ATOM      7  C   UNL     1      -5.917   1.631 128.310  0.00  0.00    +0.000 C 
ATOM      8  C   UNL     1      -6.383  -0.591 125.567  0.00  0.00    +0.000 A 
ATOM      9  C   UNL     1      -5.799  -1.839 125.843  0.00  0.00    +0.000 A 
ATOM     10  C   UNL     1      -5.519  -2.828 124.802  0.00  0.00    +0.000 A 
ATOM     11  C   UNL     1      -5.771  -2.645 123.442  0.00  0.00    +0.000 A 
ATOM     12  C   UNL     1      -6.402  -1.482 123.101  0.00  0.00    +0.000 A 
ATOM     13  C   UNL     1      -6.752  -0.498 124.110  0.00  0.00    +0.000 A 
ATOM     14  C   UNL     1      -7.534   0.628 123.450  0.00  0.00    +0.000 C 
ATOM     15  C   UNL     1      -6.831   1.941 123.472  0.00  0.00    +0.000 A 
ATOM     16  C   UNL     1      -6.104   2.346 124.518  0.00  0.00    +0.000 A 
ATOM     17  N   UNL     1      -5.451   3.528 124.462  0.00  0.00    +0.000 NA
ATOM     18  C   UNL     1      -5.521   4.337 123.400  0.00  0.00    +0.000 A 
ATOM     19  C   UNL     1      -6.186   3.981 122.291  0.00  0.00    +0.000 A 
ATOM     20  C   UNL     1      -6.851   2.756 122.303  0.00  0.00    +0.000 A 
ENDROOT
TORSDOF 0
ENDMDL
MODEL 6
REMARK VINA RESULT:      -6.8      1.773      5.367
REMARK  Name = Mirtazapine
REMARK  1 active torsions:
REMARK  status: ('A' for Active; 'I' for Inactive)
REMARK    1  A    between atoms: C_1  and  N_2
REMARK                            x       y       z     vdW  Elec       q    Type
REMARK                         _______ _______ _______ _____ _____    ______ ____
ROOT
ATOM      1  C   UNL     1      -6.464  -3.349 129.457  0.00  0.00    +0.000 C 
ATOM      2  N   UNL     1      -6.630  -1.970 128.881  0.00  0.00    +0.000 NA
ATOM      3  C   UNL     1      -7.299  -2.317 127.678  0.00  0.00    +0.000 C 
ATOM      4  C   UNL     1      -7.876  -0.974 127.261  0.00  0.00    +0.000 C 
ATOM      5  N   UNL     1      -7.221  -0.820 126.020  0.00  0.00    +0.000 N 
ATOM      6  C   UNL     1      -5.902  -0.233 126.265  0.00  0.00    +0.000 C 
ATOM      7  C   UNL     1      -5.574  -0.855 128.100  0.00  0.00    +0.000 C 
ATOM      8  C   UNL     1      -6.288   1.116 125.223  0.00  0.00    +0.000 A 
ATOM      9  C   UNL     1      -6.290   2.482 125.553  0.00  0.00    +0.000 A 
ATOM     10  C   UNL     1      -6.884   3.503 124.689  0.00  0.00    +0.000 A 
ATOM     11  C   UNL     1      -7.521   3.245 123.476  0.00  0.00    +0.000 A 
ATOM     12  C   UNL     1      -7.500   1.946 123.051  0.00  0.00    +0.000 A 
ATOM     13  C   UNL     1      -6.871   0.910 123.849  0.00  0.00    +0.000 A 
ATOM     14  C   UNL     1      -6.909  -0.399 123.075  0.00  0.00    +0.000 C 
ATOM     15  C   UNL     1      -7.750  -1.451 123.713  0.00  0.00    +0.000 A 
ATOM     16  C   UNL     1      -7.802  -1.619 125.038  0.00  0.00    +0.000 A 
ATOM     17  N   UNL     1      -8.619  -2.559 125.562  0.00  0.00    +0.000 NA
ATOM     18  C   UNL     1      -9.371  -3.360 124.801  0.00  0.00    +0.000 A 
ATOM     19  C   UNL     1      -9.416  -3.221 123.468  0.00  0.00    +0.000 A 
ATOM     20  C   UNL     1      -8.605  -2.243 122.894  0.00  0.00    +0.000 A 
ENDROOT
TORSDOF 0
ENDMDL
MODEL 7
REMARK VINA RESULT:      -6.8      1.972      4.364
REMARK  Name = Mirtazapine
REMARK  1 active torsions:
REMARK  status: ('A' for Active; 'I' for Inactive)
REMARK    1  A    between atoms: C_1  and  N_2
REMARK                            x       y       z     vdW  Elec       q    Type
REMARK                         _______ _______ _______ _____ _____    ______ ____
ROOT
ATOM      1  C   UNL     1      -4.870  -2.128 130.595  0.00  0.00    +0.000 C 
ATOM      2  N   UNL     1      -5.524  -2.635 129.340  0.00  0.00    +0.000 NA
ATOM      3  C   UNL     1      -5.433  -1.455 128.556  0.00  0.00    +0.000 C 
ATOM      4  C   UNL     1      -5.671  -2.007 127.160  0.00  0.00    +0.000 C 
ATOM      5  N   UNL     1      -6.840  -1.290 126.827  0.00  0.00    +0.000 N 
ATOM      6  C   UNL     1      -7.994  -2.014 127.363  0.00  0.00    +0.000 C 
ATOM      7  C   UNL     1      -7.153  -2.950 128.873  0.00  0.00    +0.000 C 
ATOM      8  C   UNL     1      -8.683  -2.140 125.762  0.00  0.00    +0.000 A 
ATOM      9  C   UNL     1      -9.033  -3.312 125.068  0.00  0.00    +0.000 A 
ATOM     10  C   UNL     1      -9.350  -3.319 123.640  0.00  0.00    +0.000 A 
ATOM     11  C   UNL     1      -9.321  -2.196 122.813  0.00  0.00    +0.000 A 
ATOM     12  C   UNL     1      -9.056  -1.005 123.428  0.00  0.00    +0.000 A 
ATOM     13  C   UNL     1      -8.793  -0.943 124.855  0.00  0.00    +0.000 A 
ATOM     14  C   UNL     1      -8.643   0.514 125.265  0.00  0.00    +0.000 C 
ATOM     15  C   UNL     1      -7.279   0.865 125.748  0.00  0.00    +0.000 A 
ATOM     16  C   UNL     1      -6.546   0.029 126.490  0.00  0.00    +0.000 A 
ATOM     17  N   UNL     1      -5.295   0.384 126.860  0.00  0.00    +0.000 NA
ATOM     18  C   UNL     1      -4.758   1.564 126.535  0.00  0.00    +0.000 A 
ATOM     19  C   UNL     1      -5.407   2.436 125.749  0.00  0.00    +0.000 A 
ATOM     20  C   UNL     1      -6.691   2.093 125.327  0.00  0.00    +0.000 A 
ENDROOT
TORSDOF 0
ENDMDL
MODEL 8
REMARK VINA RESULT:      -6.7      2.098      4.402
REMARK  Name = Mirtazapine
REMARK  1 active torsions:
REMARK  status: ('A' for Active; 'I' for Inactive)
REMARK    1  A    between atoms: C_1  and  N_2
REMARK                            x       y       z     vdW  Elec       q    Type
REMARK                         _______ _______ _______ _____ _____    ______ ____
ROOT
ATOM      1  C   UNL     1      -6.577   3.439 123.834  0.00  0.00    +0.000 C 
ATOM      2  N   UNL     1      -6.352   2.515 124.999  0.00  0.00    +0.000 NA
ATOM      3  C   UNL     1      -6.795   1.305 124.403  0.00  0.00    +0.000 C 
ATOM      4  C   UNL     1      -6.201   0.273 125.348  0.00  0.00    +0.000 C 
ATOM      5  N   UNL     1      -7.391  -0.339 125.796  0.00  0.00    +0.000 N 
ATOM      6  C   UNL     1      -7.924   0.449 126.910  0.00  0.00    +0.000 C 
ATOM      7  C   UNL     1      -7.182   2.218 126.479  0.00  0.00    +0.000 C 
ATOM      8  C   UNL     1      -7.861  -0.951 127.955  0.00  0.00    +0.000 A 
ATOM      9  C   UNL     1      -7.167  -1.084 129.170  0.00  0.00    +0.000 A 
ATOM     10  C   UNL     1      -6.963  -2.376 129.826  0.00  0.00    +0.000 A 
ATOM     11  C   UNL     1      -7.402  -3.601 129.324  0.00  0.00    +0.000 A 
ATOM     12  C   UNL     1      -8.146  -3.547 128.178  0.00  0.00    +0.000 A 
ATOM     13  C   UNL     1      -8.422  -2.281 127.525  0.00  0.00    +0.000 A 
ATOM     14  C   UNL     1      -9.354  -2.526 126.349  0.00  0.00    +0.000 C 
ATOM     15  C   UNL     1      -8.741  -2.231 125.023  0.00  0.00    +0.000 A 
ATOM     16  C   UNL     1      -7.910  -1.201 124.834  0.00  0.00    +0.000 A 
ATOM     17  N   UNL     1      -7.347  -1.011 123.619  0.00  0.00    +0.000 NA
ATOM     18  C   UNL     1      -7.607  -1.803 122.576  0.00  0.00    +0.000 A 
ATOM     19  C   UNL     1      -8.387  -2.888 122.697  0.00  0.00    +0.000 A 
ATOM     20  C   UNL     1      -8.966  -3.130 123.941  0.00  0.00    +0.000 A 
ENDROOT
TORSDOF 0
ENDMDL
MODEL 9
REMARK VINA RESULT:      -6.6      2.534      4.838
REMARK  Name = Mirtazapine
REMARK  1 active torsions:
REMARK  status: ('A' for Active; 'I' for Inactive)
REMARK    1  A    between atoms: C_1  and  N_2
REMARK                            x       y       z     vdW  Elec       q    Type
REMARK                         _______ _______ _______ _____ _____    ______ ____
ROOT
ATOM      1  C   UNL     1      -4.407   5.636 127.363  0.00  0.00    +0.000 C 
ATOM      2  N   UNL     1      -5.017   4.274 127.178  0.00  0.00    +0.000 NA
ATOM      3  C   UNL     1      -5.176   4.298 125.768  0.00  0.00    +0.000 C 
ATOM      4  C   UNL     1      -5.375   2.821 125.466  0.00  0.00    +0.000 C 
ATOM      5  N   UNL     1      -6.668   2.875 124.903  0.00  0.00    +0.000 N 
ATOM      6  C   UNL     1      -7.647   2.836 125.991  0.00  0.00    +0.000 C 
ATOM      7  C   UNL     1      -6.582   3.608 127.452  0.00  0.00    +0.000 C 
ATOM      8  C   UNL     1      -8.376   1.402 125.310  0.00  0.00    +0.000 A 
ATOM      9  C   UNL     1      -8.541   0.148 125.924  0.00  0.00    +0.000 A 
ATOM     10  C   UNL     1      -8.918  -1.053 125.179  0.00  0.00    +0.000 A 
ATOM     11  C   UNL     1      -9.130  -1.101 123.801  0.00  0.00    +0.000 A 
ATOM     12  C   UNL     1      -9.055   0.093 123.142  0.00  0.00    +0.000 A 
ATOM     13  C   UNL     1      -8.742   1.321 123.851  0.00  0.00    +0.000 A 
ATOM     14  C   UNL     1      -8.837   2.488 122.881  0.00  0.00    +0.000 C 
ATOM     15  C   UNL     1      -7.537   3.171 122.632  0.00  0.00    +0.000 A 
ATOM     16  C   UNL     1      -6.632   3.359 123.598  0.00  0.00    +0.000 A 
ATOM     17  N   UNL     1      -5.449   3.944 123.302  0.00  0.00    +0.000 NA
ATOM     18  C   UNL     1      -5.149   4.373 122.073  0.00  0.00    +0.000 A 
ATOM     19  C   UNL     1      -5.980   4.175 121.039  0.00  0.00    +0.000 A 
ATOM     20  C   UNL     1      -7.199   3.553 121.301  0.00  0.00    +0.000 A 
ENDROOT
TORSDOF 0
ENDMDL
