MODEL 1
REMARK VINA RESULT:      -6.4      0.000      0.000
REMARK  Name = Misoprostol
REMARK  19 active torsions:
REMARK  status: ('A' for Active; 'I' for Inactive)
REMARK    1  A    between atoms: C_1  and  C_2
REMARK    2  A    between atoms: C_2  and  C_3
REMARK    3  A    between atoms: C_3  and  C_4
REMARK    4  A    between atoms: C_4  and  C_5
REMARK    5  A    between atoms: C_5  and  C_6
REMARK    6  A    between atoms: C_5  and  O_7
REMARK    7  A    between atoms: C_5  and  C_8
REMARK    8  A    between atoms: C_8  and  C_9
REMARK    9  A    between atoms: C_10  and  C_11
REMARK   10  A    between atoms: C_12  and  O_13
REMARK   11  A    between atoms: C_17  and  C_18
REMARK   12  A    between atoms: C_18  and  C_19
REMARK   13  A    between atoms: C_19  and  C_20
REMARK   14  A    between atoms: C_20  and  C_21
REMARK   15  A    between atoms: C_21  and  C_22
REMARK   16  A    between atoms: C_22  and  C_23
REMARK   17  A    between atoms: C_23  and  C_24
REMARK   18  A    between atoms: C_24  and  O_26
REMARK   19  A    between atoms: O_26  and  C_27
REMARK                            x       y       z     vdW  Elec       q    Type
REMARK                         _______ _______ _______ _____ _____    ______ ____
ROOT
ATOM      1  C   UNL     1      -7.755  -2.524 129.589  0.00  0.00    +0.000 C 
ATOM      2  C   UNL     1      -7.228  -3.391 130.765  0.00  0.00    +0.000 C 
ATOM      3  C   UNL     1      -5.721  -3.576 130.563  0.00  0.00    +0.000 C 
ATOM      4  C   UNL     1      -5.450  -2.748 129.336  0.00  0.00    +0.000 C 
ATOM      5  O   UNL     1      -4.439  -2.849 128.651  0.00  0.00    +0.000 OA
ATOM      6  C   UNL     1      -6.533  -1.728 129.101  0.00  0.00    +0.000 C 
ENDROOT
BRANCH   2   7
ATOM      7  O   UNL     1      -7.524  -2.793 132.028  0.00  0.00    +0.000 OA
ATOM      8  H   UNL     1      -8.015  -1.966 131.908  0.00  0.00    +0.000 HD
ENDBRANCH   2   7
BRANCH   1  10
ATOM      9  C   UNL     1      -8.534  -2.700 127.221  0.00  0.00    +0.000 C 
ATOM     10  C   UNL     1      -8.337  -3.264 128.413  0.00  0.00    +0.000 C 
BRANCH   9  11
ATOM     11  C   UNL     1      -9.101  -3.395 126.026  0.00  0.00    +0.000 C 
BRANCH  11  12
ATOM     12  C   UNL     1      -8.620  -2.712 124.729  0.00  0.00    +0.000 C 
ATOM     13  C   UNL     1      -8.175  -1.263 125.003  0.00  0.00    +0.000 C 
BRANCH  12  14
ATOM     14  O   UNL     1      -9.721  -2.712 123.810  0.00  0.00    +0.000 OA
ATOM     15  H   UNL     1      -9.496  -3.254 123.038  0.00  0.00    +0.000 HD
ENDBRANCH  12  14
BRANCH  12  16
ATOM     16  C   UNL     1      -7.470  -3.534 124.132  0.00  0.00    +0.000 C 
BRANCH  16  17
ATOM     17  C   UNL     1      -6.108  -2.996 124.557  0.00  0.00    +0.000 C 
BRANCH  17  19
ATOM     18  C   UNL     1      -4.393  -4.549 123.695  0.00  0.00    +0.000 C 
ATOM     19  C   UNL     1      -5.061  -3.205 123.482  0.00  0.00    +0.000 C 
ENDBRANCH  17  19
ENDBRANCH  16  17
ENDBRANCH  12  16
ENDBRANCH  11  12
ENDBRANCH   9  11
ENDBRANCH   1  10
BRANCH   6  20
ATOM     20  C   UNL     1      -6.243  -0.487 129.938  0.00  0.00    +0.000 C 
BRANCH  20  21
ATOM     21  C   UNL     1      -7.477   0.400 130.010  0.00  0.00    +0.000 C 
BRANCH  21  22
ATOM     22  C   UNL     1      -7.798   0.763 131.445  0.00  0.00    +0.000 C 
BRANCH  22  23
ATOM     23  C   UNL     1      -9.305   0.704 131.665  0.00  0.00    +0.000 C 
BRANCH  23  24
ATOM     24  C   UNL     1      -9.784   1.992 132.310  0.00  0.00    +0.000 C 
BRANCH  24  25
ATOM     25  C   UNL     1      -9.312   3.233 131.555  0.00  0.00    +0.000 C 
BRANCH  25  26
ATOM     26  C   UNL     1     -10.116   3.392 130.284  0.00  0.00    +0.000 C 
ATOM     27  O   UNL     1     -11.334   3.549 130.245  0.00  0.00    +0.000 OA
BRANCH  26  28
ATOM     28  O   UNL     1      -9.314   3.338 129.186  0.00  0.00    +0.000 OA
ATOM     29  C   UNL     1      -8.071   4.028 129.355  0.00  0.00    +0.000 C 
ENDBRANCH  26  28
ENDBRANCH  25  26
ENDBRANCH  24  25
ENDBRANCH  23  24
ENDBRANCH  22  23
ENDBRANCH  21  22
ENDBRANCH  20  21
ENDBRANCH   6  20
TORSDOF 16
ENDMDL
MODEL 2
REMARK VINA RESULT:      -6.3      2.232      3.200
REMARK  Name = Misoprostol
REMARK  19 active torsions:
REMARK  status: ('A' for Active; 'I' for Inactive)
REMARK    1  A    between atoms: C_1  and  C_2
REMARK    2  A    between atoms: C_2  and  C_3
REMARK    3  A    between atoms: C_3  and  C_4
REMARK    4  A    between atoms: C_4  and  C_5
REMARK    5  A    between atoms: C_5  and  C_6
REMARK    6  A    between atoms: C_5  and  O_7
REMARK    7  A    between atoms: C_5  and  C_8
REMARK    8  A    between atoms: C_8  and  C_9
REMARK    9  A    between atoms: C_10  and  C_11
REMARK   10  A    between atoms: C_12  and  O_13
REMARK   11  A    between atoms: C_17  and  C_18
REMARK   12  A    between atoms: C_18  and  C_19
REMARK   13  A    between atoms: C_19  and  C_20
REMARK   14  A    between atoms: C_20  and  C_21
REMARK   15  A    between atoms: C_21  and  C_22
REMARK   16  A    between atoms: C_22  and  C_23
REMARK   17  A    between atoms: C_23  and  C_24
REMARK   18  A    between atoms: C_24  and  O_26
REMARK   19  A    between atoms: O_26  and  C_27
REMARK                            x       y       z     vdW  Elec       q    Type
REMARK                         _______ _______ _______ _____ _____    ______ ____
ROOT
ATOM      1  C   UNL     1      -7.757  -2.476 129.421  0.00  0.00    +0.000 C 
ATOM      2  C   UNL     1      -7.124  -3.357 130.533  0.00  0.00    +0.000 C 
ATOM      3  C   UNL     1      -5.659  -3.594 130.155  0.00  0.00    +0.000 C 
ATOM      4  C   UNL     1      -5.507  -2.780 128.898  0.00  0.00    +0.000 C 
ATOM      5  O   UNL     1      -4.589  -2.918 128.099  0.00  0.00    +0.000 OA
ATOM      6  C   UNL     1      -6.575  -1.724 128.785  0.00  0.00    +0.000 C 
ENDROOT
BRANCH   2   7
ATOM      7  O   UNL     1      -7.248  -2.745 131.817  0.00  0.00    +0.000 OA
ATOM      8  H   UNL     1      -7.113  -3.397 132.521  0.00  0.00    +0.000 HD
ENDBRANCH   2   7
BRANCH   1  10
ATOM      9  C   UNL     1      -8.713  -2.675 127.120  0.00  0.00    +0.000 C 
ATOM     10  C   UNL     1      -8.499  -3.199 128.327  0.00  0.00    +0.000 C 
BRANCH   9  11
ATOM     11  C   UNL     1      -9.437  -3.357 126.005  0.00  0.00    +0.000 C 
BRANCH  11  12
ATOM     12  C   UNL     1      -8.555  -3.398 124.739  0.00  0.00    +0.000 C 
ATOM     13  C   UNL     1      -9.407  -3.213 123.470  0.00  0.00    +0.000 C 
BRANCH  12  14
ATOM     14  O   UNL     1      -7.912  -4.680 124.705  0.00  0.00    +0.000 OA
ATOM     15  H   UNL     1      -7.290  -4.708 123.962  0.00  0.00    +0.000 HD
ENDBRANCH  12  14
BRANCH  12  16
ATOM     16  C   UNL     1      -7.484  -2.304 124.844  0.00  0.00    +0.000 C 
BRANCH  16  17
ATOM     17  C   UNL     1      -6.075  -2.879 124.756  0.00  0.00    +0.000 C 
BRANCH  17  19
ATOM     18  C   UNL     1      -6.249  -1.621 122.639  0.00  0.00    +0.000 C 
ATOM     19  C   UNL     1      -5.480  -2.702 123.374  0.00  0.00    +0.000 C 
ENDBRANCH  17  19
ENDBRANCH  16  17
ENDBRANCH  12  16
ENDBRANCH  11  12
ENDBRANCH   9  11
ENDBRANCH   1  10
BRANCH   6  20
ATOM     20  C   UNL     1      -6.147  -0.491 129.573  0.00  0.00    +0.000 C 
BRANCH  20  21
ATOM     21  C   UNL     1      -7.328   0.449 129.763  0.00  0.00    +0.000 C 
BRANCH  21  22
ATOM     22  C   UNL     1      -7.330   1.534 128.708  0.00  0.00    +0.000 C 
BRANCH  22  23
ATOM     23  C   UNL     1      -8.644   1.497 127.936  0.00  0.00    +0.000 C 
BRANCH  23  24
ATOM     24  C   UNL     1      -8.398   1.005 126.521  0.00  0.00    +0.000 C 
BRANCH  24  25
ATOM     25  C   UNL     1      -9.680   0.541 125.833  0.00  0.00    +0.000 C 
BRANCH  25  26
ATOM     26  C   UNL     1      -9.931   1.381 124.602  0.00  0.00    +0.000 C 
ATOM     27  O   UNL     1     -10.642   1.041 123.659  0.00  0.00    +0.000 OA
BRANCH  26  28
ATOM     28  O   UNL     1      -9.266   2.567 124.671  0.00  0.00    +0.000 OA
ATOM     29  C   UNL     1      -8.518   2.868 123.489  0.00  0.00    +0.000 C 
ENDBRANCH  26  28
ENDBRANCH  25  26
ENDBRANCH  24  25
ENDBRANCH  23  24
ENDBRANCH  22  23
ENDBRANCH  21  22
ENDBRANCH  20  21
ENDBRANCH   6  20
TORSDOF 16
ENDMDL
MODEL 3
REMARK VINA RESULT:      -6.3      3.595      7.119
REMARK  Name = Misoprostol
REMARK  19 active torsions:
REMARK  status: ('A' for Active; 'I' for Inactive)
REMARK    1  A    between atoms: C_1  and  C_2
REMARK    2  A    between atoms: C_2  and  C_3
REMARK    3  A    between atoms: C_3  and  C_4
REMARK    4  A    between atoms: C_4  and  C_5
REMARK    5  A    between atoms: C_5  and  C_6
REMARK    6  A    between atoms: C_5  and  O_7
REMARK    7  A    between atoms: C_5  and  C_8
REMARK    8  A    between atoms: C_8  and  C_9
REMARK    9  A    between atoms: C_10  and  C_11
REMARK   10  A    between atoms: C_12  and  O_13
REMARK   11  A    between atoms: C_17  and  C_18
REMARK   12  A    between atoms: C_18  and  C_19
REMARK   13  A    between atoms: C_19  and  C_20
REMARK   14  A    between atoms: C_20  and  C_21
REMARK   15  A    between atoms: C_21  and  C_22
REMARK   16  A    between atoms: C_22  and  C_23
REMARK   17  A    between atoms: C_23  and  C_24
REMARK   18  A    between atoms: C_24  and  O_26
REMARK   19  A    between atoms: O_26  and  C_27
REMARK                            x       y       z     vdW  Elec       q    Type
REMARK                         _______ _______ _______ _____ _____    ______ ____
ROOT
ATOM      1  C   UNL     1      -8.040  -1.057 124.763  0.00  0.00    +0.000 C 
ATOM      2  C   UNL     1      -8.471  -1.141 123.273  0.00  0.00    +0.000 C 
ATOM      3  C   UNL     1      -7.494  -2.081 122.561  0.00  0.00    +0.000 C 
ATOM      4  C   UNL     1      -6.607  -2.545 123.685  0.00  0.00    +0.000 C 
ATOM      5  O   UNL     1      -5.513  -3.071 123.522  0.00  0.00    +0.000 OA
ATOM      6  C   UNL     1      -7.265  -2.359 125.028  0.00  0.00    +0.000 C 
ENDROOT
BRANCH   2   7
ATOM      7  O   UNL     1      -9.823  -1.585 123.145  0.00  0.00    +0.000 OA
ATOM      8  H   UNL     1      -9.853  -2.535 122.955  0.00  0.00    +0.000 HD
ENDBRANCH   2   7
BRANCH   1  10
ATOM      9  C   UNL     1      -7.465   1.373 124.876  0.00  0.00    +0.000 C 
ATOM     10  C   UNL     1      -7.159   0.103 125.146  0.00  0.00    +0.000 C 
BRANCH   9  11
ATOM     11  C   UNL     1      -6.626   2.553 125.241  0.00  0.00    +0.000 C 
BRANCH  11  12
ATOM     12  C   UNL     1      -6.861   3.708 124.245  0.00  0.00    +0.000 C 
ATOM     13  C   UNL     1      -5.872   4.861 124.496  0.00  0.00    +0.000 C 
BRANCH  12  14
ATOM     14  O   UNL     1      -8.204   4.174 124.436  0.00  0.00    +0.000 OA
ATOM     15  H   UNL     1      -8.717   4.018 123.629  0.00  0.00    +0.000 HD
ENDBRANCH  12  14
BRANCH  12  16
ATOM     16  C   UNL     1      -6.720   3.167 122.816  0.00  0.00    +0.000 C 
BRANCH  16  17
ATOM     17  C   UNL     1      -5.664   3.929 122.022  0.00  0.00    +0.000 C 
BRANCH  17  19
ATOM     18  C   UNL     1      -5.347   5.154 119.902  0.00  0.00    +0.000 C 
ATOM     19  C   UNL     1      -5.963   3.922 120.537  0.00  0.00    +0.000 C 
ENDBRANCH  17  19
ENDBRANCH  16  17
ENDBRANCH  12  16
ENDBRANCH  11  12
ENDBRANCH   9  11
ENDBRANCH   1  10
BRANCH   6  20
ATOM     20  C   UNL     1      -8.166  -3.554 125.315  0.00  0.00    +0.000 C 
BRANCH  20  21
ATOM     21  C   UNL     1      -9.197  -3.194 126.374  0.00  0.00    +0.000 C 
BRANCH  21  22
ATOM     22  C   UNL     1      -8.871  -3.861 127.694  0.00  0.00    +0.000 C 
BRANCH  22  23
ATOM     23  C   UNL     1      -8.332  -2.825 128.674  0.00  0.00    +0.000 C 
BRANCH  23  24
ATOM     24  C   UNL     1      -7.013  -3.302 129.255  0.00  0.00    +0.000 C 
BRANCH  24  25
ATOM     25  C   UNL     1      -5.810  -2.603 128.623  0.00  0.00    +0.000 C 
BRANCH  25  26
ATOM     26  C   UNL     1      -4.543  -3.035 129.325  0.00  0.00    +0.000 C 
ATOM     27  O   UNL     1      -3.642  -3.685 128.798  0.00  0.00    +0.000 OA
BRANCH  26  28
ATOM     28  O   UNL     1      -4.528  -2.612 130.618  0.00  0.00    +0.000 OA
ATOM     29  C   UNL     1      -4.043  -3.600 131.534  0.00  0.00    +0.000 C 
ENDBRANCH  26  28
ENDBRANCH  25  26
ENDBRANCH  24  25
ENDBRANCH  23  24
ENDBRANCH  22  23
ENDBRANCH  21  22
ENDBRANCH  20  21
ENDBRANCH   6  20
TORSDOF 16
ENDMDL
MODEL 4
REMARK VINA RESULT:      -6.1      4.311      6.359
REMARK  Name = Misoprostol
REMARK  19 active torsions:
REMARK  status: ('A' for Active; 'I' for Inactive)
REMARK    1  A    between atoms: C_1  and  C_2
REMARK    2  A    between atoms: C_2  and  C_3
REMARK    3  A    between atoms: C_3  and  C_4
REMARK    4  A    between atoms: C_4  and  C_5
REMARK    5  A    between atoms: C_5  and  C_6
REMARK    6  A    between atoms: C_5  and  O_7
REMARK    7  A    between atoms: C_5  and  C_8
REMARK    8  A    between atoms: C_8  and  C_9
REMARK    9  A    between atoms: C_10  and  C_11
REMARK   10  A    between atoms: C_12  and  O_13
REMARK   11  A    between atoms: C_17  and  C_18
REMARK   12  A    between atoms: C_18  and  C_19
REMARK   13  A    between atoms: C_19  and  C_20
REMARK   14  A    between atoms: C_20  and  C_21
REMARK   15  A    between atoms: C_21  and  C_22
REMARK   16  A    between atoms: C_22  and  C_23
REMARK   17  A    between atoms: C_23  and  C_24
REMARK   18  A    between atoms: C_24  and  O_26
REMARK   19  A    between atoms: O_26  and  C_27
REMARK                            x       y       z     vdW  Elec       q    Type
REMARK                         _______ _______ _______ _____ _____    ______ ____
ROOT
ATOM      1  C   UNL     1      -6.424   2.507 124.338  0.00  0.00    +0.000 C 
ATOM      2  C   UNL     1      -7.091   3.898 124.159  0.00  0.00    +0.000 C 
ATOM      3  C   UNL     1      -8.122   4.063 125.280  0.00  0.00    +0.000 C 
ATOM      4  C   UNL     1      -7.939   2.802 126.082  0.00  0.00    +0.000 C 
ATOM      5  O   UNL     1      -8.757   2.381 126.892  0.00  0.00    +0.000 OA
ATOM      6  C   UNL     1      -6.596   2.169 125.828  0.00  0.00    +0.000 C 
ENDROOT
BRANCH   2   7
ATOM      7  O   UNL     1      -6.122   4.947 124.171  0.00  0.00    +0.000 OA
ATOM      8  H   UNL     1      -5.405   4.742 124.791  0.00  0.00    +0.000 HD
ENDBRANCH   2   7
BRANCH   1  10
ATOM      9  C   UNL     1      -7.107   0.127 123.990  0.00  0.00    +0.000 C 
ATOM     10  C   UNL     1      -6.999   1.373 123.528  0.00  0.00    +0.000 C 
BRANCH   9  11
ATOM     11  C   UNL     1      -7.674  -1.024 123.227  0.00  0.00    +0.000 C 
BRANCH  11  12
ATOM     12  C   UNL     1      -8.364  -2.017 124.187  0.00  0.00    +0.000 C 
ATOM     13  C   UNL     1      -9.351  -2.921 123.426  0.00  0.00    +0.000 C 
BRANCH  12  14
ATOM     14  O   UNL     1      -9.074  -1.244 125.165  0.00  0.00    +0.000 OA
ATOM     15  H   UNL     1      -9.986  -1.106 124.865  0.00  0.00    +0.000 HD
ENDBRANCH  12  14
BRANCH  12  16
ATOM     16  C   UNL     1      -7.289  -2.852 124.894  0.00  0.00    +0.000 C 
BRANCH  16  17
ATOM     17  C   UNL     1      -6.492  -3.702 123.910  0.00  0.00    +0.000 C 
BRANCH  17  19
ATOM     18  C   UNL     1      -4.311  -4.797 123.538  0.00  0.00    +0.000 C 
ATOM     19  C   UNL     1      -5.000  -3.596 124.156  0.00  0.00    +0.000 C 
ENDBRANCH  17  19
ENDBRANCH  16  17
ENDBRANCH  12  16
ENDBRANCH  11  12
ENDBRANCH   9  11
ENDBRANCH   1  10
BRANCH   6  20
ATOM     20  C   UNL     1      -5.553   2.828 126.724  0.00  0.00    +0.000 C 
BRANCH  20  21
ATOM     21  C   UNL     1      -4.153   2.434 126.281  0.00  0.00    +0.000 C 
BRANCH  21  22
ATOM     22  C   UNL     1      -3.260   3.651 126.164  0.00  0.00    +0.000 C 
BRANCH  22  23
ATOM     23  C   UNL     1      -2.278   3.681 127.330  0.00  0.00    +0.000 C 
BRANCH  23  24
ATOM     24  C   UNL     1      -2.780   4.631 128.403  0.00  0.00    +0.000 C 
BRANCH  24  25
ATOM     25  C   UNL     1      -2.696   6.094 127.972  0.00  0.00    +0.000 C 
BRANCH  25  26
ATOM     26  C   UNL     1      -3.695   6.914 128.756  0.00  0.00    +0.000 C 
ATOM     27  O   UNL     1      -3.620   8.129 128.923  0.00  0.00    +0.000 OA
BRANCH  26  28
ATOM     28  O   UNL     1      -4.691   6.132 129.255  0.00  0.00    +0.000 OA
ATOM     29  C   UNL     1      -5.191   6.585 130.517  0.00  0.00    +0.000 C 
ENDBRANCH  26  28
ENDBRANCH  25  26
ENDBRANCH  24  25
ENDBRANCH  23  24
ENDBRANCH  22  23
ENDBRANCH  21  22
ENDBRANCH  20  21
ENDBRANCH   6  20
TORSDOF 16
ENDMDL
MODEL 5
REMARK VINA RESULT:      -6.1      1.722      2.113
REMARK  Name = Misoprostol
REMARK  19 active torsions:
REMARK  status: ('A' for Active; 'I' for Inactive)
REMARK    1  A    between atoms: C_1  and  C_2
REMARK    2  A    between atoms: C_2  and  C_3
REMARK    3  A    between atoms: C_3  and  C_4
REMARK    4  A    between atoms: C_4  and  C_5
REMARK    5  A    between atoms: C_5  and  C_6
REMARK    6  A    between atoms: C_5  and  O_7
REMARK    7  A    between atoms: C_5  and  C_8
REMARK    8  A    between atoms: C_8  and  C_9
REMARK    9  A    between atoms: C_10  and  C_11
REMARK   10  A    between atoms: C_12  and  O_13
REMARK   11  A    between atoms: C_17  and  C_18
REMARK   12  A    between atoms: C_18  and  C_19
REMARK   13  A    between atoms: C_19  and  C_20
REMARK   14  A    between atoms: C_20  and  C_21
REMARK   15  A    between atoms: C_21  and  C_22
REMARK   16  A    between atoms: C_22  and  C_23
REMARK   17  A    between atoms: C_23  and  C_24
REMARK   18  A    between atoms: C_24  and  O_26
REMARK   19  A    between atoms: O_26  and  C_27
REMARK                            x       y       z     vdW  Elec       q    Type
REMARK                         _______ _______ _______ _____ _____    ______ ____
ROOT
ATOM      1  C   UNL     1      -7.678  -3.037 129.489  0.00  0.00    +0.000 C 
ATOM      2  C   UNL     1      -6.497  -3.867 130.063  0.00  0.00    +0.000 C 
ATOM      3  C   UNL     1      -5.200  -3.265 129.512  0.00  0.00    +0.000 C 
ATOM      4  C   UNL     1      -5.696  -2.084 128.721  0.00  0.00    +0.000 C 
ATOM      5  O   UNL     1      -5.030  -1.498 127.875  0.00  0.00    +0.000 OA
ATOM      6  C   UNL     1      -7.075  -1.662 129.155  0.00  0.00    +0.000 C 
ENDROOT
BRANCH   2   7
ATOM      7  O   UNL     1      -6.511  -3.878 131.491  0.00  0.00    +0.000 OA
ATOM      8  H   UNL     1      -5.679  -4.232 131.838  0.00  0.00    +0.000 HD
ENDBRANCH   2   7
BRANCH   1  10
ATOM      9  C   UNL     1      -8.697  -2.807 127.218  0.00  0.00    +0.000 C 
ATOM     10  C   UNL     1      -8.342  -3.576 128.249  0.00  0.00    +0.000 C 
BRANCH   9  11
ATOM     11  C   UNL     1      -9.351  -3.298 125.968  0.00  0.00    +0.000 C 
BRANCH  11  12
ATOM     12  C   UNL     1      -8.646  -2.710 124.728  0.00  0.00    +0.000 C 
ATOM     13  C   UNL     1      -8.185  -1.265 124.992  0.00  0.00    +0.000 C 
BRANCH  12  14
ATOM     14  O   UNL     1      -9.592  -2.724 123.649  0.00  0.00    +0.000 OA
ATOM     15  H   UNL     1     -10.411  -2.291 123.934  0.00  0.00    +0.000 HD
ENDBRANCH  12  14
BRANCH  12  16
ATOM     16  C   UNL     1      -7.456  -3.606 124.361  0.00  0.00    +0.000 C 
BRANCH  16  17
ATOM     17  C   UNL     1      -6.122  -2.919 124.634  0.00  0.00    +0.000 C 
BRANCH  17  19
ATOM     18  C   UNL     1      -4.559  -4.595 123.718  0.00  0.00    +0.000 C 
ATOM     19  C   UNL     1      -5.113  -3.194 123.539  0.00  0.00    +0.000 C 
ENDBRANCH  17  19
ENDBRANCH  16  17
ENDBRANCH  12  16
ENDBRANCH  11  12
ENDBRANCH   9  11
ENDBRANCH   1  10
BRANCH   6  20
ATOM     20  C   UNL     1      -6.962  -0.739 130.362  0.00  0.00    +0.000 C 
BRANCH  20  21
ATOM     21  C   UNL     1      -8.279  -0.015 130.598  0.00  0.00    +0.000 C 
BRANCH  21  22
ATOM     22  C   UNL     1      -8.371   1.230 129.741  0.00  0.00    +0.000 C 
BRANCH  22  23
ATOM     23  C   UNL     1      -9.069   2.339 130.520  0.00  0.00    +0.000 C 
BRANCH  23  24
ATOM     24  C   UNL     1      -9.658   1.778 131.802  0.00  0.00    +0.000 C 
BRANCH  24  25
ATOM     25  C   UNL     1      -9.354   2.653 133.016  0.00  0.00    +0.000 C 
BRANCH  25  26
ATOM     26  C   UNL     1      -7.889   2.539 133.373  0.00  0.00    +0.000 C 
ATOM     27  O   UNL     1      -7.317   1.484 133.639  0.00  0.00    +0.000 OA
BRANCH  26  28
ATOM     28  O   UNL     1      -7.284   3.758 133.362  0.00  0.00    +0.000 OA
ATOM     29  C   UNL     1      -6.664   4.095 134.607  0.00  0.00    +0.000 C 
ENDBRANCH  26  28
ENDBRANCH  25  26
ENDBRANCH  24  25
ENDBRANCH  23  24
ENDBRANCH  22  23
ENDBRANCH  21  22
ENDBRANCH  20  21
ENDBRANCH   6  20
TORSDOF 16
ENDMDL
MODEL 6
REMARK VINA RESULT:      -6.0      3.474      6.780
REMARK  Name = Misoprostol
REMARK  19 active torsions:
REMARK  status: ('A' for Active; 'I' for Inactive)
REMARK    1  A    between atoms: C_1  and  C_2
REMARK    2  A    between atoms: C_2  and  C_3
REMARK    3  A    between atoms: C_3  and  C_4
REMARK    4  A    between atoms: C_4  and  C_5
REMARK    5  A    between atoms: C_5  and  C_6
REMARK    6  A    between atoms: C_5  and  O_7
REMARK    7  A    between atoms: C_5  and  C_8
REMARK    8  A    between atoms: C_8  and  C_9
REMARK    9  A    between atoms: C_10  and  C_11
REMARK   10  A    between atoms: C_12  and  O_13
REMARK   11  A    between atoms: C_17  and  C_18
REMARK   12  A    between atoms: C_18  and  C_19
REMARK   13  A    between atoms: C_19  and  C_20
REMARK   14  A    between atoms: C_20  and  C_21
REMARK   15  A    between atoms: C_21  and  C_22
REMARK   16  A    between atoms: C_22  and  C_23
REMARK   17  A    between atoms: C_23  and  C_24
REMARK   18  A    between atoms: C_24  and  O_26
REMARK   19  A    between atoms: O_26  and  C_27
REMARK                            x       y       z     vdW  Elec       q    Type
REMARK                         _______ _______ _______ _____ _____    ______ ____
ROOT
ATOM      1  C   UNL     1      -9.290  -1.544 125.274  0.00  0.00    +0.000 C 
ATOM      2  C   UNL     1      -8.890  -2.063 123.866  0.00  0.00    +0.000 C 
ATOM      3  C   UNL     1      -7.403  -2.430 123.915  0.00  0.00    +0.000 C 
ATOM      4  C   UNL     1      -7.050  -2.177 125.356  0.00  0.00    +0.000 C 
ATOM      5  O   UNL     1      -5.903  -2.055 125.769  0.00  0.00    +0.000 OA
ATOM      6  C   UNL     1      -8.271  -2.175 126.238  0.00  0.00    +0.000 C 
ENDROOT
BRANCH   2   7
ATOM      7  O   UNL     1      -9.696  -3.173 123.471  0.00  0.00    +0.000 OA
ATOM      8  H   UNL     1     -10.366  -3.366 124.144  0.00  0.00    +0.000 HD
ENDBRANCH   2   7
BRANCH   1  10
ATOM      9  C   UNL     1      -9.208   0.820 124.467  0.00  0.00    +0.000 C 
ATOM     10  C   UNL     1      -9.267  -0.051 125.475  0.00  0.00    +0.000 C 
BRANCH   9  11
ATOM     11  C   UNL     1      -9.189   2.307 124.618  0.00  0.00    +0.000 C 
BRANCH  11  12
ATOM     12  C   UNL     1      -7.778   2.857 124.321  0.00  0.00    +0.000 C 
ATOM     13  C   UNL     1      -6.767   2.374 125.376  0.00  0.00    +0.000 C 
BRANCH  12  14
ATOM     14  O   UNL     1      -7.861   4.289 124.353  0.00  0.00    +0.000 OA
ATOM     15  H   UNL     1      -7.090   4.666 123.900  0.00  0.00    +0.000 HD
ENDBRANCH  12  14
BRANCH  12  16
ATOM     16  C   UNL     1      -7.357   2.412 122.914  0.00  0.00    +0.000 C 
BRANCH  16  17
ATOM     17  C   UNL     1      -6.652   3.530 122.153  0.00  0.00    +0.000 C 
BRANCH  17  19
ATOM     18  C   UNL     1      -8.716   3.705 120.809  0.00  0.00    +0.000 C 
ATOM     19  C   UNL     1      -7.200   3.687 120.749  0.00  0.00    +0.000 C 
ENDBRANCH  17  19
ENDBRANCH  16  17
ENDBRANCH  12  16
ENDBRANCH  11  12
ENDBRANCH   9  11
ENDBRANCH   1  10
BRANCH   6  20
ATOM     20  C   UNL     1      -8.612  -3.609 126.627  0.00  0.00    +0.000 C 
BRANCH  20  21
ATOM     21  C   UNL     1      -8.858  -3.705 128.125  0.00  0.00    +0.000 C 
BRANCH  21  22
ATOM     22  C   UNL     1      -7.950  -2.760 128.883  0.00  0.00    +0.000 C 
BRANCH  22  23
ATOM     23  C   UNL     1      -6.869  -3.556 129.605  0.00  0.00    +0.000 C 
BRANCH  23  24
ATOM     24  C   UNL     1      -5.496  -3.094 129.148  0.00  0.00    +0.000 C 
BRANCH  24  25
ATOM     25  C   UNL     1      -4.365  -3.836 129.858  0.00  0.00    +0.000 C 
BRANCH  25  26
ATOM     26  C   UNL     1      -3.527  -2.854 130.645  0.00  0.00    +0.000 C 
ATOM     27  O   UNL     1      -2.600  -2.197 130.176  0.00  0.00    +0.000 OA
BRANCH  26  28
ATOM     28  O   UNL     1      -3.931  -2.792 131.943  0.00  0.00    +0.000 OA
ATOM     29  C   UNL     1      -4.173  -4.077 132.525  0.00  0.00    +0.000 C 
ENDBRANCH  26  28
ENDBRANCH  25  26
ENDBRANCH  24  25
ENDBRANCH  23  24
ENDBRANCH  22  23
ENDBRANCH  21  22
ENDBRANCH  20  21
ENDBRANCH   6  20
TORSDOF 16
ENDMDL
MODEL 7
REMARK VINA RESULT:      -6.0      2.439      3.531
REMARK  Name = Misoprostol
REMARK  19 active torsions:
REMARK  status: ('A' for Active; 'I' for Inactive)
REMARK    1  A    between atoms: C_1  and  C_2
REMARK    2  A    between atoms: C_2  and  C_3
REMARK    3  A    between atoms: C_3  and  C_4
REMARK    4  A    between atoms: C_4  and  C_5
REMARK    5  A    between atoms: C_5  and  C_6
REMARK    6  A    between atoms: C_5  and  O_7
REMARK    7  A    between atoms: C_5  and  C_8
REMARK    8  A    between atoms: C_8  and  C_9
REMARK    9  A    between atoms: C_10  and  C_11
REMARK   10  A    between atoms: C_12  and  O_13
REMARK   11  A    between atoms: C_17  and  C_18
REMARK   12  A    between atoms: C_18  and  C_19
REMARK   13  A    between atoms: C_19  and  C_20
REMARK   14  A    between atoms: C_20  and  C_21
REMARK   15  A    between atoms: C_21  and  C_22
REMARK   16  A    between atoms: C_22  and  C_23
REMARK   17  A    between atoms: C_23  and  C_24
REMARK   18  A    between atoms: C_24  and  O_26
REMARK   19  A    between atoms: O_26  and  C_27
REMARK                            x       y       z     vdW  Elec       q    Type
REMARK                         _______ _______ _______ _____ _____    ______ ____
ROOT
ATOM      1  C   UNL     1      -7.739  -2.575 129.607  0.00  0.00    +0.000 C 
ATOM      2  C   UNL     1      -7.110  -3.371 130.783  0.00  0.00    +0.000 C 
ATOM      3  C   UNL     1      -5.610  -3.503 130.501  0.00  0.00    +0.000 C 
ATOM      4  C   UNL     1      -5.445  -2.717 129.228  0.00  0.00    +0.000 C 
ATOM      5  O   UNL     1      -4.471  -2.806 128.490  0.00  0.00    +0.000 OA
ATOM      6  C   UNL     1      -6.582  -1.752 129.017  0.00  0.00    +0.000 C 
ENDROOT
BRANCH   2   7
ATOM      7  O   UNL     1      -7.360  -2.733 132.036  0.00  0.00    +0.000 OA
ATOM      8  H   UNL     1      -7.863  -3.317 132.623  0.00  0.00    +0.000 HD
ENDBRANCH   2   7
BRANCH   1  10
ATOM      9  C   UNL     1      -8.621  -2.887 127.289  0.00  0.00    +0.000 C 
ATOM     10  C   UNL     1      -8.355  -3.386 128.496  0.00  0.00    +0.000 C 
BRANCH   9  11
ATOM     11  C   UNL     1      -9.224  -3.654 126.158  0.00  0.00    +0.000 C 
BRANCH  11  12
ATOM     12  C   UNL     1      -8.865  -2.994 124.810  0.00  0.00    +0.000 C 
ATOM     13  C   UNL     1      -8.719  -1.469 124.967  0.00  0.00    +0.000 C 
BRANCH  12  14
ATOM     14  O   UNL     1      -9.929  -3.284 123.892  0.00  0.00    +0.000 OA
ATOM     15  H   UNL     1     -10.660  -3.704 124.370  0.00  0.00    +0.000 HD
ENDBRANCH  12  14
BRANCH  12  16
ATOM     16  C   UNL     1      -7.566  -3.616 124.282  0.00  0.00    +0.000 C 
BRANCH  16  17
ATOM     17  C   UNL     1      -6.378  -2.675 124.445  0.00  0.00    +0.000 C 
BRANCH  17  19
ATOM     18  C   UNL     1      -4.528  -4.126 123.692  0.00  0.00    +0.000 C 
ATOM     19  C   UNL     1      -5.339  -2.887 123.363  0.00  0.00    +0.000 C 
ENDBRANCH  17  19
ENDBRANCH  16  17
ENDBRANCH  12  16
ENDBRANCH  11  12
ENDBRANCH   9  11
ENDBRANCH   1  10
BRANCH   6  20
ATOM     20  C   UNL     1      -6.298  -0.466 129.786  0.00  0.00    +0.000 C 
BRANCH  20  21
ATOM     21  C   UNL     1      -7.369   0.573 129.489  0.00  0.00    +0.000 C 
BRANCH  21  22
ATOM     22  C   UNL     1      -7.702   0.597 128.012  0.00  0.00    +0.000 C 
BRANCH  22  23
ATOM     23  C   UNL     1      -8.080   2.014 127.594  0.00  0.00    +0.000 C 
BRANCH  23  24
ATOM     24  C   UNL     1      -8.217   2.088 126.084  0.00  0.00    +0.000 C 
BRANCH  24  25
ATOM     25  C   UNL     1      -6.889   1.858 125.366  0.00  0.00    +0.000 C 
BRANCH  25  26
ATOM     26  C   UNL     1      -7.110   1.865 123.870  0.00  0.00    +0.000 C 
ATOM     27  O   UNL     1      -6.908   0.904 123.132  0.00  0.00    +0.000 OA
BRANCH  26  28
ATOM     28  O   UNL     1      -7.561   3.077 123.445  0.00  0.00    +0.000 OA
ATOM     29  C   UNL     1      -8.526   2.986 122.392  0.00  0.00    +0.000 C 
ENDBRANCH  26  28
ENDBRANCH  25  26
ENDBRANCH  24  25
ENDBRANCH  23  24
ENDBRANCH  22  23
ENDBRANCH  21  22
ENDBRANCH  20  21
ENDBRANCH   6  20
TORSDOF 16
ENDMDL
MODEL 8
REMARK VINA RESULT:      -5.9      2.507      5.197
REMARK  Name = Misoprostol
REMARK  19 active torsions:
REMARK  status: ('A' for Active; 'I' for Inactive)
REMARK    1  A    between atoms: C_1  and  C_2
REMARK    2  A    between atoms: C_2  and  C_3
REMARK    3  A    between atoms: C_3  and  C_4
REMARK    4  A    between atoms: C_4  and  C_5
REMARK    5  A    between atoms: C_5  and  C_6
REMARK    6  A    between atoms: C_5  and  O_7
REMARK    7  A    between atoms: C_5  and  C_8
REMARK    8  A    between atoms: C_8  and  C_9
REMARK    9  A    between atoms: C_10  and  C_11
REMARK   10  A    between atoms: C_12  and  O_13
REMARK   11  A    between atoms: C_17  and  C_18
REMARK   12  A    between atoms: C_18  and  C_19
REMARK   13  A    between atoms: C_19  and  C_20
REMARK   14  A    between atoms: C_20  and  C_21
REMARK   15  A    between atoms: C_21  and  C_22
REMARK   16  A    between atoms: C_22  and  C_23
REMARK   17  A    between atoms: C_23  and  C_24
REMARK   18  A    between atoms: C_24  and  O_26
REMARK   19  A    between atoms: O_26  and  C_27
REMARK                            x       y       z     vdW  Elec       q    Type
REMARK                         _______ _______ _______ _____ _____    ______ ____
ROOT
ATOM      1  C   UNL     1      -9.175  -1.628 125.321  0.00  0.00    +0.000 C 
ATOM      2  C   UNL     1      -8.980  -2.278 123.924  0.00  0.00    +0.000 C 
ATOM      3  C   UNL     1      -7.577  -2.892 123.893  0.00  0.00    +0.000 C 
ATOM      4  C   UNL     1      -7.074  -2.633 125.287  0.00  0.00    +0.000 C 
ATOM      5  O   UNL     1      -5.894  -2.690 125.610  0.00  0.00    +0.000 OA
ATOM      6  C   UNL     1      -8.204  -2.377 126.249  0.00  0.00    +0.000 C 
ENDROOT
BRANCH   2   7
ATOM      7  O   UNL     1      -9.991  -3.251 123.656  0.00  0.00    +0.000 OA
ATOM      8  H   UNL     1      -9.747  -3.796 122.893  0.00  0.00    +0.000 HD
ENDBRANCH   2   7
BRANCH   1  10
ATOM      9  C   UNL     1      -8.392   0.418 126.525  0.00  0.00    +0.000 C 
ATOM     10  C   UNL     1      -8.885  -0.153 125.426  0.00  0.00    +0.000 C 
BRANCH   9  11
ATOM     11  C   UNL     1      -8.084   1.872 126.672  0.00  0.00    +0.000 C 
BRANCH  11  12
ATOM     12  C   UNL     1      -6.577   2.078 126.930  0.00  0.00    +0.000 C 
ATOM     13  C   UNL     1      -5.893   0.744 127.283  0.00  0.00    +0.000 C 
BRANCH  12  14
ATOM     14  O   UNL     1      -6.449   2.991 128.029  0.00  0.00    +0.000 OA
ATOM     15  H   UNL     1      -5.699   3.583 127.870  0.00  0.00    +0.000 HD
ENDBRANCH  12  14
BRANCH  12  16
ATOM     16  C   UNL     1      -5.941   2.706 125.682  0.00  0.00    +0.000 C 
BRANCH  16  17
ATOM     17  C   UNL     1      -6.919   3.610 124.941  0.00  0.00    +0.000 C 
BRANCH  17  19
ATOM     18  C   UNL     1      -6.935   1.943 123.121  0.00  0.00    +0.000 C 
ATOM     19  C   UNL     1      -6.833   3.422 123.440  0.00  0.00    +0.000 C 
ENDBRANCH  17  19
ENDBRANCH  16  17
ENDBRANCH  12  16
ENDBRANCH  11  12
ENDBRANCH   9  11
ENDBRANCH   1  10
BRANCH   6  20
ATOM     20  C   UNL     1      -8.749  -3.709 126.750  0.00  0.00    +0.000 C 
BRANCH  20  21
ATOM     21  C   UNL     1      -8.756  -3.738 128.271  0.00  0.00    +0.000 C 
BRANCH  21  22
ATOM     22  C   UNL     1      -7.517  -3.070 128.829  0.00  0.00    +0.000 C 
BRANCH  22  23
ATOM     23  C   UNL     1      -7.845  -2.414 130.165  0.00  0.00    +0.000 C 
BRANCH  23  24
ATOM     24  C   UNL     1      -7.920  -0.907 129.995  0.00  0.00    +0.000 C 
BRANCH  24  25
ATOM     25  C   UNL     1      -7.963  -0.170 131.333  0.00  0.00    +0.000 C 
BRANCH  25  26
ATOM     26  C   UNL     1      -8.872   1.032 131.224  0.00  0.00    +0.000 C 
ATOM     27  O   UNL     1      -9.890   1.198 131.892  0.00  0.00    +0.000 OA
BRANCH  26  28
ATOM     28  O   UNL     1      -8.418   1.910 130.289  0.00  0.00    +0.000 OA
ATOM     29  C   UNL     1      -9.388   2.894 129.915  0.00  0.00    +0.000 C 
ENDBRANCH  26  28
ENDBRANCH  25  26
ENDBRANCH  24  25
ENDBRANCH  23  24
ENDBRANCH  22  23
ENDBRANCH  21  22
ENDBRANCH  20  21
ENDBRANCH   6  20
TORSDOF 16
ENDMDL
MODEL 9
REMARK VINA RESULT:      -5.9      3.175      6.388
REMARK  Name = Misoprostol
REMARK  19 active torsions:
REMARK  status: ('A' for Active; 'I' for Inactive)
REMARK    1  A    between atoms: C_1  and  C_2
REMARK    2  A    between atoms: C_2  and  C_3
REMARK    3  A    between atoms: C_3  and  C_4
REMARK    4  A    between atoms: C_4  and  C_5
REMARK    5  A    between atoms: C_5  and  C_6
REMARK    6  A    between atoms: C_5  and  O_7
REMARK    7  A    between atoms: C_5  and  C_8
REMARK    8  A    between atoms: C_8  and  C_9
REMARK    9  A    between atoms: C_10  and  C_11
REMARK   10  A    between atoms: C_12  and  O_13
REMARK   11  A    between atoms: C_17  and  C_18
REMARK   12  A    between atoms: C_18  and  C_19
REMARK   13  A    between atoms: C_19  and  C_20
REMARK   14  A    between atoms: C_20  and  C_21
REMARK   15  A    between atoms: C_21  and  C_22
REMARK   16  A    between atoms: C_22  and  C_23
REMARK   17  A    between atoms: C_23  and  C_24
REMARK   18  A    between atoms: C_24  and  O_26
REMARK   19  A    between atoms: O_26  and  C_27
REMARK                            x       y       z     vdW  Elec       q    Type
REMARK                         _______ _______ _______ _____ _____    ______ ____
ROOT
ATOM      1  C   UNL     1      -6.074  -1.337 124.290  0.00  0.00    +0.000 C 
ATOM      2  C   UNL     1      -6.508  -2.352 123.198  0.00  0.00    +0.000 C 
ATOM      3  C   UNL     1      -8.039  -2.357 123.155  0.00  0.00    +0.000 C 
ATOM      4  C   UNL     1      -8.400  -1.298 124.161  0.00  0.00    +0.000 C 
ATOM      5  O   UNL     1      -9.512  -1.178 124.661  0.00  0.00    +0.000 OA
ATOM      6  C   UNL     1      -7.252  -0.356 124.414  0.00  0.00    +0.000 C 
ENDROOT
BRANCH   2   7
ATOM      7  O   UNL     1      -5.943  -2.025 121.928  0.00  0.00    +0.000 OA
ATOM      8  H   UNL     1      -6.473  -2.404 121.210  0.00  0.00    +0.000 HD
ENDBRANCH   2   7
BRANCH   1  10
ATOM      9  C   UNL     1      -5.605  -1.138 126.737  0.00  0.00    +0.000 C 
ATOM     10  C   UNL     1      -5.783  -1.899 125.657  0.00  0.00    +0.000 C 
BRANCH   9  11
ATOM     11  C   UNL     1      -5.321  -1.651 128.111  0.00  0.00    +0.000 C 
BRANCH  11  12
ATOM     12  C   UNL     1      -6.420  -1.194 129.093  0.00  0.00    +0.000 C 
ATOM     13  C   UNL     1      -6.465   0.342 129.190  0.00  0.00    +0.000 C 
BRANCH  12  14
ATOM     14  O   UNL     1      -6.106  -1.748 130.378  0.00  0.00    +0.000 OA
ATOM     15  H   UNL     1      -5.270  -1.372 130.695  0.00  0.00    +0.000 HD
ENDBRANCH  12  14
BRANCH  12  16
ATOM     16  C   UNL     1      -7.769  -1.753 128.624  0.00  0.00    +0.000 C 
BRANCH  16  17
ATOM     17  C   UNL     1      -8.134  -3.042 129.354  0.00  0.00    +0.000 C 
BRANCH  17  19
ATOM     18  C   UNL     1      -8.789  -3.551 127.029  0.00  0.00    +0.000 C 
ATOM     19  C   UNL     1      -8.943  -3.975 128.477  0.00  0.00    +0.000 C 
ENDBRANCH  17  19
ENDBRANCH  16  17
ENDBRANCH  12  16
ENDBRANCH  11  12
ENDBRANCH   9  11
ENDBRANCH   1  10
BRANCH   6  20
ATOM     20  C   UNL     1      -7.250   0.733 123.347  0.00  0.00    +0.000 C 
BRANCH  20  21
ATOM     21  C   UNL     1      -7.233   2.108 123.996  0.00  0.00    +0.000 C 
BRANCH  21  22
ATOM     22  C   UNL     1      -7.763   2.044 125.413  0.00  0.00    +0.000 C 
BRANCH  22  23
ATOM     23  C   UNL     1      -6.801   2.758 126.355  0.00  0.00    +0.000 C 
BRANCH  23  24
ATOM     24  C   UNL     1      -5.373   2.573 125.872  0.00  0.00    +0.000 C 
BRANCH  24  25
ATOM     25  C   UNL     1      -4.682   3.902 125.574  0.00  0.00    +0.000 C 
BRANCH  25  26
ATOM     26  C   UNL     1      -4.334   4.598 126.870  0.00  0.00    +0.000 C 
ATOM     27  O   UNL     1      -4.668   5.745 127.156  0.00  0.00    +0.000 OA
BRANCH  26  28
ATOM     28  O   UNL     1      -3.601   3.788 127.682  0.00  0.00    +0.000 OA
ATOM     29  C   UNL     1      -2.201   3.800 127.382  0.00  0.00    +0.000 C 
ENDBRANCH  26  28
ENDBRANCH  25  26
ENDBRANCH  24  25
ENDBRANCH  23  24
ENDBRANCH  22  23
ENDBRANCH  21  22
ENDBRANCH  20  21
ENDBRANCH   6  20
TORSDOF 16
ENDMDL
