MODEL 1
REMARK VINA RESULT:      -9.2      0.000      0.000
REMARK  Name = Mitapivat
REMARK  6 active torsions:
REMARK  status: ('A' for Active; 'I' for Inactive)
REMARK    1  A    between atoms: C_2  and  C_13
REMARK    2  A    between atoms: N_6  and  C_7
REMARK    3  A    between atoms: C_7  and  C_8
REMARK    4  A    between atoms: C_16  and  N_17
REMARK    5  A    between atoms: N_17  and  S_18
REMARK    6  A    between atoms: S_18  and  C_21
REMARK                            x       y       z     vdW  Elec       q    Type
REMARK                         _______ _______ _______ _____ _____    ______ ____
ROOT
ATOM      1  C   UNL     1      -8.171   5.821 130.786  0.00  0.00    +0.000 A 
ATOM      2  C   UNL     1      -7.394   6.914 131.176  0.00  0.00    +0.000 A 
ATOM      3  C   UNL     1      -6.016   6.900 130.945  0.00  0.00    +0.000 A 
ATOM      4  C   UNL     1      -5.382   5.752 130.462  0.00  0.00    +0.000 A 
ATOM      5  C   UNL     1      -6.167   4.637 130.133  0.00  0.00    +0.000 A 
ATOM      6  C   UNL     1      -7.556   4.663 130.316  0.00  0.00    +0.000 A 
ENDROOT
BRANCH   1   8
ATOM      7  O   UNL     1     -10.148   5.089 131.768  0.00  0.00    +0.000 OA
ATOM      8  C   UNL     1      -9.636   5.838 130.940  0.00  0.00    +0.000 C 
ATOM      9  N   UNL     1     -10.359   6.785 130.238  0.00  0.00    +0.000 N 
ATOM     10  C   UNL     1     -10.193   7.228 128.834  0.00  0.00    +0.000 C 
ATOM     11  C   UNL     1     -11.541   7.160 128.041  0.00  0.00    +0.000 C 
ATOM     12  N   UNL     1     -12.678   7.797 128.753  0.00  0.00    +0.000 NA
ATOM     13  C   UNL     1     -12.761   7.101 130.062  0.00  0.00    +0.000 C 
ATOM     14  C   UNL     1     -11.513   7.322 130.911  0.00  0.00    +0.000 C 
BRANCH  12  15
ATOM     15  C   UNL     1     -12.471   9.259 128.858  0.00  0.00    +0.000 C 
BRANCH  15  16
ATOM     16  C   UNL     1     -13.589  10.021 129.522  0.00  0.00    +0.000 C 
ATOM     17  C   UNL     1     -13.335  11.108 130.540  0.00  0.00    +0.000 C 
ATOM     18  C   UNL     1     -13.866  11.468 129.163  0.00  0.00    +0.000 C 
ENDBRANCH  15  16
ENDBRANCH  12  15
ENDBRANCH   1   8
BRANCH   4  19
ATOM     19  N   UNL     1      -3.960   5.830 130.326  0.00  0.00    +0.000 N 
ATOM     20  H   UNL     1      -3.366   5.335 130.982  0.00  0.00    +0.000 HD
BRANCH  19  21
ATOM     21  S   UNL     1      -3.230   6.333 128.934  0.00  0.00    +0.000 S 
ATOM     22  O   UNL     1      -3.891   7.487 128.433  0.00  0.00    +0.000 OA
ATOM     23  O   UNL     1      -1.779   6.409 129.226  0.00  0.00    +0.000 OA
BRANCH  21  24
ATOM     24  C   UNL     1      -3.472   5.030 127.684  0.00  0.00    +0.000 A 
ATOM     25  C   UNL     1      -2.313   4.173 127.808  0.00  0.00    +0.000 A 
ATOM     26  C   UNL     1      -2.145   3.144 126.927  0.00  0.00    +0.000 A 
ATOM     27  C   UNL     1      -3.276   2.781 126.232  0.00  0.00    +0.000 A 
ATOM     28  C   UNL     1      -4.503   3.511 126.324  0.00  0.00    +0.000 A 
ATOM     29  C   UNL     1      -4.633   4.831 126.658  0.00  0.00    +0.000 A 
ATOM     30  N   UNL     1      -5.892   5.334 125.805  0.00  0.00    +0.000 NA
ATOM     31  C   UNL     1      -6.926   4.474 125.491  0.00  0.00    +0.000 A 
ATOM     32  C   UNL     1      -6.875   3.533 126.401  0.00  0.00    +0.000 A 
ATOM     33  C   UNL     1      -5.709   2.879 126.039  0.00  0.00    +0.000 A 
ENDBRANCH  21  24
ENDBRANCH  19  21
ENDBRANCH   4  19
TORSDOF 6
ENDMDL
MODEL 2
REMARK VINA RESULT:      -8.9      3.940      9.032
REMARK  Name = Mitapivat
REMARK  6 active torsions:
REMARK  status: ('A' for Active; 'I' for Inactive)
REMARK    1  A    between atoms: C_2  and  C_13
REMARK    2  A    between atoms: N_6  and  C_7
REMARK    3  A    between atoms: C_7  and  C_8
REMARK    4  A    between atoms: C_16  and  N_17
REMARK    5  A    between atoms: N_17  and  S_18
REMARK    6  A    between atoms: S_18  and  C_21
REMARK                            x       y       z     vdW  Elec       q    Type
REMARK                         _______ _______ _______ _____ _____    ______ ____
ROOT
ATOM      1  C   UNL     1      -8.044   2.565 127.522  0.00  0.00    +0.000 A 
ATOM      2  C   UNL     1      -8.721   2.284 128.711  0.00  0.00    +0.000 A 
ATOM      3  C   UNL     1      -8.436   3.026 129.860  0.00  0.00    +0.000 A 
ATOM      4  C   UNL     1      -7.384   3.945 129.877  0.00  0.00    +0.000 A 
ATOM      5  C   UNL     1      -6.669   4.173 128.692  0.00  0.00    +0.000 A 
ATOM      6  C   UNL     1      -6.984   3.468 127.522  0.00  0.00    +0.000 A 
ENDROOT
BRANCH   1   8
ATOM      7  O   UNL     1      -8.989   2.470 125.399  0.00  0.00    +0.000 OA
ATOM      8  C   UNL     1      -8.380   1.858 126.273  0.00  0.00    +0.000 C 
ATOM      9  N   UNL     1      -7.887   0.580 126.090  0.00  0.00    +0.000 N 
ATOM     10  C   UNL     1      -7.808  -0.535 127.062  0.00  0.00    +0.000 C 
ATOM     11  C   UNL     1      -8.445  -1.847 126.492  0.00  0.00    +0.000 C 
ATOM     12  N   UNL     1      -7.970  -2.190 125.128  0.00  0.00    +0.000 NA
ATOM     13  C   UNL     1      -8.285  -1.004 124.292  0.00  0.00    +0.000 C 
ATOM     14  C   UNL     1      -7.518   0.236 124.741  0.00  0.00    +0.000 C 
BRANCH  12  15
ATOM     15  C   UNL     1      -6.534  -2.547 125.153  0.00  0.00    +0.000 C 
BRANCH  15  16
ATOM     16  C   UNL     1      -6.060  -3.391 123.997  0.00  0.00    +0.000 C 
ATOM     17  C   UNL     1      -4.996  -2.920 123.034  0.00  0.00    +0.000 C 
ATOM     18  C   UNL     1      -4.688  -4.037 124.015  0.00  0.00    +0.000 C 
ENDBRANCH  15  16
ENDBRANCH  12  15
ENDBRANCH   1   8
BRANCH   4  19
ATOM     19  N   UNL     1      -7.140   4.599 131.127  0.00  0.00    +0.000 N 
ATOM     20  H   UNL     1      -6.452   4.218 131.766  0.00  0.00    +0.000 HD
BRANCH  19  21
ATOM     21  S   UNL     1      -7.606   6.155 131.416  0.00  0.00    +0.000 S 
ATOM     22  O   UNL     1      -7.610   6.406 132.814  0.00  0.00    +0.000 OA
ATOM     23  O   UNL     1      -6.772   7.011 130.537  0.00  0.00    +0.000 OA
BRANCH  21  24
ATOM     24  C   UNL     1      -9.334   6.324 130.868  0.00  0.00    +0.000 A 
ATOM     25  C   UNL     1     -10.119   6.278 132.082  0.00  0.00    +0.000 A 
ATOM     26  C   UNL     1     -11.481   6.280 132.000  0.00  0.00    +0.000 A 
ATOM     27  C   UNL     1     -11.991   6.701 130.793  0.00  0.00    +0.000 A 
ATOM     28  C   UNL     1     -11.160   6.987 129.664  0.00  0.00    +0.000 A 
ATOM     29  C   UNL     1      -9.917   6.469 129.426  0.00  0.00    +0.000 A 
ATOM     30  N   UNL     1      -9.837   6.350 127.830  0.00  0.00    +0.000 NA
ATOM     31  C   UNL     1     -10.512   7.240 127.017  0.00  0.00    +0.000 A 
ATOM     32  C   UNL     1     -10.684   8.310 127.752  0.00  0.00    +0.000 A 
ATOM     33  C   UNL     1     -11.612   7.851 128.672  0.00  0.00    +0.000 A 
ENDBRANCH  21  24
ENDBRANCH  19  21
ENDBRANCH   4  19
TORSDOF 6
ENDMDL
MODEL 3
REMARK VINA RESULT:      -8.6      4.849      9.350
REMARK  Name = Mitapivat
REMARK  6 active torsions:
REMARK  status: ('A' for Active; 'I' for Inactive)
REMARK    1  A    between atoms: C_2  and  C_13
REMARK    2  A    between atoms: N_6  and  C_7
REMARK    3  A    between atoms: C_7  and  C_8
REMARK    4  A    between atoms: C_16  and  N_17
REMARK    5  A    between atoms: N_17  and  S_18
REMARK    6  A    between atoms: S_18  and  C_21
REMARK                            x       y       z     vdW  Elec       q    Type
REMARK                         _______ _______ _______ _____ _____    ______ ____
ROOT
ATOM      1  C   UNL     1      -8.294   0.330 131.845  0.00  0.00    +0.000 A 
ATOM      2  C   UNL     1      -9.644   0.643 131.670  0.00  0.00    +0.000 A 
ATOM      3  C   UNL     1     -10.087   1.947 131.905  0.00  0.00    +0.000 A 
ATOM      4  C   UNL     1      -9.232   2.907 132.452  0.00  0.00    +0.000 A 
ATOM      5  C   UNL     1      -7.892   2.562 132.683  0.00  0.00    +0.000 A 
ATOM      6  C   UNL     1      -7.429   1.270 132.401  0.00  0.00    +0.000 A 
ENDROOT
BRANCH   1   8
ATOM      7  O   UNL     1      -7.391  -1.726 132.448  0.00  0.00    +0.000 OA
ATOM      8  C   UNL     1      -7.779  -1.013 131.526  0.00  0.00    +0.000 C 
ATOM      9  N   UNL     1      -7.871  -1.458 130.221  0.00  0.00    +0.000 N 
ATOM     10  C   UNL     1      -7.601  -0.720 128.965  0.00  0.00    +0.000 C 
ATOM     11  C   UNL     1      -6.609  -1.498 128.037  0.00  0.00    +0.000 C 
ATOM     12  N   UNL     1      -6.977  -2.923 127.841  0.00  0.00    +0.000 NA
ATOM     13  C   UNL     1      -7.041  -3.504 129.206  0.00  0.00    +0.000 C 
ATOM     14  C   UNL     1      -8.137  -2.864 130.053  0.00  0.00    +0.000 C 
BRANCH  12  15
ATOM     15  C   UNL     1      -8.242  -3.032 127.079  0.00  0.00    +0.000 C 
BRANCH  15  16
ATOM     16  C   UNL     1      -8.142  -2.691 125.614  0.00  0.00    +0.000 C 
ATOM     17  C   UNL     1      -7.748  -3.709 124.571  0.00  0.00    +0.000 C 
ATOM     18  C   UNL     1      -9.176  -3.193 124.625  0.00  0.00    +0.000 C 
ENDBRANCH  15  16
ENDBRANCH  12  15
ENDBRANCH   1   8
BRANCH   4  19
ATOM     19  N   UNL     1      -9.811   4.189 132.713  0.00  0.00    +0.000 N 
ATOM     20  H   UNL     1     -10.395   4.319 133.531  0.00  0.00    +0.000 HD
BRANCH  19  21
ATOM     21  S   UNL     1      -9.259   5.571 131.998  0.00  0.00    +0.000 S 
ATOM     22  O   UNL     1      -8.876   6.509 132.994  0.00  0.00    +0.000 OA
ATOM     23  O   UNL     1      -8.257   5.149 130.990  0.00  0.00    +0.000 OA
BRANCH  21  24
ATOM     24  C   UNL     1     -10.655   6.324 131.104  0.00  0.00    +0.000 A 
ATOM     25  C   UNL     1     -11.628   6.641 132.126  0.00  0.00    +0.000 A 
ATOM     26  C   UNL     1     -12.846   7.134 131.761  0.00  0.00    +0.000 A 
ATOM     27  C   UNL     1     -12.912   7.638 130.481  0.00  0.00    +0.000 A 
ATOM     28  C   UNL     1     -11.825   7.532 129.557  0.00  0.00    +0.000 A 
ATOM     29  C   UNL     1     -10.841   6.583 129.575  0.00  0.00    +0.000 A 
ATOM     30  N   UNL     1     -10.491   6.346 128.029  0.00  0.00    +0.000 NA
ATOM     31  C   UNL     1     -10.612   7.369 127.109  0.00  0.00    +0.000 A 
ATOM     32  C   UNL     1     -10.521   8.471 127.811  0.00  0.00    +0.000 A 
ATOM     33  C   UNL     1     -11.717   8.439 128.509  0.00  0.00    +0.000 A 
ENDBRANCH  21  24
ENDBRANCH  19  21
ENDBRANCH   4  19
TORSDOF 6
ENDMDL
MODEL 4
REMARK VINA RESULT:      -8.5      5.085      6.061
REMARK  Name = Mitapivat
REMARK  6 active torsions:
REMARK  status: ('A' for Active; 'I' for Inactive)
REMARK    1  A    between atoms: C_2  and  C_13
REMARK    2  A    between atoms: N_6  and  C_7
REMARK    3  A    between atoms: C_7  and  C_8
REMARK    4  A    between atoms: C_16  and  N_17
REMARK    5  A    between atoms: N_17  and  S_18
REMARK    6  A    between atoms: S_18  and  C_21
REMARK                            x       y       z     vdW  Elec       q    Type
REMARK                         _______ _______ _______ _____ _____    ______ ____
ROOT
ATOM      1  C   UNL     1      -8.603   2.083 132.288  0.00  0.00    +0.000 A 
ATOM      2  C   UNL     1      -9.332   0.989 131.815  0.00  0.00    +0.000 A 
ATOM      3  C   UNL     1      -8.664  -0.187 131.462  0.00  0.00    +0.000 A 
ATOM      4  C   UNL     1      -7.268  -0.237 131.437  0.00  0.00    +0.000 A 
ATOM      5  C   UNL     1      -6.545   0.890 131.855  0.00  0.00    +0.000 A 
ATOM      6  C   UNL     1      -7.211   2.055 132.258  0.00  0.00    +0.000 A 
ENDROOT
BRANCH   1   8
ATOM      7  O   UNL     1      -9.482   3.451 133.950  0.00  0.00    +0.000 OA
ATOM      8  C   UNL     1      -9.284   3.306 132.746  0.00  0.00    +0.000 C 
ATOM      9  N   UNL     1      -9.556   4.292 131.817  0.00  0.00    +0.000 N 
ATOM     10  C   UNL     1     -10.075   4.152 130.436  0.00  0.00    +0.000 C 
ATOM     11  C   UNL     1     -11.324   5.062 130.190  0.00  0.00    +0.000 C 
ATOM     12  N   UNL     1     -11.128   6.467 130.629  0.00  0.00    +0.000 NA
ATOM     13  C   UNL     1     -10.769   6.382 132.068  0.00  0.00    +0.000 C 
ATOM     14  C   UNL     1      -9.450   5.649 132.290  0.00  0.00    +0.000 C 
BRANCH  12  15
ATOM     15  C   UNL     1     -10.107   7.135 129.791  0.00  0.00    +0.000 C 
BRANCH  15  16
ATOM     16  C   UNL     1     -10.617   8.263 128.931  0.00  0.00    +0.000 C 
ATOM     17  C   UNL     1     -10.864   8.103 127.450  0.00  0.00    +0.000 C 
ATOM     18  C   UNL     1     -12.037   8.257 128.402  0.00  0.00    +0.000 C 
ENDBRANCH  15  16
ENDBRANCH  12  15
ENDBRANCH   1   8
BRANCH   4  19
ATOM     19  N   UNL     1      -6.692  -1.471 130.997  0.00  0.00    +0.000 N 
ATOM     20  H   UNL     1      -6.984  -2.342 131.425  0.00  0.00    +0.000 HD
BRANCH  19  21
ATOM     21  S   UNL     1      -5.888  -1.610 129.563  0.00  0.00    +0.000 S 
ATOM     22  O   UNL     1      -5.553  -0.319 129.070  0.00  0.00    +0.000 OA
ATOM     23  O   UNL     1      -4.802  -2.595 129.785  0.00  0.00    +0.000 OA
BRANCH  21  24
ATOM     24  C   UNL     1      -7.042  -2.328 128.351  0.00  0.00    +0.000 A 
ATOM     25  C   UNL     1      -7.909  -3.190 129.125  0.00  0.00    +0.000 A 
ATOM     26  C   UNL     1      -8.834  -3.960 128.482  0.00  0.00    +0.000 A 
ATOM     27  C   UNL     1      -9.116  -3.576 127.190  0.00  0.00    +0.000 A 
ATOM     28  C   UNL     1      -8.400  -2.532 126.525  0.00  0.00    +0.000 A 
ATOM     29  C   UNL     1      -7.126  -2.123 126.805  0.00  0.00    +0.000 A 
ATOM     30  N   UNL     1      -6.530  -1.681 125.385  0.00  0.00    +0.000 NA
ATOM     31  C   UNL     1      -7.349  -1.160 124.402  0.00  0.00    +0.000 A 
ATOM     32  C   UNL     1      -8.386  -0.679 125.042  0.00  0.00    +0.000 A 
ATOM     33  C   UNL     1      -8.996  -1.846 125.472  0.00  0.00    +0.000 A 
ENDBRANCH  21  24
ENDBRANCH  19  21
ENDBRANCH   4  19
TORSDOF 6
ENDMDL
MODEL 5
REMARK VINA RESULT:      -8.2      4.084      8.974
REMARK  Name = Mitapivat
REMARK  6 active torsions:
REMARK  status: ('A' for Active; 'I' for Inactive)
REMARK    1  A    between atoms: C_2  and  C_13
REMARK    2  A    between atoms: N_6  and  C_7
REMARK    3  A    between atoms: C_7  and  C_8
REMARK    4  A    between atoms: C_16  and  N_17
REMARK    5  A    between atoms: N_17  and  S_18
REMARK    6  A    between atoms: S_18  and  C_21
REMARK                            x       y       z     vdW  Elec       q    Type
REMARK                         _______ _______ _______ _____ _____    ______ ____
ROOT
ATOM      1  C   UNL     1      -7.706   2.037 128.738  0.00  0.00    +0.000 A 
ATOM      2  C   UNL     1      -8.919   2.404 129.325  0.00  0.00    +0.000 A 
ATOM      3  C   UNL     1      -8.978   2.637 130.702  0.00  0.00    +0.000 A 
ATOM      4  C   UNL     1      -7.879   2.369 131.522  0.00  0.00    +0.000 A 
ATOM      5  C   UNL     1      -6.683   1.940 130.927  0.00  0.00    +0.000 A 
ATOM      6  C   UNL     1      -6.604   1.753 129.541  0.00  0.00    +0.000 A 
ENDROOT
BRANCH   1   8
ATOM      7  O   UNL     1      -7.547   2.868 126.573  0.00  0.00    +0.000 OA
ATOM      8  C   UNL     1      -7.591   1.864 127.280  0.00  0.00    +0.000 C 
ATOM      9  N   UNL     1      -7.410   0.588 126.782  0.00  0.00    +0.000 N 
ATOM     10  C   UNL     1      -8.076  -0.672 127.188  0.00  0.00    +0.000 C 
ATOM     11  C   UNL     1      -8.685  -1.427 125.960  0.00  0.00    +0.000 C 
ATOM     12  N   UNL     1      -7.737  -1.576 124.827  0.00  0.00    +0.000 NA
ATOM     13  C   UNL     1      -7.316  -0.194 124.484  0.00  0.00    +0.000 C 
ATOM     14  C   UNL     1      -6.559   0.478 125.625  0.00  0.00    +0.000 C 
BRANCH  12  15
ATOM     15  C   UNL     1      -6.619  -2.471 125.200  0.00  0.00    +0.000 C 
BRANCH  15  16
ATOM     16  C   UNL     1      -6.100  -3.350 124.091  0.00  0.00    +0.000 C 
ATOM     17  C   UNL     1      -5.006  -2.904 123.149  0.00  0.00    +0.000 C 
ATOM     18  C   UNL     1      -4.726  -3.986 124.178  0.00  0.00    +0.000 C 
ENDBRANCH  15  16
ENDBRANCH  12  15
ENDBRANCH   1   8
BRANCH   4  19
ATOM     19  N   UNL     1      -8.074   2.582 132.923  0.00  0.00    +0.000 N 
ATOM     20  H   UNL     1      -8.272   1.793 133.527  0.00  0.00    +0.000 HD
BRANCH  19  21
ATOM     21  S   UNL     1      -7.593   3.966 133.683  0.00  0.00    +0.000 S 
ATOM     22  O   UNL     1      -8.395   4.188 134.835  0.00  0.00    +0.000 OA
ATOM     23  O   UNL     1      -6.122   3.866 133.844  0.00  0.00    +0.000 OA
BRANCH  21  24
ATOM     24  C   UNL     1      -7.930   5.358 132.558  0.00  0.00    +0.000 A 
ATOM     25  C   UNL     1      -6.635   5.741 132.038  0.00  0.00    +0.000 A 
ATOM     26  C   UNL     1      -6.536   6.836 131.231  0.00  0.00    +0.000 A 
ATOM     27  C   UNL     1      -7.723   7.264 130.679  0.00  0.00    +0.000 A 
ATOM     28  C   UNL     1      -8.985   6.688 131.029  0.00  0.00    +0.000 A 
ATOM     29  C   UNL     1      -9.283   6.052 132.202  0.00  0.00    +0.000 A 
ATOM     30  N   UNL     1     -10.824   6.404 132.463  0.00  0.00    +0.000 NA
ATOM     31  C   UNL     1     -11.694   6.608 131.409  0.00  0.00    +0.000 A 
ATOM     32  C   UNL     1     -11.158   5.973 130.396  0.00  0.00    +0.000 A 
ATOM     33  C   UNL     1     -10.053   6.769 130.142  0.00  0.00    +0.000 A 
ENDBRANCH  21  24
ENDBRANCH  19  21
ENDBRANCH   4  19
TORSDOF 6
ENDMDL
MODEL 6
REMARK VINA RESULT:      -8.1      4.624      7.958
REMARK  Name = Mitapivat
REMARK  6 active torsions:
REMARK  status: ('A' for Active; 'I' for Inactive)
REMARK    1  A    between atoms: C_2  and  C_13
REMARK    2  A    between atoms: N_6  and  C_7
REMARK    3  A    between atoms: C_7  and  C_8
REMARK    4  A    between atoms: C_16  and  N_17
REMARK    5  A    between atoms: N_17  and  S_18
REMARK    6  A    between atoms: S_18  and  C_21
REMARK                            x       y       z     vdW  Elec       q    Type
REMARK                         _______ _______ _______ _____ _____    ______ ____
ROOT
ATOM      1  C   UNL     1      -6.755   3.630 126.203  0.00  0.00    +0.000 A 
ATOM      2  C   UNL     1      -6.773   3.718 127.597  0.00  0.00    +0.000 A 
ATOM      3  C   UNL     1      -5.626   4.131 128.279  0.00  0.00    +0.000 A 
ATOM      4  C   UNL     1      -4.418   4.317 127.602  0.00  0.00    +0.000 A 
ATOM      5  C   UNL     1      -4.396   4.164 126.208  0.00  0.00    +0.000 A 
ATOM      6  C   UNL     1      -5.557   3.799 125.513  0.00  0.00    +0.000 A 
ENDROOT
BRANCH   1   8
ATOM      7  O   UNL     1      -8.805   4.157 125.241  0.00  0.00    +0.000 OA
ATOM      8  C   UNL     1      -7.970   3.279 125.449  0.00  0.00    +0.000 C 
ATOM      9  N   UNL     1      -8.061   2.013 124.903  0.00  0.00    +0.000 N 
ATOM     10  C   UNL     1      -7.686   0.711 125.503  0.00  0.00    +0.000 C 
ATOM     11  C   UNL     1      -8.855  -0.326 125.416  0.00  0.00    +0.000 C 
ATOM     12  N   UNL     1      -9.455  -0.428 124.062  0.00  0.00    +0.000 NA
ATOM     13  C   UNL     1      -9.899   0.948 123.724  0.00  0.00    +0.000 C 
ATOM     14  C   UNL     1      -8.729   1.923 123.630  0.00  0.00    +0.000 C 
BRANCH  12  15
ATOM     15  C   UNL     1      -8.481  -1.000 123.105  0.00  0.00    +0.000 C 
BRANCH  15  16
ATOM     16  C   UNL     1      -8.484  -2.504 123.006  0.00  0.00    +0.000 C 
ATOM     17  C   UNL     1      -8.361  -3.396 124.219  0.00  0.00    +0.000 C 
ATOM     18  C   UNL     1      -9.679  -3.314 123.468  0.00  0.00    +0.000 C 
ENDBRANCH  15  16
ENDBRANCH  12  15
ENDBRANCH   1   8
BRANCH   4  19
ATOM     19  N   UNL     1      -3.293   4.675 128.411  0.00  0.00    +0.000 N 
ATOM     20  H   UNL     1      -2.491   4.057 128.456  0.00  0.00    +0.000 HD
BRANCH  19  21
ATOM     21  S   UNL     1      -3.044   6.215 128.947  0.00  0.00    +0.000 S 
ATOM     22  O   UNL     1      -1.668   6.551 128.828  0.00  0.00    +0.000 OA
ATOM     23  O   UNL     1      -4.050   7.064 128.265  0.00  0.00    +0.000 OA
BRANCH  21  24
ATOM     24  C   UNL     1      -3.418   6.246 130.729  0.00  0.00    +0.000 A 
ATOM     25  C   UNL     1      -2.626   7.333 131.260  0.00  0.00    +0.000 A 
ATOM     26  C   UNL     1      -2.609   7.554 132.607  0.00  0.00    +0.000 A 
ATOM     27  C   UNL     1      -3.635   6.961 133.308  0.00  0.00    +0.000 A 
ATOM     28  C   UNL     1      -4.571   6.071 132.694  0.00  0.00    +0.000 A 
ATOM     29  C   UNL     1      -4.355   5.322 131.571  0.00  0.00    +0.000 A 
ATOM     30  N   UNL     1      -5.204   3.985 131.817  0.00  0.00    +0.000 NA
ATOM     31  C   UNL     1      -6.367   4.010 132.561  0.00  0.00    +0.000 A 
ATOM     32  C   UNL     1      -6.789   5.248 132.494  0.00  0.00    +0.000 A 
ATOM     33  C   UNL     1      -5.831   5.894 133.258  0.00  0.00    +0.000 A 
ENDBRANCH  21  24
ENDBRANCH  19  21
ENDBRANCH   4  19
TORSDOF 6
ENDMDL
MODEL 7
REMARK VINA RESULT:      -8.0      5.089      6.076
REMARK  Name = Mitapivat
REMARK  6 active torsions:
REMARK  status: ('A' for Active; 'I' for Inactive)
REMARK    1  A    between atoms: C_2  and  C_13
REMARK    2  A    between atoms: N_6  and  C_7
REMARK    3  A    between atoms: C_7  and  C_8
REMARK    4  A    between atoms: C_16  and  N_17
REMARK    5  A    between atoms: N_17  and  S_18
REMARK    6  A    between atoms: S_18  and  C_21
REMARK                            x       y       z     vdW  Elec       q    Type
REMARK                         _______ _______ _______ _____ _____    ______ ____
ROOT
ATOM      1  C   UNL     1      -8.182   2.257 131.145  0.00  0.00    +0.000 A 
ATOM      2  C   UNL     1      -7.868   1.833 129.851  0.00  0.00    +0.000 A 
ATOM      3  C   UNL     1      -7.915   0.472 129.539  0.00  0.00    +0.000 A 
ATOM      4  C   UNL     1      -8.130  -0.484 130.535  0.00  0.00    +0.000 A 
ATOM      5  C   UNL     1      -8.382  -0.049 131.844  0.00  0.00    +0.000 A 
ATOM      6  C   UNL     1      -8.386   1.318 132.153  0.00  0.00    +0.000 A 
ENDROOT
BRANCH   1   8
ATOM      7  O   UNL     1      -7.443   4.113 132.334  0.00  0.00    +0.000 OA
ATOM      8  C   UNL     1      -8.223   3.690 131.484  0.00  0.00    +0.000 C 
ATOM      9  N   UNL     1      -9.046   4.517 130.745  0.00  0.00    +0.000 N 
ATOM     10  C   UNL     1     -10.431   4.274 130.277  0.00  0.00    +0.000 C 
ATOM     11  C   UNL     1     -11.391   5.445 130.674  0.00  0.00    +0.000 C 
ATOM     12  N   UNL     1     -10.858   6.788 130.332  0.00  0.00    +0.000 NA
ATOM     13  C   UNL     1      -9.547   6.878 131.024  0.00  0.00    +0.000 C 
ATOM     14  C   UNL     1      -8.550   5.847 130.503  0.00  0.00    +0.000 C 
BRANCH  12  15
ATOM     15  C   UNL     1     -10.778   6.956 128.863  0.00  0.00    +0.000 C 
BRANCH  15  16
ATOM     16  C   UNL     1     -11.771   7.924 128.271  0.00  0.00    +0.000 C 
ATOM     17  C   UNL     1     -13.263   7.746 128.423  0.00  0.00    +0.000 C 
ATOM     18  C   UNL     1     -12.555   8.874 129.154  0.00  0.00    +0.000 C 
ENDBRANCH  15  16
ENDBRANCH  12  15
ENDBRANCH   1   8
BRANCH   4  19
ATOM     19  N   UNL     1      -8.092  -1.851 130.113  0.00  0.00    +0.000 N 
ATOM     20  H   UNL     1      -8.958  -2.361 129.988  0.00  0.00    +0.000 HD
BRANCH  19  21
ATOM     21  S   UNL     1      -6.754  -2.526 129.420  0.00  0.00    +0.000 S 
ATOM     22  O   UNL     1      -5.580  -1.977 130.003  0.00  0.00    +0.000 OA
ATOM     23  O   UNL     1      -6.956  -3.994 129.465  0.00  0.00    +0.000 OA
BRANCH  21  24
ATOM     24  C   UNL     1      -6.729  -2.027 127.669  0.00  0.00    +0.000 A 
ATOM     25  C   UNL     1      -5.496  -1.289 127.507  0.00  0.00    +0.000 A 
ATOM     26  C   UNL     1      -5.227  -0.688 126.312  0.00  0.00    +0.000 A 
ATOM     27  C   UNL     1      -5.973  -1.145 125.249  0.00  0.00    +0.000 A 
ATOM     28  C   UNL     1      -7.042  -2.083 125.407  0.00  0.00    +0.000 A 
ATOM     29  C   UNL     1      -7.779  -2.283 126.541  0.00  0.00    +0.000 A 
ATOM     30  N   UNL     1      -9.239  -2.665 126.003  0.00  0.00    +0.000 NA
ATOM     31  C   UNL     1      -9.402  -3.332 124.804  0.00  0.00    +0.000 A 
ATOM     32  C   UNL     1      -8.265  -3.951 124.601  0.00  0.00    +0.000 A 
ATOM     33  C   UNL     1      -7.427  -2.881 124.334  0.00  0.00    +0.000 A 
ENDBRANCH  21  24
ENDBRANCH  19  21
ENDBRANCH   4  19
TORSDOF 6
ENDMDL
MODEL 8
REMARK VINA RESULT:      -8.0      4.637      7.317
REMARK  Name = Mitapivat
REMARK  6 active torsions:
REMARK  status: ('A' for Active; 'I' for Inactive)
REMARK    1  A    between atoms: C_2  and  C_13
REMARK    2  A    between atoms: N_6  and  C_7
REMARK    3  A    between atoms: C_7  and  C_8
REMARK    4  A    between atoms: C_16  and  N_17
REMARK    5  A    between atoms: N_17  and  S_18
REMARK    6  A    between atoms: S_18  and  C_21
REMARK                            x       y       z     vdW  Elec       q    Type
REMARK                         _______ _______ _______ _____ _____    ______ ____
ROOT
ATOM      1  C   UNL     1      -6.493   1.457 129.705  0.00  0.00    +0.000 A 
ATOM      2  C   UNL     1      -7.240   2.597 129.398  0.00  0.00    +0.000 A 
ATOM      3  C   UNL     1      -6.678   3.862 129.584  0.00  0.00    +0.000 A 
ATOM      4  C   UNL     1      -5.437   4.010 130.206  0.00  0.00    +0.000 A 
ATOM      5  C   UNL     1      -4.722   2.859 130.568  0.00  0.00    +0.000 A 
ATOM      6  C   UNL     1      -5.259   1.585 130.337  0.00  0.00    +0.000 A 
ENDROOT
BRANCH   1   8
ATOM      7  O   UNL     1      -7.599  -0.482 130.355  0.00  0.00    +0.000 OA
ATOM      8  C   UNL     1      -7.025   0.108 129.443  0.00  0.00    +0.000 C 
ATOM      9  N   UNL     1      -6.966  -0.381 128.152  0.00  0.00    +0.000 N 
ATOM     10  C   UNL     1      -5.856  -0.295 127.174  0.00  0.00    +0.000 C 
ATOM     11  C   UNL     1      -5.489  -1.699 126.588  0.00  0.00    +0.000 C 
ATOM     12  N   UNL     1      -6.666  -2.466 126.109  0.00  0.00    +0.000 NA
ATOM     13  C   UNL     1      -7.572  -2.567 127.281  0.00  0.00    +0.000 C 
ATOM     14  C   UNL     1      -8.076  -1.201 127.739  0.00  0.00    +0.000 C 
BRANCH  12  15
ATOM     15  C   UNL     1      -7.274  -1.805 124.932  0.00  0.00    +0.000 C 
BRANCH  15  16
ATOM     16  C   UNL     1      -7.844  -2.736 123.893  0.00  0.00    +0.000 C 
ATOM     17  C   UNL     1      -9.204  -3.377 124.041  0.00  0.00    +0.000 C 
ATOM     18  C   UNL     1      -8.984  -2.297 122.995  0.00  0.00    +0.000 C 
ENDBRANCH  15  16
ENDBRANCH  12  15
ENDBRANCH   1   8
BRANCH   4  19
ATOM     19  N   UNL     1      -4.989   5.355 130.404  0.00  0.00    +0.000 N 
ATOM     20  H   UNL     1      -5.122   5.801 131.304  0.00  0.00    +0.000 HD
BRANCH  19  21
ATOM     21  S   UNL     1      -3.905   6.084 129.395  0.00  0.00    +0.000 S 
ATOM     22  O   UNL     1      -4.414   7.339 128.965  0.00  0.00    +0.000 OA
ATOM     23  O   UNL     1      -2.594   6.042 130.088  0.00  0.00    +0.000 OA
BRANCH  21  24
ATOM     24  C   UNL     1      -3.767   5.055 127.899  0.00  0.00    +0.000 A 
ATOM     25  C   UNL     1      -2.508   4.358 128.037  0.00  0.00    +0.000 A 
ATOM     26  C   UNL     1      -2.062   3.571 127.015  0.00  0.00    +0.000 A 
ATOM     27  C   UNL     1      -3.021   3.213 126.094  0.00  0.00    +0.000 A 
ATOM     28  C   UNL     1      -4.353   3.733 126.130  0.00  0.00    +0.000 A 
ATOM     29  C   UNL     1      -4.740   4.921 126.684  0.00  0.00    +0.000 A 
ATOM     30  N   UNL     1      -5.948   5.417 125.754  0.00  0.00    +0.000 NA
ATOM     31  C   UNL     1      -6.778   4.510 125.125  0.00  0.00    +0.000 A 
ATOM     32  C   UNL     1      -6.687   3.414 125.835  0.00  0.00    +0.000 A 
ATOM     33  C   UNL     1      -5.392   3.017 125.544  0.00  0.00    +0.000 A 
ENDBRANCH  21  24
ENDBRANCH  19  21
ENDBRANCH   4  19
TORSDOF 6
ENDMDL
MODEL 9
REMARK VINA RESULT:      -7.9      4.182      8.836
REMARK  Name = Mitapivat
REMARK  6 active torsions:
REMARK  status: ('A' for Active; 'I' for Inactive)
REMARK    1  A    between atoms: C_2  and  C_13
REMARK    2  A    between atoms: N_6  and  C_7
REMARK    3  A    between atoms: C_7  and  C_8
REMARK    4  A    between atoms: C_16  and  N_17
REMARK    5  A    between atoms: N_17  and  S_18
REMARK    6  A    between atoms: S_18  and  C_21
REMARK                            x       y       z     vdW  Elec       q    Type
REMARK                         _______ _______ _______ _____ _____    ______ ____
ROOT
ATOM      1  C   UNL     1      -7.529   1.985 129.623  0.00  0.00    +0.000 A 
ATOM      2  C   UNL     1      -8.676   1.959 130.419  0.00  0.00    +0.000 A 
ATOM      3  C   UNL     1      -9.547   3.052 130.413  0.00  0.00    +0.000 A 
ATOM      4  C   UNL     1      -9.215   4.228 129.736  0.00  0.00    +0.000 A 
ATOM      5  C   UNL     1      -8.028   4.264 128.989  0.00  0.00    +0.000 A 
ATOM      6  C   UNL     1      -7.175   3.153 128.951  0.00  0.00    +0.000 A 
ENDROOT
BRANCH   1   8
ATOM      7  O   UNL     1      -5.990   0.503 130.541  0.00  0.00    +0.000 OA
ATOM      8  C   UNL     1      -6.634   0.817 129.543  0.00  0.00    +0.000 C 
ATOM      9  N   UNL     1      -6.654   0.052 128.392  0.00  0.00    +0.000 N 
ATOM     10  C   UNL     1      -6.702   0.498 126.980  0.00  0.00    +0.000 C 
ATOM     11  C   UNL     1      -5.569  -0.161 126.125  0.00  0.00    +0.000 C 
ATOM     12  N   UNL     1      -5.478  -1.633 126.298  0.00  0.00    +0.000 NA
ATOM     13  C   UNL     1      -5.278  -1.846 127.754  0.00  0.00    +0.000 C 
ATOM     14  C   UNL     1      -6.471  -1.365 128.575  0.00  0.00    +0.000 C 
BRANCH  12  15
ATOM     15  C   UNL     1      -6.684  -2.296 125.751  0.00  0.00    +0.000 C 
BRANCH  15  16
ATOM     16  C   UNL     1      -6.469  -3.077 124.480  0.00  0.00    +0.000 C 
ATOM     17  C   UNL     1      -5.757  -2.493 123.283  0.00  0.00    +0.000 C 
ATOM     18  C   UNL     1      -5.093  -3.586 124.102  0.00  0.00    +0.000 C 
ENDBRANCH  15  16
ENDBRANCH  12  15
ENDBRANCH   1   8
BRANCH   4  19
ATOM     19  N   UNL     1     -10.150   5.305 129.852  0.00  0.00    +0.000 N 
ATOM     20  H   UNL     1     -11.138   5.128 129.712  0.00  0.00    +0.000 HD
BRANCH  19  21
ATOM     21  S   UNL     1      -9.773   6.726 130.602  0.00  0.00    +0.000 S 
ATOM     22  O   UNL     1      -9.436   7.709 129.632  0.00  0.00    +0.000 OA
ATOM     23  O   UNL     1     -10.879   7.006 131.549  0.00  0.00    +0.000 OA
BRANCH  21  24
ATOM     24  C   UNL     1      -8.265   6.448 131.584  0.00  0.00    +0.000 A 
ATOM     25  C   UNL     1      -8.727   5.862 132.823  0.00  0.00    +0.000 A 
ATOM     26  C   UNL     1      -7.833   5.624 133.826  0.00  0.00    +0.000 A 
ATOM     27  C   UNL     1      -6.512   5.616 133.439  0.00  0.00    +0.000 A 
ATOM     28  C   UNL     1      -6.096   5.963 132.115  0.00  0.00    +0.000 A 
ATOM     29  C   UNL     1      -6.775   6.767 131.241  0.00  0.00    +0.000 A 
ATOM     30  N   UNL     1      -5.623   7.512 130.413  0.00  0.00    +0.000 NA
ATOM     31  C   UNL     1      -4.411   6.897 130.171  0.00  0.00    +0.000 A 
ATOM     32  C   UNL     1      -4.656   5.613 130.261  0.00  0.00    +0.000 A 
ATOM     33  C   UNL     1      -4.888   5.484 131.621  0.00  0.00    +0.000 A 
ENDBRANCH  21  24
ENDBRANCH  19  21
ENDBRANCH   4  19
TORSDOF 6
ENDMDL
