MODEL 1
REMARK VINA RESULT:      -7.0      0.000      0.000
REMARK  Name = Mitoxantrone
REMARK  16 active torsions:
REMARK  status: ('A' for Active; 'I' for Inactive)
REMARK    1  A    between atoms: O_1  and  C_2
REMARK    2  A    between atoms: C_2  and  C_3
REMARK    3  A    between atoms: C_3  and  N_4
REMARK    4  A    between atoms: N_4  and  C_5
REMARK    5  A    between atoms: C_5  and  C_6
REMARK    6  A    between atoms: C_6  and  N_7
REMARK    7  A    between atoms: N_7  and  C_8
REMARK    8  A    between atoms: C_11  and  N_12
REMARK    9  A    between atoms: N_12  and  C_13
REMARK   10  A    between atoms: C_13  and  C_14
REMARK   11  A    between atoms: C_14  and  N_15
REMARK   12  A    between atoms: N_15  and  C_16
REMARK   13  A    between atoms: C_16  and  C_17
REMARK   14  A    between atoms: C_17  and  O_18
REMARK   15  A    between atoms: C_25  and  O_26
REMARK   16  A    between atoms: C_29  and  O_30
REMARK                            x       y       z     vdW  Elec       q    Type
REMARK                         _______ _______ _______ _____ _____    ______ ____
ROOT
ATOM      1  C   UNL     1      -7.350   4.521 129.964  0.00  0.00    +0.000 A 
ATOM      2  C   UNL     1      -6.719   4.046 131.102  0.00  0.00    +0.000 A 
ATOM      3  C   UNL     1      -7.223   4.332 132.367  0.00  0.00    +0.000 A 
ATOM      4  C   UNL     1      -8.395   5.077 132.562  0.00  0.00    +0.000 A 
ATOM      5  C   UNL     1      -9.072   5.537 131.413  0.00  0.00    +0.000 A 
ATOM      6  C   UNL     1      -8.548   5.258 130.135  0.00  0.00    +0.000 A 
ATOM      7  C   UNL     1      -9.260   5.723 128.937  0.00  0.00    +0.000 C 
ATOM      8  O   UNL     1      -8.784   5.459 127.831  0.00  0.00    +0.000 OA
ATOM      9  C   UNL     1     -10.510   6.481 129.054  0.00  0.00    +0.000 A 
ATOM     10  C   UNL     1     -11.030   6.787 130.312  0.00  0.00    +0.000 A 
ATOM     11  C   UNL     1     -12.217   7.530 130.396  0.00  0.00    +0.000 A 
ATOM     12  C   UNL     1     -12.867   7.955 129.237  0.00  0.00    +0.000 A 
ATOM     13  C   UNL     1     -12.345   7.643 127.982  0.00  0.00    +0.000 A 
ATOM     14  C   UNL     1     -11.173   6.908 127.892  0.00  0.00    +0.000 A 
ATOM     15  C   UNL     1     -10.331   6.330 131.530  0.00  0.00    +0.000 C 
ATOM     16  O   UNL     1     -10.822   6.620 132.623  0.00  0.00    +0.000 OA
ENDROOT
BRANCH   4  17
ATOM     17  N   UNL     1      -8.828   5.376 133.846  0.00  0.00    +0.000 N 
ATOM     18  H   UNL     1      -9.715   5.878 133.937  0.00  0.00    +0.000 HD
BRANCH  17  19
ATOM     19  C   UNL     1      -8.160   4.880 135.034  0.00  0.00    +0.000 C 
BRANCH  19  20
ATOM     20  C   UNL     1      -7.564   6.014 135.871  0.00  0.00    +0.000 C 
BRANCH  20  21
ATOM     21  N   UNL     1      -8.531   6.447 136.886  0.00  0.00    +0.000 NA
ATOM     22  H   UNL     1      -8.534   5.784 137.662  0.00  0.00    +0.000 HD
BRANCH  21  23
ATOM     23  C   UNL     1      -8.198   7.782 137.376  0.00  0.00    +0.000 C 
BRANCH  23  24
ATOM     24  C   UNL     1      -9.453   8.654 137.471  0.00  0.00    +0.000 C 
BRANCH  24  25
ATOM     25  O   UNL     1     -10.173   8.625 136.245  0.00  0.00    +0.000 OA
ATOM     26  H   UNL     1     -10.756   9.403 136.228  0.00  0.00    +0.000 HD
ENDBRANCH  24  25
ENDBRANCH  23  24
ENDBRANCH  21  23
ENDBRANCH  20  21
ENDBRANCH  19  20
ENDBRANCH  17  19
ENDBRANCH   4  17
BRANCH  14  27
ATOM     27  O   UNL     1     -10.665   6.604 126.661  0.00  0.00    +0.000 OA
ATOM     28  H   UNL     1     -11.329   6.636 125.960  0.00  0.00    +0.000 HD
ENDBRANCH  14  27
BRANCH  11  29
ATOM     29  O   UNL     1     -12.808   7.888 131.579  0.00  0.00    +0.000 OA
ATOM     30  H   UNL     1     -13.722   7.523 131.594  0.00  0.00    +0.000 HD
ENDBRANCH  11  29
BRANCH   1  31
ATOM     31  N   UNL     1      -6.726   4.327 128.710  0.00  0.00    +0.000 N 
ATOM     32  H   UNL     1      -6.918   3.368 128.375  0.00  0.00    +0.000 HD
BRANCH  31  33
ATOM     33  C   UNL     1      -5.288   4.614 128.652  0.00  0.00    +0.000 C 
BRANCH  33  34
ATOM     34  C   UNL     1      -4.853   4.842 127.189  0.00  0.00    +0.000 C 
BRANCH  34  35
ATOM     35  N   UNL     1      -6.015   5.125 126.336  0.00  0.00    +0.000 NA
ATOM     36  H   UNL     1      -6.860   5.083 126.908  0.00  0.00    +0.000 HD
BRANCH  35  37
ATOM     37  C   UNL     1      -6.116   4.134 125.262  0.00  0.00    +0.000 C 
BRANCH  37  38
ATOM     38  C   UNL     1      -7.569   3.980 124.809  0.00  0.00    +0.000 C 
BRANCH  38  39
ATOM     39  O   UNL     1      -8.316   5.129 125.189  0.00  0.00    +0.000 OA
ATOM     40  H   UNL     1      -8.328   5.146 126.161  0.00  0.00    +0.000 HD
ENDBRANCH  38  39
ENDBRANCH  37  38
ENDBRANCH  35  37
ENDBRANCH  34  35
ENDBRANCH  33  34
ENDBRANCH  31  33
ENDBRANCH   1  31
TORSDOF 16
ENDMDL
MODEL 2
REMARK VINA RESULT:      -6.7      0.607      7.361
REMARK  Name = Mitoxantrone
REMARK  16 active torsions:
REMARK  status: ('A' for Active; 'I' for Inactive)
REMARK    1  A    between atoms: O_1  and  C_2
REMARK    2  A    between atoms: C_2  and  C_3
REMARK    3  A    between atoms: C_3  and  N_4
REMARK    4  A    between atoms: N_4  and  C_5
REMARK    5  A    between atoms: C_5  and  C_6
REMARK    6  A    between atoms: C_6  and  N_7
REMARK    7  A    between atoms: N_7  and  C_8
REMARK    8  A    between atoms: C_11  and  N_12
REMARK    9  A    between atoms: N_12  and  C_13
REMARK   10  A    between atoms: C_13  and  C_14
REMARK   11  A    between atoms: C_14  and  N_15
REMARK   12  A    between atoms: N_15  and  C_16
REMARK   13  A    between atoms: C_16  and  C_17
REMARK   14  A    between atoms: C_17  and  O_18
REMARK   15  A    between atoms: C_25  and  O_26
REMARK   16  A    between atoms: C_29  and  O_30
REMARK                            x       y       z     vdW  Elec       q    Type
REMARK                         _______ _______ _______ _____ _____    ______ ____
ROOT
ATOM      1  C   UNL     1      -8.403   5.380 132.530  0.00  0.00    +0.000 A 
ATOM      2  C   UNL     1      -7.133   4.845 132.380  0.00  0.00    +0.000 A 
ATOM      3  C   UNL     1      -6.614   4.587 131.116  0.00  0.00    +0.000 A 
ATOM      4  C   UNL     1      -7.318   4.876 129.937  0.00  0.00    +0.000 A 
ATOM      5  C   UNL     1      -8.597   5.456 130.069  0.00  0.00    +0.000 A 
ATOM      6  C   UNL     1      -9.124   5.700 131.353  0.00  0.00    +0.000 A 
ATOM      7  C   UNL     1     -10.450   6.319 131.492  0.00  0.00    +0.000 C 
ATOM      8  O   UNL     1     -10.885   6.528 132.626  0.00  0.00    +0.000 OA
ATOM      9  C   UNL     1     -11.237   6.681 130.308  0.00  0.00    +0.000 A 
ATOM     10  C   UNL     1     -10.739   6.424 129.030  0.00  0.00    +0.000 A 
ATOM     11  C   UNL     1     -11.521   6.762 127.915  0.00  0.00    +0.000 A 
ATOM     12  C   UNL     1     -12.776   7.348 128.084  0.00  0.00    +0.000 A 
ATOM     13  C   UNL     1     -13.266   7.607 129.364  0.00  0.00    +0.000 A 
ATOM     14  C   UNL     1     -12.498   7.275 130.470  0.00  0.00    +0.000 A 
ATOM     15  C   UNL     1      -9.409   5.803 128.866  0.00  0.00    +0.000 C 
ATOM     16  O   UNL     1      -9.006   5.591 127.721  0.00  0.00    +0.000 OA
ENDROOT
BRANCH   4  17
ATOM     17  N   UNL     1      -6.774   4.553 128.702  0.00  0.00    +0.000 N 
ATOM     18  H   UNL     1      -7.388   4.625 127.886  0.00  0.00    +0.000 HD
BRANCH  17  19
ATOM     19  C   UNL     1      -5.363   4.273 128.515  0.00  0.00    +0.000 C 
BRANCH  19  20
ATOM     20  C   UNL     1      -5.059   3.795 127.092  0.00  0.00    +0.000 C 
BRANCH  20  21
ATOM     21  N   UNL     1      -6.162   2.964 126.599  0.00  0.00    +0.000 NA
ATOM     22  H   UNL     1      -6.946   3.010 127.251  0.00  0.00    +0.000 HD
BRANCH  21  23
ATOM     23  C   UNL     1      -6.591   3.411 125.276  0.00  0.00    +0.000 C 
BRANCH  23  24
ATOM     24  C   UNL     1      -6.286   4.898 125.080  0.00  0.00    +0.000 C 
BRANCH  24  25
ATOM     25  O   UNL     1      -7.456   5.678 125.290  0.00  0.00    +0.000 OA
ATOM     26  H   UNL     1      -7.203   6.449 125.825  0.00  0.00    +0.000 HD
ENDBRANCH  24  25
ENDBRANCH  23  24
ENDBRANCH  21  23
ENDBRANCH  20  21
ENDBRANCH  19  20
ENDBRANCH  17  19
ENDBRANCH   4  17
BRANCH  14  27
ATOM     27  O   UNL     1     -12.981   7.531 131.722  0.00  0.00    +0.000 OA
ATOM     28  H   UNL     1     -13.266   6.733 132.187  0.00  0.00    +0.000 HD
ENDBRANCH  14  27
BRANCH  11  29
ATOM     29  O   UNL     1     -11.130   6.549 126.620  0.00  0.00    +0.000 OA
ATOM     30  H   UNL     1     -11.916   6.269 126.099  0.00  0.00    +0.000 HD
ENDBRANCH  11  29
BRANCH   1  31
ATOM     31  N   UNL     1      -8.944   5.492 133.831  0.00  0.00    +0.000 N 
ATOM     32  H   UNL     1      -9.155   6.484 134.031  0.00  0.00    +0.000 HD
BRANCH  31  33
ATOM     33  C   UNL     1      -8.148   4.906 134.915  0.00  0.00    +0.000 C 
BRANCH  33  34
ATOM     34  C   UNL     1      -7.577   6.022 135.816  0.00  0.00    +0.000 C 
BRANCH  34  35
ATOM     35  N   UNL     1      -8.562   6.435 136.825  0.00  0.00    +0.000 NA
ATOM     36  H   UNL     1      -9.482   6.484 136.385  0.00  0.00    +0.000 HD
BRANCH  35  37
ATOM     37  C   UNL     1      -8.221   7.753 137.364  0.00  0.00    +0.000 C 
BRANCH  37  38
ATOM     38  C   UNL     1      -9.484   8.589 137.578  0.00  0.00    +0.000 C 
BRANCH  38  39
ATOM     39  O   UNL     1     -10.223   8.664 136.364  0.00  0.00    +0.000 OA
ATOM     40  H   UNL     1     -10.864   7.933 136.383  0.00  0.00    +0.000 HD
ENDBRANCH  38  39
ENDBRANCH  37  38
ENDBRANCH  35  37
ENDBRANCH  34  35
ENDBRANCH  33  34
ENDBRANCH  31  33
ENDBRANCH   1  31
TORSDOF 16
ENDMDL
MODEL 3
REMARK VINA RESULT:      -6.6      3.444      6.619
REMARK  Name = Mitoxantrone
REMARK  16 active torsions:
REMARK  status: ('A' for Active; 'I' for Inactive)
REMARK    1  A    between atoms: O_1  and  C_2
REMARK    2  A    between atoms: C_2  and  C_3
REMARK    3  A    between atoms: C_3  and  N_4
REMARK    4  A    between atoms: N_4  and  C_5
REMARK    5  A    between atoms: C_5  and  C_6
REMARK    6  A    between atoms: C_6  and  N_7
REMARK    7  A    between atoms: N_7  and  C_8
REMARK    8  A    between atoms: C_11  and  N_12
REMARK    9  A    between atoms: N_12  and  C_13
REMARK   10  A    between atoms: C_13  and  C_14
REMARK   11  A    between atoms: C_14  and  N_15
REMARK   12  A    between atoms: N_15  and  C_16
REMARK   13  A    between atoms: C_16  and  C_17
REMARK   14  A    between atoms: C_17  and  O_18
REMARK   15  A    between atoms: C_25  and  O_26
REMARK   16  A    between atoms: C_29  and  O_30
REMARK                            x       y       z     vdW  Elec       q    Type
REMARK                         _______ _______ _______ _____ _____    ______ ____
ROOT
ATOM      1  C   UNL     1      -8.405   4.835 130.576  0.00  0.00    +0.000 A 
ATOM      2  C   UNL     1      -7.957   4.683 131.878  0.00  0.00    +0.000 A 
ATOM      3  C   UNL     1      -6.712   4.121 132.142  0.00  0.00    +0.000 A 
ATOM      4  C   UNL     1      -5.838   3.711 131.123  0.00  0.00    +0.000 A 
ATOM      5  C   UNL     1      -6.262   3.894 129.790  0.00  0.00    +0.000 A 
ATOM      6  C   UNL     1      -7.531   4.449 129.530  0.00  0.00    +0.000 A 
ATOM      7  C   UNL     1      -7.967   4.654 128.142  0.00  0.00    +0.000 C 
ATOM      8  O   UNL     1      -9.078   5.148 127.942  0.00  0.00    +0.000 OA
ATOM      9  C   UNL     1      -7.099   4.281 127.020  0.00  0.00    +0.000 A 
ATOM     10  C   UNL     1      -5.849   3.709 127.260  0.00  0.00    +0.000 A 
ATOM     11  C   UNL     1      -5.046   3.344 126.168  0.00  0.00    +0.000 A 
ATOM     12  C   UNL     1      -5.493   3.554 124.863  0.00  0.00    +0.000 A 
ATOM     13  C   UNL     1      -6.741   4.131 124.629  0.00  0.00    +0.000 A 
ATOM     14  C   UNL     1      -7.539   4.493 125.704  0.00  0.00    +0.000 A 
ATOM     15  C   UNL     1      -5.390   3.493 128.647  0.00  0.00    +0.000 C 
ATOM     16  O   UNL     1      -4.280   2.984 128.818  0.00  0.00    +0.000 OA
ENDROOT
BRANCH   4  17
ATOM     17  N   UNL     1      -4.628   3.111 131.441  0.00  0.00    +0.000 N 
ATOM     18  H   UNL     1      -4.434   2.197 131.024  0.00  0.00    +0.000 HD
BRANCH  17  19
ATOM     19  C   UNL     1      -3.592   3.787 132.199  0.00  0.00    +0.000 C 
BRANCH  19  20
ATOM     20  C   UNL     1      -3.238   5.149 131.594  0.00  0.00    +0.000 C 
BRANCH  20  21
ATOM     21  N   UNL     1      -2.552   4.962 130.311  0.00  0.00    +0.000 NA
ATOM     22  H   UNL     1      -3.085   4.317 129.727  0.00  0.00    +0.000 HD
BRANCH  21  23
ATOM     23  C   UNL     1      -2.394   6.240 129.622  0.00  0.00    +0.000 C 
BRANCH  23  24
ATOM     24  C   UNL     1      -2.676   6.089 128.126  0.00  0.00    +0.000 C 
BRANCH  24  25
ATOM     25  O   UNL     1      -2.191   4.839 127.651  0.00  0.00    +0.000 OA
ATOM     26  H   UNL     1      -2.258   4.847 126.682  0.00  0.00    +0.000 HD
ENDBRANCH  24  25
ENDBRANCH  23  24
ENDBRANCH  21  23
ENDBRANCH  20  21
ENDBRANCH  19  20
ENDBRANCH  17  19
ENDBRANCH   4  17
BRANCH  14  27
ATOM     27  O   UNL     1      -8.760   5.059 125.471  0.00  0.00    +0.000 OA
ATOM     28  H   UNL     1      -9.324   5.076 126.255  0.00  0.00    +0.000 HD
ENDBRANCH  14  27
BRANCH  11  29
ATOM     29  O   UNL     1      -3.809   2.771 126.292  0.00  0.00    +0.000 OA
ATOM     30  H   UNL     1      -3.192   3.223 125.673  0.00  0.00    +0.000 HD
ENDBRANCH  11  29
BRANCH   1  31
ATOM     31  N   UNL     1      -9.730   5.278 130.361  0.00  0.00    +0.000 N 
ATOM     32  H   UNL     1      -9.895   5.390 129.347  0.00  0.00    +0.000 HD
BRANCH  31  33
ATOM     33  C   UNL     1     -10.134   6.488 131.085  0.00  0.00    +0.000 C 
BRANCH  33  34
ATOM     34  C   UNL     1     -11.068   7.345 130.206  0.00  0.00    +0.000 C 
BRANCH  34  35
ATOM     35  N   UNL     1     -10.378   7.787 128.986  0.00  0.00    +0.000 NA
ATOM     36  H   UNL     1      -9.776   8.578 129.218  0.00  0.00    +0.000 HD
BRANCH  35  37
ATOM     37  C   UNL     1     -11.348   8.207 127.972  0.00  0.00    +0.000 C 
BRANCH  37  38
ATOM     38  C   UNL     1     -10.856   7.837 126.572  0.00  0.00    +0.000 C 
BRANCH  38  39
ATOM     39  O   UNL     1     -11.198   6.486 126.284  0.00  0.00    +0.000 OA
ATOM     40  H   UNL     1     -12.022   6.298 126.764  0.00  0.00    +0.000 HD
ENDBRANCH  38  39
ENDBRANCH  37  38
ENDBRANCH  35  37
ENDBRANCH  34  35
ENDBRANCH  33  34
ENDBRANCH  31  33
ENDBRANCH   1  31
TORSDOF 16
ENDMDL
MODEL 4
REMARK VINA RESULT:      -6.6      1.429      2.039
REMARK  Name = Mitoxantrone
REMARK  16 active torsions:
REMARK  status: ('A' for Active; 'I' for Inactive)
REMARK    1  A    between atoms: O_1  and  C_2
REMARK    2  A    between atoms: C_2  and  C_3
REMARK    3  A    between atoms: C_3  and  N_4
REMARK    4  A    between atoms: N_4  and  C_5
REMARK    5  A    between atoms: C_5  and  C_6
REMARK    6  A    between atoms: C_6  and  N_7
REMARK    7  A    between atoms: N_7  and  C_8
REMARK    8  A    between atoms: C_11  and  N_12
REMARK    9  A    between atoms: N_12  and  C_13
REMARK   10  A    between atoms: C_13  and  C_14
REMARK   11  A    between atoms: C_14  and  N_15
REMARK   12  A    between atoms: N_15  and  C_16
REMARK   13  A    between atoms: C_16  and  C_17
REMARK   14  A    between atoms: C_17  and  O_18
REMARK   15  A    between atoms: C_25  and  O_26
REMARK   16  A    between atoms: C_29  and  O_30
REMARK                            x       y       z     vdW  Elec       q    Type
REMARK                         _______ _______ _______ _____ _____    ______ ____
ROOT
ATOM      1  C   UNL     1      -7.331   4.610 129.975  0.00  0.00    +0.000 A 
ATOM      2  C   UNL     1      -6.673   4.154 131.106  0.00  0.00    +0.000 A 
ATOM      3  C   UNL     1      -7.167   4.430 132.377  0.00  0.00    +0.000 A 
ATOM      4  C   UNL     1      -8.354   5.148 132.586  0.00  0.00    +0.000 A 
ATOM      5  C   UNL     1      -9.057   5.588 131.445  0.00  0.00    +0.000 A 
ATOM      6  C   UNL     1      -8.544   5.319 130.161  0.00  0.00    +0.000 A 
ATOM      7  C   UNL     1      -9.283   5.763 128.971  0.00  0.00    +0.000 C 
ATOM      8  O   UNL     1      -8.816   5.509 127.859  0.00  0.00    +0.000 OA
ATOM      9  C   UNL     1     -10.549   6.492 129.103  0.00  0.00    +0.000 A 
ATOM     10  C   UNL     1     -11.060   6.787 130.368  0.00  0.00    +0.000 A 
ATOM     11  C   UNL     1     -12.263   7.502 130.466  0.00  0.00    +0.000 A 
ATOM     12  C   UNL     1     -12.938   7.909 129.315  0.00  0.00    +0.000 A 
ATOM     13  C   UNL     1     -12.426   7.606 128.054  0.00  0.00    +0.000 A 
ATOM     14  C   UNL     1     -11.237   6.900 127.950  0.00  0.00    +0.000 A 
ATOM     15  C   UNL     1     -10.333   6.350 131.578  0.00  0.00    +0.000 C 
ATOM     16  O   UNL     1     -10.816   6.632 132.677  0.00  0.00    +0.000 OA
ENDROOT
BRANCH   4  17
ATOM     17  N   UNL     1      -8.777   5.439 133.875  0.00  0.00    +0.000 N 
ATOM     18  H   UNL     1      -9.692   5.885 133.979  0.00  0.00    +0.000 HD
BRANCH  17  19
ATOM     19  C   UNL     1      -8.053   5.005 135.055  0.00  0.00    +0.000 C 
BRANCH  19  20
ATOM     20  C   UNL     1      -7.574   6.189 135.899  0.00  0.00    +0.000 C 
BRANCH  20  21
ATOM     21  N   UNL     1      -8.629   6.593 136.835  0.00  0.00    +0.000 NA
ATOM     22  H   UNL     1      -8.827   5.828 137.481  0.00  0.00    +0.000 HD
BRANCH  21  23
ATOM     23  C   UNL     1      -8.225   7.781 137.583  0.00  0.00    +0.000 C 
BRANCH  23  24
ATOM     24  C   UNL     1      -9.067   8.992 137.177  0.00  0.00    +0.000 C 
BRANCH  24  25
ATOM     25  O   UNL     1     -10.187   8.582 136.402  0.00  0.00    +0.000 OA
ATOM     26  H   UNL     1     -10.274   9.203 135.659  0.00  0.00    +0.000 HD
ENDBRANCH  24  25
ENDBRANCH  23  24
ENDBRANCH  21  23
ENDBRANCH  20  21
ENDBRANCH  19  20
ENDBRANCH  17  19
ENDBRANCH   4  17
BRANCH  14  27
ATOM     27  O   UNL     1     -10.739   6.605 126.713  0.00  0.00    +0.000 OA
ATOM     28  H   UNL     1     -11.366   6.783 126.000  0.00  0.00    +0.000 HD
ENDBRANCH  14  27
BRANCH  11  29
ATOM     29  O   UNL     1     -12.847   7.848 131.656  0.00  0.00    +0.000 OA
ATOM     30  H   UNL     1     -13.506   7.158 131.892  0.00  0.00    +0.000 HD
ENDBRANCH  11  29
BRANCH   1  31
ATOM     31  N   UNL     1      -6.719   4.428 128.714  0.00  0.00    +0.000 N 
ATOM     32  H   UNL     1      -7.240   3.714 128.179  0.00  0.00    +0.000 HD
BRANCH  31  33
ATOM     33  C   UNL     1      -5.285   4.117 128.729  0.00  0.00    +0.000 C 
BRANCH  33  34
ATOM     34  C   UNL     1      -4.519   5.105 127.825  0.00  0.00    +0.000 C 
BRANCH  34  35
ATOM     35  N   UNL     1      -3.110   5.199 128.231  0.00  0.00    +0.000 NA
ATOM     36  H   UNL     1      -2.993   4.721 129.125  0.00  0.00    +0.000 HD
BRANCH  35  37
ATOM     37  C   UNL     1      -2.713   6.601 128.386  0.00  0.00    +0.000 C 
BRANCH  37  38
ATOM     38  C   UNL     1      -3.525   7.270 129.495  0.00  0.00    +0.000 C 
BRANCH  38  39
ATOM     39  O   UNL     1      -4.147   8.448 128.993  0.00  0.00    +0.000 OA
ATOM     40  H   UNL     1      -5.033   8.487 129.391  0.00  0.00    +0.000 HD
ENDBRANCH  38  39
ENDBRANCH  37  38
ENDBRANCH  35  37
ENDBRANCH  34  35
ENDBRANCH  33  34
ENDBRANCH  31  33
ENDBRANCH   1  31
TORSDOF 16
ENDMDL
MODEL 5
REMARK VINA RESULT:      -6.5      4.430      7.252
REMARK  Name = Mitoxantrone
REMARK  16 active torsions:
REMARK  status: ('A' for Active; 'I' for Inactive)
REMARK    1  A    between atoms: O_1  and  C_2
REMARK    2  A    between atoms: C_2  and  C_3
REMARK    3  A    between atoms: C_3  and  N_4
REMARK    4  A    between atoms: N_4  and  C_5
REMARK    5  A    between atoms: C_5  and  C_6
REMARK    6  A    between atoms: C_6  and  N_7
REMARK    7  A    between atoms: N_7  and  C_8
REMARK    8  A    between atoms: C_11  and  N_12
REMARK    9  A    between atoms: N_12  and  C_13
REMARK   10  A    between atoms: C_13  and  C_14
REMARK   11  A    between atoms: C_14  and  N_15
REMARK   12  A    between atoms: N_15  and  C_16
REMARK   13  A    between atoms: C_16  and  C_17
REMARK   14  A    between atoms: C_17  and  O_18
REMARK   15  A    between atoms: C_25  and  O_26
REMARK   16  A    between atoms: C_29  and  O_30
REMARK                            x       y       z     vdW  Elec       q    Type
REMARK                         _______ _______ _______ _____ _____    ______ ____
ROOT
ATOM      1  C   UNL     1      -7.749  -0.406 128.713  0.00  0.00    +0.000 A 
ATOM      2  C   UNL     1      -8.114  -0.131 130.020  0.00  0.00    +0.000 A 
ATOM      3  C   UNL     1      -8.445   1.163 130.409  0.00  0.00    +0.000 A 
ATOM      4  C   UNL     1      -8.458   2.241 129.512  0.00  0.00    +0.000 A 
ATOM      5  C   UNL     1      -8.125   1.972 128.168  0.00  0.00    +0.000 A 
ATOM      6  C   UNL     1      -7.776   0.662 127.783  0.00  0.00    +0.000 A 
ATOM      7  C   UNL     1      -7.444   0.378 126.380  0.00  0.00    +0.000 C 
ATOM      8  O   UNL     1      -7.149  -0.777 126.068  0.00  0.00    +0.000 OA
ATOM      9  C   UNL     1      -7.465   1.444 125.373  0.00  0.00    +0.000 A 
ATOM     10  C   UNL     1      -7.786   2.751 125.741  0.00  0.00    +0.000 A 
ATOM     11  C   UNL     1      -7.780   3.756 124.762  0.00  0.00    +0.000 A 
ATOM     12  C   UNL     1      -7.459   3.449 123.439  0.00  0.00    +0.000 A 
ATOM     13  C   UNL     1      -7.145   2.140 123.075  0.00  0.00    +0.000 A 
ATOM     14  C   UNL     1      -7.149   1.143 124.039  0.00  0.00    +0.000 A 
ATOM     15  C   UNL     1      -8.123   3.060 127.146  0.00  0.00    +0.000 C 
ATOM     16  O   UNL     1      -8.399   4.227 127.432  0.00  0.00    +0.000 OA
ENDROOT
BRANCH   4  17
ATOM     17  N   UNL     1      -8.747   3.522 129.962  0.00  0.00    +0.000 N 
ATOM     18  H   UNL     1      -8.215   4.294 129.552  0.00  0.00    +0.000 HD
BRANCH  17  19
ATOM     19  C   UNL     1      -9.853   3.808 130.856  0.00  0.00    +0.000 C 
BRANCH  19  20
ATOM     20  C   UNL     1     -10.462   5.187 130.588  0.00  0.00    +0.000 C 
BRANCH  20  21
ATOM     21  N   UNL     1      -9.979   5.705 129.303  0.00  0.00    +0.000 NA
ATOM     22  H   UNL     1      -9.728   4.927 128.692  0.00  0.00    +0.000 HD
BRANCH  21  23
ATOM     23  C   UNL     1     -11.002   6.527 128.664  0.00  0.00    +0.000 C 
BRANCH  23  24
ATOM     24  C   UNL     1     -10.440   7.227 127.424  0.00  0.00    +0.000 C 
BRANCH  24  25
ATOM     25  O   UNL     1     -10.469   6.352 126.303  0.00  0.00    +0.000 OA
ATOM     26  H   UNL     1     -11.400   6.150 126.112  0.00  0.00    +0.000 HD
ENDBRANCH  24  25
ENDBRANCH  23  24
ENDBRANCH  21  23
ENDBRANCH  20  21
ENDBRANCH  19  20
ENDBRANCH  17  19
ENDBRANCH   4  17
BRANCH  14  27
ATOM     27  O   UNL     1      -6.840  -0.138 123.678  0.00  0.00    +0.000 OA
ATOM     28  H   UNL     1      -6.011  -0.450 124.065  0.00  0.00    +0.000 HD
ENDBRANCH  14  27
BRANCH  11  29
ATOM     29  O   UNL     1      -8.073   5.069 125.018  0.00  0.00    +0.000 OA
ATOM     30  H   UNL     1      -7.339   5.625 124.675  0.00  0.00    +0.000 HD
ENDBRANCH  11  29
BRANCH   1  31
ATOM     31  N   UNL     1      -7.285  -1.704 128.396  0.00  0.00    +0.000 N 
ATOM     32  H   UNL     1      -7.256  -1.817 127.369  0.00  0.00    +0.000 HD
BRANCH  31  33
ATOM     33  C   UNL     1      -8.009  -2.819 129.017  0.00  0.00    +0.000 C 
BRANCH  33  34
ATOM     34  C   UNL     1      -8.678  -3.687 127.931  0.00  0.00    +0.000 C 
BRANCH  34  35
ATOM     35  N   UNL     1      -8.864  -2.920 126.691  0.00  0.00    +0.000 NA
ATOM     36  H   UNL     1      -9.844  -2.640 126.622  0.00  0.00    +0.000 HD
BRANCH  35  37
ATOM     37  C   UNL     1      -8.519  -3.738 125.525  0.00  0.00    +0.000 C 
BRANCH  37  38
ATOM     38  C   UNL     1      -9.216  -3.207 124.271  0.00  0.00    +0.000 C 
BRANCH  38  39
ATOM     39  O   UNL     1      -9.333  -1.791 124.349  0.00  0.00    +0.000 OA
ATOM     40  H   UNL     1     -10.111  -1.546 123.821  0.00  0.00    +0.000 HD
ENDBRANCH  38  39
ENDBRANCH  37  38
ENDBRANCH  35  37
ENDBRANCH  34  35
ENDBRANCH  33  34
ENDBRANCH  31  33
ENDBRANCH   1  31
TORSDOF 16
ENDMDL
MODEL 6
REMARK VINA RESULT:      -6.5      1.765      7.685
REMARK  Name = Mitoxantrone
REMARK  16 active torsions:
REMARK  status: ('A' for Active; 'I' for Inactive)
REMARK    1  A    between atoms: O_1  and  C_2
REMARK    2  A    between atoms: C_2  and  C_3
REMARK    3  A    between atoms: C_3  and  N_4
REMARK    4  A    between atoms: N_4  and  C_5
REMARK    5  A    between atoms: C_5  and  C_6
REMARK    6  A    between atoms: C_6  and  N_7
REMARK    7  A    between atoms: N_7  and  C_8
REMARK    8  A    between atoms: C_11  and  N_12
REMARK    9  A    between atoms: N_12  and  C_13
REMARK   10  A    between atoms: C_13  and  C_14
REMARK   11  A    between atoms: C_14  and  N_15
REMARK   12  A    between atoms: N_15  and  C_16
REMARK   13  A    between atoms: C_16  and  C_17
REMARK   14  A    between atoms: C_17  and  O_18
REMARK   15  A    between atoms: C_25  and  O_26
REMARK   16  A    between atoms: C_29  and  O_30
REMARK                            x       y       z     vdW  Elec       q    Type
REMARK                         _______ _______ _______ _____ _____    ______ ____
ROOT
ATOM      1  C   UNL     1      -9.112   4.732 132.036  0.00  0.00    +0.000 A 
ATOM      2  C   UNL     1      -8.043   3.908 131.725  0.00  0.00    +0.000 A 
ATOM      3  C   UNL     1      -7.587   3.798 130.415  0.00  0.00    +0.000 A 
ATOM      4  C   UNL     1      -8.152   4.524 129.356  0.00  0.00    +0.000 A 
ATOM      5  C   UNL     1      -9.218   5.397 129.661  0.00  0.00    +0.000 A 
ATOM      6  C   UNL     1      -9.685   5.492 130.987  0.00  0.00    +0.000 A 
ATOM      7  C   UNL     1     -10.785   6.411 131.309  0.00  0.00    +0.000 C 
ATOM      8  O   UNL     1     -11.170   6.481 132.477  0.00  0.00    +0.000 OA
ATOM      9  C   UNL     1     -11.409   7.230 130.263  0.00  0.00    +0.000 A 
ATOM     10  C   UNL     1     -10.974   7.131 128.941  0.00  0.00    +0.000 A 
ATOM     11  C   UNL     1     -11.601   7.910 127.958  0.00  0.00    +0.000 A 
ATOM     12  C   UNL     1     -12.642   8.774 128.300  0.00  0.00    +0.000 A 
ATOM     13  C   UNL     1     -13.070   8.873 129.623  0.00  0.00    +0.000 A 
ATOM     14  C   UNL     1     -12.454   8.105 130.600  0.00  0.00    +0.000 A 
ATOM     15  C   UNL     1      -9.870   6.212 128.595  0.00  0.00    +0.000 C 
ATOM     16  O   UNL     1      -9.515   6.152 127.415  0.00  0.00    +0.000 OA
ENDROOT
BRANCH   4  17
ATOM     17  N   UNL     1      -7.693   4.340 128.059  0.00  0.00    +0.000 N 
ATOM     18  H   UNL     1      -7.391   5.173 127.546  0.00  0.00    +0.000 HD
BRANCH  17  19
ATOM     19  C   UNL     1      -7.486   3.027 127.479  0.00  0.00    +0.000 C 
BRANCH  19  20
ATOM     20  C   UNL     1      -7.755   3.019 125.972  0.00  0.00    +0.000 C 
BRANCH  20  21
ATOM     21  N   UNL     1      -8.874   2.120 125.669  0.00  0.00    +0.000 NA
ATOM     22  H   UNL     1      -9.648   2.309 126.307  0.00  0.00    +0.000 HD
BRANCH  21  23
ATOM     23  C   UNL     1      -9.315   2.296 124.288  0.00  0.00    +0.000 C 
BRANCH  23  24
ATOM     24  C   UNL     1     -10.067   1.057 123.796  0.00  0.00    +0.000 C 
BRANCH  24  25
ATOM     25  O   UNL     1     -11.470   1.292 123.801  0.00  0.00    +0.000 OA
ATOM     26  H   UNL     1     -11.698   1.727 122.963  0.00  0.00    +0.000 HD
ENDBRANCH  24  25
ENDBRANCH  23  24
ENDBRANCH  21  23
ENDBRANCH  20  21
ENDBRANCH  19  20
ENDBRANCH  17  19
ENDBRANCH   4  17
BRANCH  14  27
ATOM     27  O   UNL     1     -12.875   8.205 131.896  0.00  0.00    +0.000 OA
ATOM     28  H   UNL     1     -12.185   7.984 132.535  0.00  0.00    +0.000 HD
ENDBRANCH  14  27
BRANCH  11  29
ATOM     29  O   UNL     1     -11.256   7.885 126.633  0.00  0.00    +0.000 OA
ATOM     30  H   UNL     1     -12.018   7.536 126.118  0.00  0.00    +0.000 HD
ENDBRANCH  11  29
BRANCH   1  31
ATOM     31  N   UNL     1      -9.630   4.704 133.352  0.00  0.00    +0.000 N 
ATOM     32  H   UNL     1      -9.744   5.672 133.697  0.00  0.00    +0.000 HD
BRANCH  31  33
ATOM     33  C   UNL     1      -8.886   3.895 134.323  0.00  0.00    +0.000 C 
BRANCH  33  34
ATOM     34  C   UNL     1      -7.800   4.752 135.005  0.00  0.00    +0.000 C 
BRANCH  34  35
ATOM     35  N   UNL     1      -8.382   5.974 135.577  0.00  0.00    +0.000 NA
ATOM     36  H   UNL     1      -8.294   6.730 134.896  0.00  0.00    +0.000 HD
BRANCH  35  37
ATOM     37  C   UNL     1      -7.674   6.353 136.803  0.00  0.00    +0.000 C 
BRANCH  37  38
ATOM     38  C   UNL     1      -8.199   7.687 137.335  0.00  0.00    +0.000 C 
BRANCH  38  39
ATOM     39  O   UNL     1      -9.372   8.062 136.622  0.00  0.00    +0.000 OA
ATOM     40  H   UNL     1      -9.738   7.247 136.239  0.00  0.00    +0.000 HD
ENDBRANCH  38  39
ENDBRANCH  37  38
ENDBRANCH  35  37
ENDBRANCH  34  35
ENDBRANCH  33  34
ENDBRANCH  31  33
ENDBRANCH   1  31
TORSDOF 16
ENDMDL
MODEL 7
REMARK VINA RESULT:      -6.5      1.902      2.258
REMARK  Name = Mitoxantrone
REMARK  16 active torsions:
REMARK  status: ('A' for Active; 'I' for Inactive)
REMARK    1  A    between atoms: O_1  and  C_2
REMARK    2  A    between atoms: C_2  and  C_3
REMARK    3  A    between atoms: C_3  and  N_4
REMARK    4  A    between atoms: N_4  and  C_5
REMARK    5  A    between atoms: C_5  and  C_6
REMARK    6  A    between atoms: C_6  and  N_7
REMARK    7  A    between atoms: N_7  and  C_8
REMARK    8  A    between atoms: C_11  and  N_12
REMARK    9  A    between atoms: N_12  and  C_13
REMARK   10  A    between atoms: C_13  and  C_14
REMARK   11  A    between atoms: C_14  and  N_15
REMARK   12  A    between atoms: N_15  and  C_16
REMARK   13  A    between atoms: C_16  and  C_17
REMARK   14  A    between atoms: C_17  and  O_18
REMARK   15  A    between atoms: C_25  and  O_26
REMARK   16  A    between atoms: C_29  and  O_30
REMARK                            x       y       z     vdW  Elec       q    Type
REMARK                         _______ _______ _______ _____ _____    ______ ____
ROOT
ATOM      1  C   UNL     1      -8.241   4.285 129.124  0.00  0.00    +0.000 A 
ATOM      2  C   UNL     1      -7.769   3.384 130.065  0.00  0.00    +0.000 A 
ATOM      3  C   UNL     1      -8.263   3.390 131.366  0.00  0.00    +0.000 A 
ATOM      4  C   UNL     1      -9.270   4.272 131.787  0.00  0.00    +0.000 A 
ATOM      5  C   UNL     1      -9.788   5.171 130.832  0.00  0.00    +0.000 A 
ATOM      6  C   UNL     1      -9.273   5.170 129.520  0.00  0.00    +0.000 A 
ATOM      7  C   UNL     1      -9.823   6.096 128.520  0.00  0.00    +0.000 C 
ATOM      8  O   UNL     1      -9.361   6.070 127.378  0.00  0.00    +0.000 OA
ATOM      9  C   UNL     1     -10.900   7.028 128.872  0.00  0.00    +0.000 A 
ATOM     10  C   UNL     1     -11.405   7.058 130.173  0.00  0.00    +0.000 A 
ATOM     11  C   UNL     1     -12.421   7.972 130.488  0.00  0.00    +0.000 A 
ATOM     12  C   UNL     1     -12.920   8.836 129.512  0.00  0.00    +0.000 A 
ATOM     13  C   UNL     1     -12.415   8.799 128.213  0.00  0.00    +0.000 A 
ATOM     14  C   UNL     1     -11.411   7.897 127.896  0.00  0.00    +0.000 A 
ATOM     15  C   UNL     1     -10.867   6.136 131.195  0.00  0.00    +0.000 C 
ATOM     16  O   UNL     1     -11.338   6.194 132.332  0.00  0.00    +0.000 OA
ENDROOT
BRANCH   4  17
ATOM     17  N   UNL     1      -9.691   4.270 133.110  0.00  0.00    +0.000 N 
ATOM     18  H   UNL     1     -10.660   4.546 133.293  0.00  0.00    +0.000 HD
BRANCH  17  19
ATOM     19  C   UNL     1      -8.874   3.757 134.193  0.00  0.00    +0.000 C 
BRANCH  19  20
ATOM     20  C   UNL     1      -7.969   4.839 134.788  0.00  0.00    +0.000 C 
BRANCH  20  21
ATOM     21  N   UNL     1      -6.569   4.559 134.452  0.00  0.00    +0.000 NA
ATOM     22  H   UNL     1      -6.527   3.847 133.721  0.00  0.00    +0.000 HD
BRANCH  21  23
ATOM     23  C   UNL     1      -5.895   5.773 134.001  0.00  0.00    +0.000 C 
BRANCH  23  24
ATOM     24  C   UNL     1      -5.704   5.757 132.483  0.00  0.00    +0.000 C 
BRANCH  24  25
ATOM     25  O   UNL     1      -6.657   6.603 131.851  0.00  0.00    +0.000 OA
ATOM     26  H   UNL     1      -6.469   6.597 130.898  0.00  0.00    +0.000 HD
ENDBRANCH  24  25
ENDBRANCH  23  24
ENDBRANCH  21  23
ENDBRANCH  20  21
ENDBRANCH  19  20
ENDBRANCH  17  19
ENDBRANCH   4  17
BRANCH  14  27
ATOM     27  O   UNL     1     -10.919   7.863 126.622  0.00  0.00    +0.000 OA
ATOM     28  H   UNL     1     -11.536   7.473 125.989  0.00  0.00    +0.000 HD
ENDBRANCH  14  27
BRANCH  11  29
ATOM     29  O   UNL     1     -12.982   8.087 131.732  0.00  0.00    +0.000 OA
ATOM     30  H   UNL     1     -13.408   8.971 131.802  0.00  0.00    +0.000 HD
ENDBRANCH  11  29
BRANCH   1  31
ATOM     31  N   UNL     1      -7.612   4.336 127.859  0.00  0.00    +0.000 N 
ATOM     32  H   UNL     1      -8.090   3.688 127.211  0.00  0.00    +0.000 HD
BRANCH  31  33
ATOM     33  C   UNL     1      -6.164   4.103 127.846  0.00  0.00    +0.000 C 
BRANCH  33  34
ATOM     34  C   UNL     1      -5.708   3.683 126.433  0.00  0.00    +0.000 C 
BRANCH  34  35
ATOM     35  N   UNL     1      -6.586   2.638 125.889  0.00  0.00    +0.000 NA
ATOM     36  H   UNL     1      -6.082   1.751 125.893  0.00  0.00    +0.000 HD
BRANCH  35  37
ATOM     37  C   UNL     1      -6.975   2.959 124.514  0.00  0.00    +0.000 C 
BRANCH  37  38
ATOM     38  C   UNL     1      -8.498   3.037 124.391  0.00  0.00    +0.000 C 
BRANCH  38  39
ATOM     39  O   UNL     1      -8.999   4.051 125.254  0.00  0.00    +0.000 OA
ATOM     40  H   UNL     1      -9.471   3.598 125.973  0.00  0.00    +0.000 HD
ENDBRANCH  38  39
ENDBRANCH  37  38
ENDBRANCH  35  37
ENDBRANCH  34  35
ENDBRANCH  33  34
ENDBRANCH  31  33
ENDBRANCH   1  31
TORSDOF 16
ENDMDL
MODEL 8
REMARK VINA RESULT:      -6.4      6.380     10.380
REMARK  Name = Mitoxantrone
REMARK  16 active torsions:
REMARK  status: ('A' for Active; 'I' for Inactive)
REMARK    1  A    between atoms: O_1  and  C_2
REMARK    2  A    between atoms: C_2  and  C_3
REMARK    3  A    between atoms: C_3  and  N_4
REMARK    4  A    between atoms: N_4  and  C_5
REMARK    5  A    between atoms: C_5  and  C_6
REMARK    6  A    between atoms: C_6  and  N_7
REMARK    7  A    between atoms: N_7  and  C_8
REMARK    8  A    between atoms: C_11  and  N_12
REMARK    9  A    between atoms: N_12  and  C_13
REMARK   10  A    between atoms: C_13  and  C_14
REMARK   11  A    between atoms: C_14  and  N_15
REMARK   12  A    between atoms: N_15  and  C_16
REMARK   13  A    between atoms: C_16  and  C_17
REMARK   14  A    between atoms: C_17  and  O_18
REMARK   15  A    between atoms: C_25  and  O_26
REMARK   16  A    between atoms: C_29  and  O_30
REMARK                            x       y       z     vdW  Elec       q    Type
REMARK                         _______ _______ _______ _____ _____    ______ ____
ROOT
ATOM      1  C   UNL     1      -5.166   1.407 127.201  0.00  0.00    +0.000 A 
ATOM      2  C   UNL     1      -5.006   2.455 126.309  0.00  0.00    +0.000 A 
ATOM      3  C   UNL     1      -5.752   2.512 125.136  0.00  0.00    +0.000 A 
ATOM      4  C   UNL     1      -6.714   1.546 124.806  0.00  0.00    +0.000 A 
ATOM      5  C   UNL     1      -6.918   0.492 125.721  0.00  0.00    +0.000 A 
ATOM      6  C   UNL     1      -6.148   0.432 126.900  0.00  0.00    +0.000 A 
ATOM      7  C   UNL     1      -6.370  -0.658 127.861  0.00  0.00    +0.000 C 
ATOM      8  O   UNL     1      -5.689  -0.684 128.888  0.00  0.00    +0.000 OA
ATOM      9  C   UNL     1      -7.381  -1.690 127.606  0.00  0.00    +0.000 A 
ATOM     10  C   UNL     1      -8.135  -1.658 126.432  0.00  0.00    +0.000 A 
ATOM     11  C   UNL     1      -9.081  -2.668 126.203  0.00  0.00    +0.000 A 
ATOM     12  C   UNL     1      -9.265  -3.688 127.138  0.00  0.00    +0.000 A 
ATOM     13  C   UNL     1      -8.512  -3.712 128.312  0.00  0.00    +0.000 A 
ATOM     14  C   UNL     1      -7.575  -2.716 128.544  0.00  0.00    +0.000 A 
ATOM     15  C   UNL     1      -7.928  -0.572 125.451  0.00  0.00    +0.000 C 
ATOM     16  O   UNL     1      -8.614  -0.580 124.426  0.00  0.00    +0.000 OA
ENDROOT
BRANCH   4  17
ATOM     17  N   UNL     1      -7.396   1.623 123.600  0.00  0.00    +0.000 N 
ATOM     18  H   UNL     1      -7.544   0.748 123.089  0.00  0.00    +0.000 HD
BRANCH  17  19
ATOM     19  C   UNL     1      -8.021   2.844 123.128  0.00  0.00    +0.000 C 
BRANCH  19  20
ATOM     20  C   UNL     1      -7.465   3.284 121.772  0.00  0.00    +0.000 C 
BRANCH  20  21
ATOM     21  N   UNL     1      -6.404   4.279 121.967  0.00  0.00    +0.000 NA
ATOM     22  H   UNL     1      -6.065   4.235 122.928  0.00  0.00    +0.000 HD
BRANCH  21  23
ATOM     23  C   UNL     1      -5.301   4.042 121.040  0.00  0.00    +0.000 C 
BRANCH  23  24
ATOM     24  C   UNL     1      -5.065   5.265 120.152  0.00  0.00    +0.000 C 
BRANCH  24  25
ATOM     25  O   UNL     1      -4.309   6.248 120.848  0.00  0.00    +0.000 OA
ATOM     26  H   UNL     1      -3.724   5.783 121.469  0.00  0.00    +0.000 HD
ENDBRANCH  24  25
ENDBRANCH  23  24
ENDBRANCH  21  23
ENDBRANCH  20  21
ENDBRANCH  19  20
ENDBRANCH  17  19
ENDBRANCH   4  17
BRANCH  14  27
ATOM     27  O   UNL     1      -6.840  -2.743 129.694  0.00  0.00    +0.000 OA
ATOM     28  H   UNL     1      -5.889  -2.676 129.537  0.00  0.00    +0.000 HD
ENDBRANCH  14  27
BRANCH  11  29
ATOM     29  O   UNL     1      -9.868  -2.734 125.084  0.00  0.00    +0.000 OA
ATOM     30  H   UNL     1      -9.440  -3.338 124.437  0.00  0.00    +0.000 HD
ENDBRANCH  11  29
BRANCH   1  31
ATOM     31  N   UNL     1      -4.290   1.316 128.307  0.00  0.00    +0.000 N 
ATOM     32  H   UNL     1      -4.539   0.490 128.875  0.00  0.00    +0.000 HD
BRANCH  31  33
ATOM     33  C   UNL     1      -4.187   2.511 129.151  0.00  0.00    +0.000 C 
BRANCH  33  34
ATOM     34  C   UNL     1      -4.552   2.162 130.609  0.00  0.00    +0.000 C 
BRANCH  34  35
ATOM     35  N   UNL     1      -5.967   1.780 130.717  0.00  0.00    +0.000 NA
ATOM     36  H   UNL     1      -6.532   2.469 130.220  0.00  0.00    +0.000 HD
BRANCH  35  37
ATOM     37  C   UNL     1      -6.383   1.745 132.121  0.00  0.00    +0.000 C 
BRANCH  37  38
ATOM     38  C   UNL     1      -6.900   0.354 132.494  0.00  0.00    +0.000 C 
BRANCH  38  39
ATOM     39  O   UNL     1      -7.236  -0.366 131.314  0.00  0.00    +0.000 OA
ATOM     40  H   UNL     1      -7.741  -1.147 131.598  0.00  0.00    +0.000 HD
ENDBRANCH  38  39
ENDBRANCH  37  38
ENDBRANCH  35  37
ENDBRANCH  34  35
ENDBRANCH  33  34
ENDBRANCH  31  33
ENDBRANCH   1  31
TORSDOF 16
ENDMDL
MODEL 9
REMARK VINA RESULT:      -6.4      4.657      9.092
REMARK  Name = Mitoxantrone
REMARK  16 active torsions:
REMARK  status: ('A' for Active; 'I' for Inactive)
REMARK    1  A    between atoms: O_1  and  C_2
REMARK    2  A    between atoms: C_2  and  C_3
REMARK    3  A    between atoms: C_3  and  N_4
REMARK    4  A    between atoms: N_4  and  C_5
REMARK    5  A    between atoms: C_5  and  C_6
REMARK    6  A    between atoms: C_6  and  N_7
REMARK    7  A    between atoms: N_7  and  C_8
REMARK    8  A    between atoms: C_11  and  N_12
REMARK    9  A    between atoms: N_12  and  C_13
REMARK   10  A    between atoms: C_13  and  C_14
REMARK   11  A    between atoms: C_14  and  N_15
REMARK   12  A    between atoms: N_15  and  C_16
REMARK   13  A    between atoms: C_16  and  C_17
REMARK   14  A    between atoms: C_17  and  O_18
REMARK   15  A    between atoms: C_25  and  O_26
REMARK   16  A    between atoms: C_29  and  O_30
REMARK                            x       y       z     vdW  Elec       q    Type
REMARK                         _______ _______ _______ _____ _____    ______ ____
ROOT
ATOM      1  C   UNL     1      -8.286   2.049 129.136  0.00  0.00    +0.000 A 
ATOM      2  C   UNL     1      -8.166   1.087 130.126  0.00  0.00    +0.000 A 
ATOM      3  C   UNL     1      -7.786  -0.214 129.813  0.00  0.00    +0.000 A 
ATOM      4  C   UNL     1      -7.478  -0.616 128.505  0.00  0.00    +0.000 A 
ATOM      5  C   UNL     1      -7.558   0.359 127.489  0.00  0.00    +0.000 A 
ATOM      6  C   UNL     1      -7.959   1.672 127.810  0.00  0.00    +0.000 A 
ATOM      7  C   UNL     1      -8.028   2.692 126.756  0.00  0.00    +0.000 C 
ATOM      8  O   UNL     1      -8.374   3.834 127.064  0.00  0.00    +0.000 OA
ATOM      9  C   UNL     1      -7.690   2.361 125.367  0.00  0.00    +0.000 A 
ATOM     10  C   UNL     1      -7.315   1.060 125.027  0.00  0.00    +0.000 A 
ATOM     11  C   UNL     1      -7.016   0.765 123.689  0.00  0.00    +0.000 A 
ATOM     12  C   UNL     1      -7.092   1.760 122.713  0.00  0.00    +0.000 A 
ATOM     13  C   UNL     1      -7.463   3.059 123.059  0.00  0.00    +0.000 A 
ATOM     14  C   UNL     1      -7.759   3.357 124.380  0.00  0.00    +0.000 A 
ATOM     15  C   UNL     1      -7.239   0.018 126.072  0.00  0.00    +0.000 C 
ATOM     16  O   UNL     1      -6.904  -1.119 125.732  0.00  0.00    +0.000 OA
ENDROOT
BRANCH   4  17
ATOM     17  N   UNL     1      -7.153  -1.939 128.238  0.00  0.00    +0.000 N 
ATOM     18  H   UNL     1      -6.323  -2.111 127.665  0.00  0.00    +0.000 HD
BRANCH  17  19
ATOM     19  C   UNL     1      -7.842  -3.055 128.857  0.00  0.00    +0.000 C 
BRANCH  19  20
ATOM     20  C   UNL     1      -8.820  -3.729 127.891  0.00  0.00    +0.000 C 
BRANCH  20  21
ATOM     21  N   UNL     1      -8.435  -3.437 126.506  0.00  0.00    +0.000 NA
ATOM     22  H   UNL     1      -7.958  -4.245 126.104  0.00  0.00    +0.000 HD
BRANCH  21  23
ATOM     23  C   UNL     1      -9.610  -3.107 125.705  0.00  0.00    +0.000 C 
BRANCH  23  24
ATOM     24  C   UNL     1      -9.285  -3.172 124.211  0.00  0.00    +0.000 C 
BRANCH  24  25
ATOM     25  O   UNL     1      -7.878  -3.132 124.005  0.00  0.00    +0.000 OA
ATOM     26  H   UNL     1      -7.648  -3.861 123.404  0.00  0.00    +0.000 HD
ENDBRANCH  24  25
ENDBRANCH  23  24
ENDBRANCH  21  23
ENDBRANCH  20  21
ENDBRANCH  19  20
ENDBRANCH  17  19
ENDBRANCH   4  17
BRANCH  14  27
ATOM     27  O   UNL     1      -8.122   4.631 124.715  0.00  0.00    +0.000 OA
ATOM     28  H   UNL     1      -8.064   5.247 123.974  0.00  0.00    +0.000 HD
ENDBRANCH  14  27
BRANCH  11  29
ATOM     29  O   UNL     1      -6.643  -0.477 123.249  0.00  0.00    +0.000 OA
ATOM     30  H   UNL     1      -6.868  -1.135 123.944  0.00  0.00    +0.000 HD
ENDBRANCH  11  29
BRANCH   1  31
ATOM     31  N   UNL     1      -8.810   3.316 129.480  0.00  0.00    +0.000 N 
ATOM     32  H   UNL     1      -8.248   4.055 129.026  0.00  0.00    +0.000 HD
BRANCH  31  33
ATOM     33  C   UNL     1      -8.958   3.588 130.914  0.00  0.00    +0.000 C 
BRANCH  33  34
ATOM     34  C   UNL     1     -10.298   4.303 131.182  0.00  0.00    +0.000 C 
BRANCH  34  35
ATOM     35  N   UNL     1     -10.901   4.772 129.926  0.00  0.00    +0.000 NA
ATOM     36  H   UNL     1     -10.285   4.520 129.152  0.00  0.00    +0.000 HD
BRANCH  35  37
ATOM     37  C   UNL     1     -11.066   6.227 129.949  0.00  0.00    +0.000 C 
BRANCH  37  38
ATOM     38  C   UNL     1     -10.527   6.850 128.660  0.00  0.00    +0.000 C 
BRANCH  38  39
ATOM     39  O   UNL     1      -9.457   6.058 128.155  0.00  0.00    +0.000 OA
ATOM     40  H   UNL     1      -9.861   5.352 127.623  0.00  0.00    +0.000 HD
ENDBRANCH  38  39
ENDBRANCH  37  38
ENDBRANCH  35  37
ENDBRANCH  34  35
ENDBRANCH  33  34
ENDBRANCH  31  33
ENDBRANCH   1  31
TORSDOF 16
ENDMDL
