MODEL 1
REMARK VINA RESULT:      -6.3      0.000      0.000
REMARK  Name = Mitomycin
REMARK  7 active torsions:
REMARK  status: ('A' for Active; 'I' for Inactive)
REMARK    1  A    between atoms: C_7  and  C_8
REMARK    2  A    between atoms: C_8  and  O_9
REMARK    3  A    between atoms: O_9  and  C_10
REMARK    4  A    between atoms: C_13  and  O_14
REMARK    5  A    between atoms: O_14  and  C_15
REMARK    6  A    between atoms: C_21  and  N_22
REMARK    7  A    between atoms: C_23  and  C_24
REMARK                            x       y       z     vdW  Elec       q    Type
REMARK                         _______ _______ _______ _____ _____    ______ ____
ROOT
ATOM      1  C   UNL     1     -10.020   0.345 124.379  0.00  0.00    +0.000 C 
ATOM      2  C   UNL     1      -9.501   1.278 123.339  0.00  0.00    +0.000 C 
ATOM      3  N   UNL     1      -8.083   1.350 123.698  0.00  0.00    +0.000 N 
ATOM      4  C   UNL     1      -6.894   0.314 123.466  0.00  0.00    +0.000 C 
ATOM      5  C   UNL     1      -6.218   0.324 124.606  0.00  0.00    +0.000 C 
ATOM      6  C   UNL     1      -6.543   1.622 125.256  0.00  0.00    +0.000 C 
ATOM      7  C   UNL     1      -8.069   1.571 125.254  0.00  0.00    +0.000 C 
ATOM      8  C   UNL     1      -9.130   0.520 125.585  0.00  0.00    +0.000 C 
ATOM      9  N   UNL     1     -10.614   0.782 125.620  0.00  0.00    +0.000 NA
ATOM     10  C   UNL     1      -6.087  -0.991 125.359  0.00  0.00    +0.000 C 
ATOM     11  O   UNL     1      -5.515  -0.898 126.452  0.00  0.00    +0.000 OA
ATOM     12  C   UNL     1      -6.400  -2.471 124.676  0.00  0.00    +0.000 C 
ATOM     13  C   UNL     1      -5.464  -2.277 123.756  0.00  0.00    +0.000 C 
ATOM     14  C   UNL     1      -5.019  -4.004 124.035  0.00  0.00    +0.000 C 
ATOM     15  C   UNL     1      -6.832  -1.158 123.134  0.00  0.00    +0.000 C 
ATOM     16  O   UNL     1      -8.017  -1.486 122.927  0.00  0.00    +0.000 OA
ATOM     17  H   UNL     1     -10.874   1.772 125.562  0.00  0.00    +0.000 HD
ENDROOT
BRANCH  12  18
ATOM     18  N   UNL     1      -7.354  -3.396 123.791  0.00  0.00    +0.000 N 
ATOM     19  H   UNL     1      -6.800  -3.988 123.139  0.00  0.00    +0.000 HD
ATOM     20  H   UNL     1      -7.612  -4.268 124.327  0.00  0.00    +0.000 HD
ENDBRANCH  12  18
BRANCH   7  21
ATOM     21  O   UNL     1      -8.468   2.721 126.044  0.00  0.00    +0.000 OA
ATOM     22  C   UNL     1      -7.971   2.517 127.439  0.00  0.00    +0.000 C 
ENDBRANCH   7  21
BRANCH   6  23
ATOM     23  C   UNL     1      -6.194   2.896 124.292  0.00  0.00    +0.000 C 
BRANCH  23  24
ATOM     24  O   UNL     1      -5.387   3.839 125.017  0.00  0.00    +0.000 OA
BRANCH  24  25
ATOM     25  C   UNL     1      -5.926   4.969 125.501  0.00  0.00    +0.000 C 
ATOM     26  N   UNL     1      -7.130   5.384 125.085  0.00  0.00    +0.000 N 
ATOM     27  O   UNL     1      -5.304   5.637 126.393  0.00  0.00    +0.000 OA
ATOM     28  H   UNL     1      -7.676   4.940 124.352  0.00  0.00    +0.000 HD
ATOM     29  H   UNL     1      -7.539   6.183 125.546  0.00  0.00    +0.000 HD
ENDBRANCH  24  25
ENDBRANCH  23  24
ENDBRANCH   6  23
TORSDOF 5
ENDMDL
MODEL 2
REMARK VINA RESULT:      -6.2      6.763      9.671
REMARK  Name = Mitomycin
REMARK  7 active torsions:
REMARK  status: ('A' for Active; 'I' for Inactive)
REMARK    1  A    between atoms: C_7  and  C_8
REMARK    2  A    between atoms: C_8  and  O_9
REMARK    3  A    between atoms: O_9  and  C_10
REMARK    4  A    between atoms: C_13  and  O_14
REMARK    5  A    between atoms: O_14  and  C_15
REMARK    6  A    between atoms: C_21  and  N_22
REMARK    7  A    between atoms: C_23  and  C_24
REMARK                            x       y       z     vdW  Elec       q    Type
REMARK                         _______ _______ _______ _____ _____    ______ ____
ROOT
ATOM      1  C   UNL     1      -9.486   2.979 129.756  0.00  0.00    +0.000 C 
ATOM      2  C   UNL     1      -9.930   2.817 131.169  0.00  0.00    +0.000 C 
ATOM      3  N   UNL     1      -9.680   4.157 131.706  0.00  0.00    +0.000 N 
ATOM      4  C   UNL     1     -10.491   5.519 131.531  0.00  0.00    +0.000 C 
ATOM      5  C   UNL     1      -9.556   6.440 131.346  0.00  0.00    +0.000 C 
ATOM      6  C   UNL     1      -8.311   5.874 131.932  0.00  0.00    +0.000 C 
ATOM      7  C   UNL     1      -8.238   4.531 131.207  0.00  0.00    +0.000 C 
ATOM      8  C   UNL     1      -8.424   4.052 129.768  0.00  0.00    +0.000 C 
ATOM      9  N   UNL     1      -8.161   2.646 129.291  0.00  0.00    +0.000 NA
ATOM     10  C   UNL     1      -9.597   7.236 130.051  0.00  0.00    +0.000 C 
ATOM     11  O   UNL     1      -8.653   8.022 129.905  0.00  0.00    +0.000 OA
ATOM     12  C   UNL     1     -10.922   7.289 129.051  0.00  0.00    +0.000 C 
ATOM     13  C   UNL     1     -11.671   7.794 130.023  0.00  0.00    +0.000 C 
ATOM     14  C   UNL     1     -12.351   8.881 128.753  0.00  0.00    +0.000 C 
ATOM     15  C   UNL     1     -11.536   6.002 130.554  0.00  0.00    +0.000 C 
ATOM     16  O   UNL     1     -11.803   5.004 129.856  0.00  0.00    +0.000 OA
ATOM     17  H   UNL     1      -7.684   2.047 129.973  0.00  0.00    +0.000 HD
ENDROOT
BRANCH  12  18
ATOM     18  N   UNL     1     -12.091   6.516 128.286  0.00  0.00    +0.000 N 
ATOM     19  H   UNL     1     -12.992   6.599 128.800  0.00  0.00    +0.000 HD
ATOM     20  H   UNL     1     -12.493   7.128 127.526  0.00  0.00    +0.000 HD
ENDBRANCH  12  18
BRANCH   7  21
ATOM     21  O   UNL     1      -6.944   3.991 131.584  0.00  0.00    +0.000 OA
ATOM     22  C   UNL     1      -5.889   4.880 131.008  0.00  0.00    +0.000 C 
ENDBRANCH   7  21
BRANCH   6  23
ATOM     23  C   UNL     1      -8.503   5.461 133.502  0.00  0.00    +0.000 C 
BRANCH  23  24
ATOM     24  O   UNL     1      -7.304   5.773 134.230  0.00  0.00    +0.000 OA
BRANCH  24  25
ATOM     25  C   UNL     1      -7.284   5.714 135.570  0.00  0.00    +0.000 C 
ATOM     26  N   UNL     1      -8.278   6.250 136.292  0.00  0.00    +0.000 N 
ATOM     27  O   UNL     1      -6.329   5.112 136.165  0.00  0.00    +0.000 OA
ATOM     28  H   UNL     1      -9.054   6.782 135.907  0.00  0.00    +0.000 HD
ATOM     29  H   UNL     1      -8.273   6.097 137.289  0.00  0.00    +0.000 HD
ENDBRANCH  24  25
ENDBRANCH  23  24
ENDBRANCH   6  23
TORSDOF 5
ENDMDL
MODEL 3
REMARK VINA RESULT:      -6.2      3.176      5.434
REMARK  Name = Mitomycin
REMARK  7 active torsions:
REMARK  status: ('A' for Active; 'I' for Inactive)
REMARK    1  A    between atoms: C_7  and  C_8
REMARK    2  A    between atoms: C_8  and  O_9
REMARK    3  A    between atoms: O_9  and  C_10
REMARK    4  A    between atoms: C_13  and  O_14
REMARK    5  A    between atoms: O_14  and  C_15
REMARK    6  A    between atoms: C_21  and  N_22
REMARK    7  A    between atoms: C_23  and  C_24
REMARK                            x       y       z     vdW  Elec       q    Type
REMARK                         _______ _______ _______ _____ _____    ______ ____
ROOT
ATOM      1  C   UNL     1      -5.259  -2.629 124.937  0.00  0.00    +0.000 C 
ATOM      2  C   UNL     1      -5.401  -1.147 124.874  0.00  0.00    +0.000 C 
ATOM      3  N   UNL     1      -6.660  -0.947 125.596  0.00  0.00    +0.000 N 
ATOM      4  C   UNL     1      -6.986  -0.986 127.157  0.00  0.00    +0.000 C 
ATOM      5  C   UNL     1      -8.130  -1.649 127.240  0.00  0.00    +0.000 C 
ATOM      6  C   UNL     1      -8.770  -1.520 125.903  0.00  0.00    +0.000 C 
ATOM      7  C   UNL     1      -7.645  -2.016 124.997  0.00  0.00    +0.000 C 
ATOM      8  C   UNL     1      -6.660  -3.185 125.014  0.00  0.00    +0.000 C 
ATOM      9  N   UNL     1      -5.708  -3.520 123.894  0.00  0.00    +0.000 NA
ATOM     10  C   UNL     1      -8.146  -2.926 128.066  0.00  0.00    +0.000 C 
ATOM     11  O   UNL     1      -9.220  -3.538 128.038  0.00  0.00    +0.000 OA
ATOM     12  C   UNL     1      -6.955  -3.327 129.152  0.00  0.00    +0.000 C 
ATOM     13  C   UNL     1      -7.182  -2.224 129.853  0.00  0.00    +0.000 C 
ATOM     14  C   UNL     1      -6.993  -3.271 131.311  0.00  0.00    +0.000 C 
ATOM     15  C   UNL     1      -6.271  -1.537 128.366  0.00  0.00    +0.000 C 
ATOM     16  O   UNL     1      -5.168  -1.926 127.932  0.00  0.00    +0.000 OA
ATOM     17  H   UNL     1      -5.870  -3.000 123.026  0.00  0.00    +0.000 HD
ENDROOT
BRANCH  12  18
ATOM     18  N   UNL     1      -5.401  -3.458 129.491  0.00  0.00    +0.000 N 
ATOM     19  H   UNL     1      -4.989  -4.298 129.036  0.00  0.00    +0.000 HD
ATOM     20  H   UNL     1      -4.835  -2.854 128.837  0.00  0.00    +0.000 HD
ENDBRANCH  12  18
BRANCH   7  21
ATOM     21  O   UNL     1      -8.254  -2.099 123.682  0.00  0.00    +0.000 OA
ATOM     22  C   UNL     1      -9.293  -3.173 123.723  0.00  0.00    +0.000 C 
ENDBRANCH   7  21
BRANCH   6  23
ATOM     23  C   UNL     1      -8.965   0.043 125.464  0.00  0.00    +0.000 C 
BRANCH  23  24
ATOM     24  O   UNL     1     -10.171   0.178 124.693  0.00  0.00    +0.000 OA
BRANCH  24  25
ATOM     25  C   UNL     1     -10.165   0.839 123.525  0.00  0.00    +0.000 C 
ATOM     26  N   UNL     1      -9.370   1.904 123.349  0.00  0.00    +0.000 N 
ATOM     27  O   UNL     1     -10.894   0.431 122.561  0.00  0.00    +0.000 OA
ATOM     28  H   UNL     1      -8.790   2.322 124.070  0.00  0.00    +0.000 HD
ATOM     29  H   UNL     1      -9.324   2.310 122.426  0.00  0.00    +0.000 HD
ENDBRANCH  24  25
ENDBRANCH  23  24
ENDBRANCH   6  23
TORSDOF 5
ENDMDL
MODEL 4
REMARK VINA RESULT:      -6.1      7.092      9.202
REMARK  Name = Mitomycin
REMARK  7 active torsions:
REMARK  status: ('A' for Active; 'I' for Inactive)
REMARK    1  A    between atoms: C_7  and  C_8
REMARK    2  A    between atoms: C_8  and  O_9
REMARK    3  A    between atoms: O_9  and  C_10
REMARK    4  A    between atoms: C_13  and  O_14
REMARK    5  A    between atoms: O_14  and  C_15
REMARK    6  A    between atoms: C_21  and  N_22
REMARK    7  A    between atoms: C_23  and  C_24
REMARK                            x       y       z     vdW  Elec       q    Type
REMARK                         _______ _______ _______ _____ _____    ______ ____
ROOT
ATOM      1  C   UNL     1      -8.751   3.746 133.642  0.00  0.00    +0.000 C 
ATOM      2  C   UNL     1      -7.806   4.839 134.009  0.00  0.00    +0.000 C 
ATOM      3  N   UNL     1      -7.483   5.394 132.693  0.00  0.00    +0.000 N 
ATOM      4  C   UNL     1      -8.323   6.346 131.727  0.00  0.00    +0.000 C 
ATOM      5  C   UNL     1      -8.137   5.836 130.517  0.00  0.00    +0.000 C 
ATOM      6  C   UNL     1      -6.875   5.053 130.598  0.00  0.00    +0.000 C 
ATOM      7  C   UNL     1      -7.176   4.146 131.789  0.00  0.00    +0.000 C 
ATOM      8  C   UNL     1      -8.365   3.303 132.252  0.00  0.00    +0.000 C 
ATOM      9  N   UNL     1      -8.347   2.375 133.440  0.00  0.00    +0.000 NA
ATOM     10  C   UNL     1      -9.368   5.381 129.749  0.00  0.00    +0.000 C 
ATOM     11  O   UNL     1      -9.121   4.844 128.662  0.00  0.00    +0.000 OA
ATOM     12  C   UNL     1     -10.916   5.820 130.159  0.00  0.00    +0.000 C 
ATOM     13  C   UNL     1     -10.624   7.105 130.005  0.00  0.00    +0.000 C 
ATOM     14  C   UNL     1     -12.237   7.239 129.205  0.00  0.00    +0.000 C 
ATOM     15  C   UNL     1      -9.780   6.726 131.634  0.00  0.00    +0.000 C 
ATOM     16  O   UNL     1     -10.309   6.201 132.634  0.00  0.00    +0.000 OA
ATOM     17  H   UNL     1      -7.418   2.214 133.841  0.00  0.00    +0.000 HD
ENDROOT
BRANCH  12  18
ATOM     18  N   UNL     1     -12.033   6.007 131.284  0.00  0.00    +0.000 N 
ATOM     19  H   UNL     1     -12.534   5.114 131.466  0.00  0.00    +0.000 HD
ATOM     20  H   UNL     1     -11.597   5.932 132.243  0.00  0.00    +0.000 HD
ENDBRANCH  12  18
BRANCH   7  21
ATOM     21  O   UNL     1      -6.062   3.214 131.821  0.00  0.00    +0.000 OA
ATOM     22  C   UNL     1      -6.149   2.353 130.602  0.00  0.00    +0.000 C 
ENDBRANCH   7  21
BRANCH   6  23
ATOM     23  C   UNL     1      -5.618   5.965 131.109  0.00  0.00    +0.000 C 
BRANCH  23  24
ATOM     24  O   UNL     1      -5.279   6.926 130.096  0.00  0.00    +0.000 OA
BRANCH  24  25
ATOM     25  C   UNL     1      -4.326   7.845 130.316  0.00  0.00    +0.000 C 
ATOM     26  N   UNL     1      -4.165   8.875 129.475  0.00  0.00    +0.000 N 
ATOM     27  O   UNL     1      -3.589   7.758 131.355  0.00  0.00    +0.000 OA
ATOM     28  H   UNL     1      -4.676   9.002 128.606  0.00  0.00    +0.000 HD
ATOM     29  H   UNL     1      -3.505   9.595 129.731  0.00  0.00    +0.000 HD
ENDBRANCH  24  25
ENDBRANCH  23  24
ENDBRANCH   6  23
TORSDOF 5
ENDMDL
MODEL 5
REMARK VINA RESULT:      -6.1      5.005      8.593
REMARK  Name = Mitomycin
REMARK  7 active torsions:
REMARK  status: ('A' for Active; 'I' for Inactive)
REMARK    1  A    between atoms: C_7  and  C_8
REMARK    2  A    between atoms: C_8  and  O_9
REMARK    3  A    between atoms: O_9  and  C_10
REMARK    4  A    between atoms: C_13  and  O_14
REMARK    5  A    between atoms: O_14  and  C_15
REMARK    6  A    between atoms: C_21  and  N_22
REMARK    7  A    between atoms: C_23  and  C_24
REMARK                            x       y       z     vdW  Elec       q    Type
REMARK                         _______ _______ _______ _____ _____    ______ ____
ROOT
ATOM      1  C   UNL     1      -7.180   3.926 132.747  0.00  0.00    +0.000 C 
ATOM      2  C   UNL     1      -6.301   4.625 131.766  0.00  0.00    +0.000 C 
ATOM      3  N   UNL     1      -7.166   4.669 130.585  0.00  0.00    +0.000 N 
ATOM      4  C   UNL     1      -8.415   5.600 130.240  0.00  0.00    +0.000 C 
ATOM      5  C   UNL     1      -9.303   4.776 129.701  0.00  0.00    +0.000 C 
ATOM      6  C   UNL     1      -8.522   3.614 129.198  0.00  0.00    +0.000 C 
ATOM      7  C   UNL     1      -7.755   3.217 130.458  0.00  0.00    +0.000 C 
ATOM      8  C   UNL     1      -8.095   3.041 131.938  0.00  0.00    +0.000 C 
ATOM      9  N   UNL     1      -7.146   2.502 132.978  0.00  0.00    +0.000 NA
ATOM     10  C   UNL     1     -10.657   4.656 130.382  0.00  0.00    +0.000 C 
ATOM     11  O   UNL     1     -11.409   3.815 129.877  0.00  0.00    +0.000 OA
ATOM     12  C   UNL     1     -11.215   5.744 131.506  0.00  0.00    +0.000 C 
ATOM     13  C   UNL     1     -11.135   6.736 130.628  0.00  0.00    +0.000 C 
ATOM     14  C   UNL     1     -12.721   7.279 131.297  0.00  0.00    +0.000 C 
ATOM     15  C   UNL     1      -9.330   6.477 131.060  0.00  0.00    +0.000 C 
ATOM     16  O   UNL     1      -8.840   6.461 132.207  0.00  0.00    +0.000 OA
ATOM     17  H   UNL     1      -6.282   2.100 132.600  0.00  0.00    +0.000 HD
ENDROOT
BRANCH  12  18
ATOM     18  N   UNL     1     -10.947   6.619 132.814  0.00  0.00    +0.000 N 
ATOM     19  H   UNL     1     -10.181   7.305 132.654  0.00  0.00    +0.000 HD
ATOM     20  H   UNL     1     -11.628   7.425 132.857  0.00  0.00    +0.000 HD
ENDBRANCH  12  18
BRANCH   7  21
ATOM     21  O   UNL     1      -7.106   1.968 130.104  0.00  0.00    +0.000 OA
ATOM     22  C   UNL     1      -8.170   0.940 129.890  0.00  0.00    +0.000 C 
ENDBRANCH   7  21
BRANCH   6  23
ATOM     23  C   UNL     1      -7.350   4.066 128.153  0.00  0.00    +0.000 C 
BRANCH  23  24
ATOM     24  O   UNL     1      -7.739   3.716 126.814  0.00  0.00    +0.000 OA
BRANCH  24  25
ATOM     25  C   UNL     1      -7.977   4.669 125.900  0.00  0.00    +0.000 C 
ATOM     26  N   UNL     1      -7.314   4.679 124.736  0.00  0.00    +0.000 N 
ATOM     27  O   UNL     1      -8.870   5.554 126.123  0.00  0.00    +0.000 OA
ATOM     28  H   UNL     1      -6.561   4.041 124.491  0.00  0.00    +0.000 HD
ATOM     29  H   UNL     1      -7.594   5.353 124.039  0.00  0.00    +0.000 HD
ENDBRANCH  24  25
ENDBRANCH  23  24
ENDBRANCH   6  23
TORSDOF 5
ENDMDL
MODEL 6
REMARK VINA RESULT:      -5.9      6.682      9.338
REMARK  Name = Mitomycin
REMARK  7 active torsions:
REMARK  status: ('A' for Active; 'I' for Inactive)
REMARK    1  A    between atoms: C_7  and  C_8
REMARK    2  A    between atoms: C_8  and  O_9
REMARK    3  A    between atoms: O_9  and  C_10
REMARK    4  A    between atoms: C_13  and  O_14
REMARK    5  A    between atoms: O_14  and  C_15
REMARK    6  A    between atoms: C_21  and  N_22
REMARK    7  A    between atoms: C_23  and  C_24
REMARK                            x       y       z     vdW  Elec       q    Type
REMARK                         _______ _______ _______ _____ _____    ______ ____
ROOT
ATOM      1  C   UNL     1      -6.224   2.955 130.181  0.00  0.00    +0.000 C 
ATOM      2  C   UNL     1      -7.042   3.881 129.348  0.00  0.00    +0.000 C 
ATOM      3  N   UNL     1      -7.210   5.016 130.258  0.00  0.00    +0.000 N 
ATOM      4  C   UNL     1      -6.198   6.174 130.680  0.00  0.00    +0.000 C 
ATOM      5  C   UNL     1      -6.372   6.305 131.988  0.00  0.00    +0.000 C 
ATOM      6  C   UNL     1      -7.727   5.759 132.272  0.00  0.00    +0.000 C 
ATOM      7  C   UNL     1      -7.618   4.376 131.634  0.00  0.00    +0.000 C 
ATOM      8  C   UNL     1      -6.577   3.256 131.617  0.00  0.00    +0.000 C 
ATOM      9  N   UNL     1      -6.786   1.901 130.991  0.00  0.00    +0.000 NA
ATOM     10  C   UNL     1      -5.165   6.082 132.885  0.00  0.00    +0.000 C 
ATOM     11  O   UNL     1      -5.411   6.141 134.096  0.00  0.00    +0.000 OA
ATOM     12  C   UNL     1      -3.601   6.061 132.326  0.00  0.00    +0.000 C 
ATOM     13  C   UNL     1      -3.717   7.302 131.870  0.00  0.00    +0.000 C 
ATOM     14  C   UNL     1      -2.055   7.556 132.525  0.00  0.00    +0.000 C 
ATOM     15  C   UNL     1      -4.701   6.344 130.594  0.00  0.00    +0.000 C 
ATOM     16  O   UNL     1      -4.305   5.351 129.951  0.00  0.00    +0.000 OA
ATOM     17  H   UNL     1      -7.750   1.707 130.704  0.00  0.00    +0.000 HD
ENDROOT
BRANCH  12  18
ATOM     18  N   UNL     1      -2.541   5.554 131.246  0.00  0.00    +0.000 N 
ATOM     19  H   UNL     1      -1.734   5.085 131.707  0.00  0.00    +0.000 HD
ATOM     20  H   UNL     1      -2.837   4.616 130.861  0.00  0.00    +0.000 HD
ENDBRANCH  12  18
BRANCH   7  21
ATOM     21  O   UNL     1      -8.841   3.701 132.030  0.00  0.00    +0.000 OA
ATOM     22  C   UNL     1      -8.796   3.498 133.511  0.00  0.00    +0.000 C 
ENDBRANCH   7  21
BRANCH   6  23
ATOM     23  C   UNL     1      -8.886   6.505 131.392  0.00  0.00    +0.000 C 
BRANCH  23  24
ATOM     24  O   UNL     1     -10.095   6.589 132.165  0.00  0.00    +0.000 OA
BRANCH  24  25
ATOM     25  C   UNL     1     -11.253   6.122 131.675  0.00  0.00    +0.000 C 
ATOM     26  N   UNL     1     -11.287   4.975 130.982  0.00  0.00    +0.000 N 
ATOM     27  O   UNL     1     -12.339   6.753 131.901  0.00  0.00    +0.000 OA
ATOM     28  H   UNL     1     -10.471   4.430 130.719  0.00  0.00    +0.000 HD
ATOM     29  H   UNL     1     -12.191   4.610 130.718  0.00  0.00    +0.000 HD
ENDBRANCH  24  25
ENDBRANCH  23  24
ENDBRANCH   6  23
TORSDOF 5
ENDMDL
MODEL 7
REMARK VINA RESULT:      -5.9      6.190      9.356
REMARK  Name = Mitomycin
REMARK  7 active torsions:
REMARK  status: ('A' for Active; 'I' for Inactive)
REMARK    1  A    between atoms: C_7  and  C_8
REMARK    2  A    between atoms: C_8  and  O_9
REMARK    3  A    between atoms: O_9  and  C_10
REMARK    4  A    between atoms: C_13  and  O_14
REMARK    5  A    between atoms: O_14  and  C_15
REMARK    6  A    between atoms: C_21  and  N_22
REMARK    7  A    between atoms: C_23  and  C_24
REMARK                            x       y       z     vdW  Elec       q    Type
REMARK                         _______ _______ _______ _____ _____    ______ ____
ROOT
ATOM      1  C   UNL     1      -7.683   4.593 128.715  0.00  0.00    +0.000 C 
ATOM      2  C   UNL     1      -8.276   3.231 128.834  0.00  0.00    +0.000 C 
ATOM      3  N   UNL     1      -8.823   3.272 130.192  0.00  0.00    +0.000 N 
ATOM      4  C   UNL     1     -10.134   3.973 130.769  0.00  0.00    +0.000 C 
ATOM      5  C   UNL     1      -9.745   4.510 131.917  0.00  0.00    +0.000 C 
ATOM      6  C   UNL     1      -8.535   3.750 132.329  0.00  0.00    +0.000 C 
ATOM      7  C   UNL     1      -7.673   3.881 131.074  0.00  0.00    +0.000 C 
ATOM      8  C   UNL     1      -7.301   5.011 130.114  0.00  0.00    +0.000 C 
ATOM      9  N   UNL     1      -6.298   4.889 128.995  0.00  0.00    +0.000 NA
ATOM     10  C   UNL     1      -9.895   6.015 132.077  0.00  0.00    +0.000 C 
ATOM     11  O   UNL     1      -9.442   6.462 133.137  0.00  0.00    +0.000 OA
ATOM     12  C   UNL     1     -10.840   6.950 131.083  0.00  0.00    +0.000 C 
ATOM     13  C   UNL     1     -11.924   6.259 131.412  0.00  0.00    +0.000 C 
ATOM     14  C   UNL     1     -12.763   7.855 131.472  0.00  0.00    +0.000 C 
ATOM     15  C   UNL     1     -11.053   5.059 130.265  0.00  0.00    +0.000 C 
ATOM     16  O   UNL     1     -10.652   5.303 129.109  0.00  0.00    +0.000 OA
ATOM     17  H   UNL     1      -5.745   4.027 129.009  0.00  0.00    +0.000 HD
ENDROOT
BRANCH  12  18
ATOM     18  N   UNL     1     -11.302   7.343 129.606  0.00  0.00    +0.000 N 
ATOM     19  H   UNL     1     -10.480   7.487 128.984  0.00  0.00    +0.000 HD
ATOM     20  H   UNL     1     -11.537   6.473 129.056  0.00  0.00    +0.000 HD
ENDBRANCH  12  18
BRANCH   7  21
ATOM     21  O   UNL     1      -6.390   3.322 131.461  0.00  0.00    +0.000 OA
ATOM     22  C   UNL     1      -5.779   4.233 132.477  0.00  0.00    +0.000 C 
ENDBRANCH   7  21
BRANCH   6  23
ATOM     23  C   UNL     1      -8.825   2.144 132.437  0.00  0.00    +0.000 C 
BRANCH  23  24
ATOM     24  O   UNL     1      -7.886   1.548 133.348  0.00  0.00    +0.000 OA
BRANCH  24  25
ATOM     25  C   UNL     1      -7.149   0.491 132.974  0.00  0.00    +0.000 C 
ATOM     26  N   UNL     1      -6.780   0.334 131.695  0.00  0.00    +0.000 N 
ATOM     27  O   UNL     1      -6.763  -0.355 133.849  0.00  0.00    +0.000 OA
ATOM     28  H   UNL     1      -7.074   0.932 130.928  0.00  0.00    +0.000 HD
ATOM     29  H   UNL     1      -6.145  -0.419 131.476  0.00  0.00    +0.000 HD
ENDBRANCH  24  25
ENDBRANCH  23  24
ENDBRANCH   6  23
TORSDOF 5
ENDMDL
MODEL 8
REMARK VINA RESULT:      -5.9      2.599      3.093
REMARK  Name = Mitomycin
REMARK  7 active torsions:
REMARK  status: ('A' for Active; 'I' for Inactive)
REMARK    1  A    between atoms: C_7  and  C_8
REMARK    2  A    between atoms: C_8  and  O_9
REMARK    3  A    between atoms: O_9  and  C_10
REMARK    4  A    between atoms: C_13  and  O_14
REMARK    5  A    between atoms: O_14  and  C_15
REMARK    6  A    between atoms: C_21  and  N_22
REMARK    7  A    between atoms: C_23  and  C_24
REMARK                            x       y       z     vdW  Elec       q    Type
REMARK                         _______ _______ _______ _____ _____    ______ ____
ROOT
ATOM      1  C   UNL     1      -8.316   2.884 124.376  0.00  0.00    +0.000 C 
ATOM      2  C   UNL     1      -6.943   2.819 123.800  0.00  0.00    +0.000 C 
ATOM      3  N   UNL     1      -6.228   2.078 124.842  0.00  0.00    +0.000 N 
ATOM      4  C   UNL     1      -6.228   0.526 125.206  0.00  0.00    +0.000 C 
ATOM      5  C   UNL     1      -6.276   0.496 126.530  0.00  0.00    +0.000 C 
ATOM      6  C   UNL     1      -5.757   1.814 126.983  0.00  0.00    +0.000 C 
ATOM      7  C   UNL     1      -6.654   2.763 126.191  0.00  0.00    +0.000 C 
ATOM      8  C   UNL     1      -8.147   2.850 125.875  0.00  0.00    +0.000 C 
ATOM      9  N   UNL     1      -8.805   3.997 125.152  0.00  0.00    +0.000 NA
ATOM     10  C   UNL     1      -7.452  -0.219 127.177  0.00  0.00    +0.000 C 
ATOM     11  O   UNL     1      -7.480  -0.142 128.411  0.00  0.00    +0.000 OA
ATOM     12  C   UNL     1      -8.451  -1.262 126.358  0.00  0.00    +0.000 C 
ATOM     13  C   UNL     1      -7.430  -2.056 126.063  0.00  0.00    +0.000 C 
ATOM     14  C   UNL     1      -8.550  -3.418 126.445  0.00  0.00    +0.000 C 
ATOM     15  C   UNL     1      -7.143  -0.630 124.881  0.00  0.00    +0.000 C 
ATOM     16  O   UNL     1      -7.973  -0.161 124.077  0.00  0.00    +0.000 OA
ATOM     17  H   UNL     1      -8.205   4.817 125.017  0.00  0.00    +0.000 HD
ENDROOT
BRANCH  12  18
ATOM     18  N   UNL     1      -9.328  -1.584 125.062  0.00  0.00    +0.000 N 
ATOM     19  H   UNL     1      -9.281  -0.802 124.377  0.00  0.00    +0.000 HD
ATOM     20  H   UNL     1      -8.773  -2.178 124.389  0.00  0.00    +0.000 HD
ENDBRANCH  12  18
BRANCH   7  21
ATOM     21  O   UNL     1      -6.338   4.078 126.718  0.00  0.00    +0.000 OA
ATOM     22  C   UNL     1      -6.786   4.123 128.144  0.00  0.00    +0.000 C 
ENDBRANCH   7  21
BRANCH   6  23
ATOM     23  C   UNL     1      -4.259   2.117 126.402  0.00  0.00    +0.000 C 
BRANCH  23  24
ATOM     24  O   UNL     1      -3.445   2.680 127.444  0.00  0.00    +0.000 OA
BRANCH  24  25
ATOM     25  C   UNL     1      -2.310   3.332 127.148  0.00  0.00    +0.000 C 
ATOM     26  N   UNL     1      -2.171   4.631 127.448  0.00  0.00    +0.000 N 
ATOM     27  O   UNL     1      -1.339   2.703 126.609  0.00  0.00    +0.000 OA
ATOM     28  H   UNL     1      -2.903   5.219 127.838  0.00  0.00    +0.000 HD
ATOM     29  H   UNL     1      -1.268   5.056 127.298  0.00  0.00    +0.000 HD
ENDBRANCH  24  25
ENDBRANCH  23  24
ENDBRANCH   6  23
TORSDOF 5
ENDMDL
MODEL 9
REMARK VINA RESULT:      -5.8      2.452      3.623
REMARK  Name = Mitomycin
REMARK  7 active torsions:
REMARK  status: ('A' for Active; 'I' for Inactive)
REMARK    1  A    between atoms: C_7  and  C_8
REMARK    2  A    between atoms: C_8  and  O_9
REMARK    3  A    between atoms: O_9  and  C_10
REMARK    4  A    between atoms: C_13  and  O_14
REMARK    5  A    between atoms: O_14  and  C_15
REMARK    6  A    between atoms: C_21  and  N_22
REMARK    7  A    between atoms: C_23  and  C_24
REMARK                            x       y       z     vdW  Elec       q    Type
REMARK                         _______ _______ _______ _____ _____    ______ ____
ROOT
ATOM      1  C   UNL     1      -8.275  -2.443 123.875  0.00  0.00    +0.000 C 
ATOM      2  C   UNL     1      -7.178  -1.933 123.005  0.00  0.00    +0.000 C 
ATOM      3  N   UNL     1      -6.865  -0.658 123.653  0.00  0.00    +0.000 N 
ATOM      4  C   UNL     1      -6.053  -0.338 124.987  0.00  0.00    +0.000 C 
ATOM      5  C   UNL     1      -6.765   0.604 125.590  0.00  0.00    +0.000 C 
ATOM      6  C   UNL     1      -7.576   1.243 124.520  0.00  0.00    +0.000 C 
ATOM      7  C   UNL     1      -8.259   0.021 123.908  0.00  0.00    +0.000 C 
ATOM      8  C   UNL     1      -8.960  -1.226 124.447  0.00  0.00    +0.000 C 
ATOM      9  N   UNL     1      -9.677  -2.242 123.595  0.00  0.00    +0.000 NA
ATOM     10  C   UNL     1      -7.288   0.307 126.986  0.00  0.00    +0.000 C 
ATOM     11  O   UNL     1      -8.010   1.193 127.460  0.00  0.00    +0.000 OA
ATOM     12  C   UNL     1      -6.721  -0.936 127.930  0.00  0.00    +0.000 C 
ATOM     13  C   UNL     1      -5.493  -0.433 127.907  0.00  0.00    +0.000 C 
ATOM     14  C   UNL     1      -5.426  -0.865 129.657  0.00  0.00    +0.000 C 
ATOM     15  C   UNL     1      -5.630  -1.157 126.183  0.00  0.00    +0.000 C 
ATOM     16  O   UNL     1      -5.958  -2.326 125.898  0.00  0.00    +0.000 OA
ATOM     17  H   UNL     1      -9.808  -1.963 122.618  0.00  0.00    +0.000 HD
ENDROOT
BRANCH  12  18
ATOM     18  N   UNL     1      -6.300  -2.470 128.065  0.00  0.00    +0.000 N 
ATOM     19  H   UNL     1      -5.395  -2.653 127.585  0.00  0.00    +0.000 HD
ATOM     20  H   UNL     1      -5.817  -2.634 128.989  0.00  0.00    +0.000 HD
ENDBRANCH  12  18
BRANCH   7  21
ATOM     21  O   UNL     1      -9.218   0.577 122.972  0.00  0.00    +0.000 OA
ATOM     22  C   UNL     1     -10.239   1.337 123.756  0.00  0.00    +0.000 C 
ENDBRANCH   7  21
BRANCH   6  23
ATOM     23  C   UNL     1      -6.647   1.821 123.305  0.00  0.00    +0.000 C 
BRANCH  23  24
ATOM     24  O   UNL     1      -7.022   3.177 123.017  0.00  0.00    +0.000 OA
BRANCH  24  25
ATOM     25  C   UNL     1      -7.421   3.529 121.785  0.00  0.00    +0.000 C 
ATOM     26  N   UNL     1      -8.719   3.497 121.453  0.00  0.00    +0.000 N 
ATOM     27  O   UNL     1      -6.563   3.934 120.931  0.00  0.00    +0.000 OA
ATOM     28  H   UNL     1      -9.464   3.152 122.052  0.00  0.00    +0.000 HD
ATOM     29  H   UNL     1      -8.985   3.863 120.551  0.00  0.00    +0.000 HD
ENDBRANCH  24  25
ENDBRANCH  23  24
ENDBRANCH   6  23
TORSDOF 5
ENDMDL
