MODEL 1
REMARK VINA RESULT:      -6.9      0.000      0.000
REMARK  Name = Mitotane
REMARK  3 active torsions:
REMARK  status: ('A' for Active; 'I' for Inactive)
REMARK    1  A    between atoms: C_2  and  C_4
REMARK    2  A    between atoms: C_4  and  C_5
REMARK    3  A    between atoms: C_4  and  C_12
REMARK                            x       y       z     vdW  Elec       q    Type
REMARK                         _______ _______ _______ _____ _____    ______ ____
ROOT
ATOM      1  C   UNL     1      -8.089   2.083 123.857  0.00  0.00    +0.000 C 
ENDROOT
BRANCH   1   2
ATOM      2  C   UNL     1      -7.727   2.833 122.556  0.00  0.00    +0.000 A 
ATOM      3  C   UNL     1      -6.393   3.085 122.199  0.00  0.00    +0.000 A 
ATOM      4  C   UNL     1      -6.079   3.748 121.010  0.00  0.00    +0.000 A 
ATOM      5  C   UNL     1      -7.089   4.130 120.138  0.00  0.00    +0.000 A 
ATOM      6 CL   UNL     1      -6.690   4.913 118.660  0.00  0.00    +0.000 Cl
ATOM      7  C   UNL     1      -8.420   3.879 120.455  0.00  0.00    +0.000 A 
ATOM      8  C   UNL     1      -8.737   3.257 121.668  0.00  0.00    +0.000 A 
ENDBRANCH   1   2
BRANCH   1   9
ATOM      9  C   UNL     1      -7.872   0.559 123.660  0.00  0.00    +0.000 A 
ATOM     10  C   UNL     1      -6.686   0.006 124.213  0.00  0.00    +0.000 A 
ATOM     11  C   UNL     1      -6.408  -1.365 124.157  0.00  0.00    +0.000 A 
ATOM     12  C   UNL     1      -7.273  -2.219 123.500  0.00  0.00    +0.000 A 
ATOM     13  C   UNL     1      -8.430  -1.708 122.924  0.00  0.00    +0.000 A 
ATOM     14  C   UNL     1      -8.750  -0.346 123.029  0.00  0.00    +0.000 A 
ATOM     15 CL   UNL     1     -10.300   0.037 122.370  0.00  0.00    +0.000 Cl
ENDBRANCH   1   9
BRANCH   1  17
ATOM     16 CL   UNL     1      -7.676   4.502 125.241  0.00  0.00    +0.000 Cl
ATOM     17  C   UNL     1      -7.465   2.716 125.143  0.00  0.00    +0.000 C 
ATOM     18 CL   UNL     1      -8.168   2.033 126.646  0.00  0.00    +0.000 Cl
ENDBRANCH   1  17
TORSDOF 3
ENDMDL
MODEL 2
REMARK VINA RESULT:      -6.6      2.469      5.860
REMARK  Name = Mitotane
REMARK  3 active torsions:
REMARK  status: ('A' for Active; 'I' for Inactive)
REMARK    1  A    between atoms: C_2  and  C_4
REMARK    2  A    between atoms: C_4  and  C_5
REMARK    3  A    between atoms: C_4  and  C_12
REMARK                            x       y       z     vdW  Elec       q    Type
REMARK                         _______ _______ _______ _____ _____    ______ ____
ROOT
ATOM      1  C   UNL     1      -7.766   0.489 124.130  0.00  0.00    +0.000 C 
ENDROOT
BRANCH   1   2
ATOM      2  C   UNL     1      -6.850  -0.751 124.020  0.00  0.00    +0.000 A 
ATOM      3  C   UNL     1      -6.418  -1.450 125.158  0.00  0.00    +0.000 A 
ATOM      4  C   UNL     1      -5.605  -2.581 125.043  0.00  0.00    +0.000 A 
ATOM      5  C   UNL     1      -5.247  -3.056 123.789  0.00  0.00    +0.000 A 
ATOM      6 CL   UNL     1      -4.276  -4.469 123.657  0.00  0.00    +0.000 Cl
ATOM      7  C   UNL     1      -5.673  -2.395 122.642  0.00  0.00    +0.000 A 
ATOM      8  C   UNL     1      -6.449  -1.236 122.758  0.00  0.00    +0.000 A 
ENDBRANCH   1   2
BRANCH   1   9
ATOM      9  C   UNL     1      -6.908   1.780 124.043  0.00  0.00    +0.000 A 
ATOM     10  C   UNL     1      -6.899   2.458 122.794  0.00  0.00    +0.000 A 
ATOM     11  C   UNL     1      -6.216   3.665 122.607  0.00  0.00    +0.000 A 
ATOM     12  C   UNL     1      -5.476   4.206 123.641  0.00  0.00    +0.000 A 
ATOM     13  C   UNL     1      -5.440   3.556 124.869  0.00  0.00    +0.000 A 
ATOM     14  C   UNL     1      -6.172   2.378 125.085  0.00  0.00    +0.000 A 
ATOM     15 CL   UNL     1      -6.099   1.828 126.721  0.00  0.00    +0.000 Cl
ENDBRANCH   1   9
BRANCH   1  17
ATOM     16 CL   UNL     1      -9.636  -1.248 122.937  0.00  0.00    +0.000 Cl
ATOM     17  C   UNL     1      -9.026   0.425 123.209  0.00  0.00    +0.000 C 
ATOM     18 CL   UNL     1     -10.400   1.372 123.870  0.00  0.00    +0.000 Cl
ENDBRANCH   1  17
TORSDOF 3
ENDMDL
MODEL 3
REMARK VINA RESULT:      -6.6      3.440      7.240
REMARK  Name = Mitotane
REMARK  3 active torsions:
REMARK  status: ('A' for Active; 'I' for Inactive)
REMARK    1  A    between atoms: C_2  and  C_4
REMARK    2  A    between atoms: C_4  and  C_5
REMARK    3  A    between atoms: C_4  and  C_12
REMARK                            x       y       z     vdW  Elec       q    Type
REMARK                         _______ _______ _______ _____ _____    ______ ____
ROOT
ATOM      1  C   UNL     1      -7.277  -2.409 124.192  0.00  0.00    +0.000 C 
ENDROOT
BRANCH   1   2
ATOM      2  C   UNL     1      -7.453  -2.594 125.716  0.00  0.00    +0.000 A 
ATOM      3  C   UNL     1      -8.584  -3.227 126.254  0.00  0.00    +0.000 A 
ATOM      4  C   UNL     1      -8.722  -3.403 127.633  0.00  0.00    +0.000 A 
ATOM      5  C   UNL     1      -7.713  -2.990 128.493  0.00  0.00    +0.000 A 
ATOM      6 CL   UNL     1      -7.876  -3.244 130.185  0.00  0.00    +0.000 Cl
ATOM      7  C   UNL     1      -6.572  -2.374 127.988  0.00  0.00    +0.000 A 
ATOM      8  C   UNL     1      -6.455  -2.156 126.611  0.00  0.00    +0.000 A 
ENDBRANCH   1   2
BRANCH   1   9
ATOM      9  C   UNL     1      -8.084  -1.170 123.719  0.00  0.00    +0.000 A 
ATOM     10  C   UNL     1      -9.264  -1.423 122.970  0.00  0.00    +0.000 A 
ATOM     11  C   UNL     1     -10.110  -0.393 122.543  0.00  0.00    +0.000 A 
ATOM     12  C   UNL     1      -9.778   0.924 122.799  0.00  0.00    +0.000 A 
ATOM     13  C   UNL     1      -8.617   1.210 123.506  0.00  0.00    +0.000 A 
ATOM     14  C   UNL     1      -7.794   0.183 123.993  0.00  0.00    +0.000 A 
ATOM     15 CL   UNL     1      -6.491   0.764 124.966  0.00  0.00    +0.000 Cl
ENDBRANCH   1   9
BRANCH   1  17
ATOM     16 CL   UNL     1      -5.076  -4.141 123.889  0.00  0.00    +0.000 Cl
ATOM     17  C   UNL     1      -5.792  -2.498 123.713  0.00  0.00    +0.000 C 
ATOM     18 CL   UNL     1      -5.605  -2.037 121.990  0.00  0.00    +0.000 Cl
ENDBRANCH   1  17
TORSDOF 3
ENDMDL
MODEL 4
REMARK VINA RESULT:      -6.4      2.292      2.875
REMARK  Name = Mitotane
REMARK  3 active torsions:
REMARK  status: ('A' for Active; 'I' for Inactive)
REMARK    1  A    between atoms: C_2  and  C_4
REMARK    2  A    between atoms: C_4  and  C_5
REMARK    3  A    between atoms: C_4  and  C_12
REMARK                            x       y       z     vdW  Elec       q    Type
REMARK                         _______ _______ _______ _____ _____    ______ ____
ROOT
ATOM      1  C   UNL     1      -7.371   0.413 125.360  0.00  0.00    +0.000 C 
ENDROOT
BRANCH   1   2
ATOM      2  C   UNL     1      -7.748   1.332 124.177  0.00  0.00    +0.000 A 
ATOM      3  C   UNL     1      -6.791   2.133 123.534  0.00  0.00    +0.000 A 
ATOM      4  C   UNL     1      -7.143   2.946 122.453  0.00  0.00    +0.000 A 
ATOM      5  C   UNL     1      -8.444   2.939 121.970  0.00  0.00    +0.000 A 
ATOM      6 CL   UNL     1      -8.857   3.916 120.617  0.00  0.00    +0.000 Cl
ATOM      7  C   UNL     1      -9.411   2.144 122.575  0.00  0.00    +0.000 A 
ATOM      8  C   UNL     1      -9.070   1.364 123.687  0.00  0.00    +0.000 A 
ENDBRANCH   1   2
BRANCH   1   9
ATOM      9  C   UNL     1      -7.872  -1.030 125.081  0.00  0.00    +0.000 A 
ATOM     10  C   UNL     1      -8.868  -1.541 125.956  0.00  0.00    +0.000 A 
ATOM     11  C   UNL     1      -9.445  -2.802 125.771  0.00  0.00    +0.000 A 
ATOM     12  C   UNL     1      -9.009  -3.617 124.743  0.00  0.00    +0.000 A 
ATOM     13  C   UNL     1      -8.016  -3.160 123.884  0.00  0.00    +0.000 A 
ATOM     14  C   UNL     1      -7.475  -1.873 124.023  0.00  0.00    +0.000 A 
ATOM     15 CL   UNL     1      -6.369  -1.465 122.761  0.00  0.00    +0.000 Cl
ENDBRANCH   1   9
BRANCH   1  17
ATOM     16 CL   UNL     1      -5.608   1.952 126.928  0.00  0.00    +0.000 Cl
ATOM     17  C   UNL     1      -5.885   0.558 125.822  0.00  0.00    +0.000 C 
ATOM     18 CL   UNL     1      -5.295  -0.903 126.680  0.00  0.00    +0.000 Cl
ENDBRANCH   1  17
TORSDOF 3
ENDMDL
MODEL 5
REMARK VINA RESULT:      -6.4      6.473      8.959
REMARK  Name = Mitotane
REMARK  3 active torsions:
REMARK  status: ('A' for Active; 'I' for Inactive)
REMARK    1  A    between atoms: C_2  and  C_4
REMARK    2  A    between atoms: C_4  and  C_5
REMARK    3  A    between atoms: C_4  and  C_12
REMARK                            x       y       z     vdW  Elec       q    Type
REMARK                         _______ _______ _______ _____ _____    ______ ____
ROOT
ATOM      1  C   UNL     1      -7.898  -2.099 130.430  0.00  0.00    +0.000 C 
ENDROOT
BRANCH   1   2
ATOM      2  C   UNL     1      -8.023  -2.518 128.948  0.00  0.00    +0.000 A 
ATOM      3  C   UNL     1      -8.813  -3.609 128.556  0.00  0.00    +0.000 A 
ATOM      4  C   UNL     1      -8.931  -3.966 127.210  0.00  0.00    +0.000 A 
ATOM      5  C   UNL     1      -8.296  -3.213 126.232  0.00  0.00    +0.000 A 
ATOM      6 CL   UNL     1      -8.476  -3.638 124.575  0.00  0.00    +0.000 Cl
ATOM      7  C   UNL     1      -7.519  -2.115 126.587  0.00  0.00    +0.000 A 
ATOM      8  C   UNL     1      -7.363  -1.786 127.939  0.00  0.00    +0.000 A 
ENDBRANCH   1   2
BRANCH   1   9
ATOM      9  C   UNL     1      -7.034  -3.137 131.195  0.00  0.00    +0.000 A 
ATOM     10  C   UNL     1      -6.100  -3.881 130.427  0.00  0.00    +0.000 A 
ATOM     11  C   UNL     1      -5.221  -4.801 131.010  0.00  0.00    +0.000 A 
ATOM     12  C   UNL     1      -5.282  -5.049 132.368  0.00  0.00    +0.000 A 
ATOM     13  C   UNL     1      -6.202  -4.359 133.147  0.00  0.00    +0.000 A 
ATOM     14  C   UNL     1      -7.046  -3.390 132.582  0.00  0.00    +0.000 A 
ATOM     15 CL   UNL     1      -8.000  -2.557 133.757  0.00  0.00    +0.000 Cl
ENDBRANCH   1   9
BRANCH   1  17
ATOM     16 CL   UNL     1      -8.644   0.286 131.730  0.00  0.00    +0.000 Cl
ATOM     17  C   UNL     1      -7.523  -0.596 130.631  0.00  0.00    +0.000 C 
ATOM     18 CL   UNL     1      -5.873  -0.392 131.308  0.00  0.00    +0.000 Cl
ENDBRANCH   1  17
TORSDOF 3
ENDMDL
MODEL 6
REMARK VINA RESULT:      -6.3      1.932      5.150
REMARK  Name = Mitotane
REMARK  3 active torsions:
REMARK  status: ('A' for Active; 'I' for Inactive)
REMARK    1  A    between atoms: C_2  and  C_4
REMARK    2  A    between atoms: C_4  and  C_5
REMARK    3  A    between atoms: C_4  and  C_12
REMARK                            x       y       z     vdW  Elec       q    Type
REMARK                         _______ _______ _______ _____ _____    ______ ____
ROOT
ATOM      1  C   UNL     1      -6.550   2.065 124.254  0.00  0.00    +0.000 C 
ENDROOT
BRANCH   1   2
ATOM      2  C   UNL     1      -6.968   0.578 124.308  0.00  0.00    +0.000 A 
ATOM      3  C   UNL     1      -7.623   0.039 125.426  0.00  0.00    +0.000 A 
ATOM      4  C   UNL     1      -8.012  -1.303 125.454  0.00  0.00    +0.000 A 
ATOM      5  C   UNL     1      -7.791  -2.116 124.351  0.00  0.00    +0.000 A 
ATOM      6 CL   UNL     1      -8.305  -3.757 124.382  0.00  0.00    +0.000 Cl
ATOM      7  C   UNL     1      -7.159  -1.606 123.221  0.00  0.00    +0.000 A 
ATOM      8  C   UNL     1      -6.728  -0.275 123.211  0.00  0.00    +0.000 A 
ENDBRANCH   1   2
BRANCH   1   9
ATOM      9  C   UNL     1      -7.086   2.710 122.948  0.00  0.00    +0.000 A 
ATOM     10  C   UNL     1      -6.122   3.290 122.079  0.00  0.00    +0.000 A 
ATOM     11  C   UNL     1      -6.473   3.846 120.844  0.00  0.00    +0.000 A 
ATOM     12  C   UNL     1      -7.799   3.893 120.458  0.00  0.00    +0.000 A 
ATOM     13  C   UNL     1      -8.772   3.358 121.295  0.00  0.00    +0.000 A 
ATOM     14  C   UNL     1      -8.425   2.743 122.508  0.00  0.00    +0.000 A 
ATOM     15 CL   UNL     1      -9.774   2.022 123.310  0.00  0.00    +0.000 Cl
ENDBRANCH   1   9
BRANCH   1  17
ATOM     16 CL   UNL     1      -5.446   2.798 126.739  0.00  0.00    +0.000 Cl
ATOM     17  C   UNL     1      -6.824   2.845 125.580  0.00  0.00    +0.000 C 
ATOM     18 CL   UNL     1      -7.190   4.577 125.286  0.00  0.00    +0.000 Cl
ENDBRANCH   1  17
TORSDOF 3
ENDMDL
MODEL 7
REMARK VINA RESULT:      -6.3      5.496      8.267
REMARK  Name = Mitotane
REMARK  3 active torsions:
REMARK  status: ('A' for Active; 'I' for Inactive)
REMARK    1  A    between atoms: C_2  and  C_4
REMARK    2  A    between atoms: C_4  and  C_5
REMARK    3  A    between atoms: C_4  and  C_12
REMARK                            x       y       z     vdW  Elec       q    Type
REMARK                         _______ _______ _______ _____ _____    ______ ____
ROOT
ATOM      1  C   UNL     1      -5.807  -1.653 127.094  0.00  0.00    +0.000 C 
ENDROOT
BRANCH   1   2
ATOM      2  C   UNL     1      -5.661  -2.537 128.352  0.00  0.00    +0.000 A 
ATOM      3  C   UNL     1      -6.773  -2.902 129.128  0.00  0.00    +0.000 A 
ATOM      4  C   UNL     1      -6.629  -3.717 130.254  0.00  0.00    +0.000 A 
ATOM      5  C   UNL     1      -5.380  -4.216 130.597  0.00  0.00    +0.000 A 
ATOM      6 CL   UNL     1      -5.219  -5.247 131.964  0.00  0.00    +0.000 Cl
ATOM      7  C   UNL     1      -4.262  -3.886 129.839  0.00  0.00    +0.000 A 
ATOM      8  C   UNL     1      -4.398  -3.032 128.739  0.00  0.00    +0.000 A 
ENDBRANCH   1   2
BRANCH   1   9
ATOM      9  C   UNL     1      -6.886  -2.255 126.155  0.00  0.00    +0.000 A 
ATOM     10  C   UNL     1      -8.242  -1.973 126.476  0.00  0.00    +0.000 A 
ATOM     11  C   UNL     1      -9.302  -2.406 125.673  0.00  0.00    +0.000 A 
ATOM     12  C   UNL     1      -9.052  -3.179 124.555  0.00  0.00    +0.000 A 
ATOM     13  C   UNL     1      -7.739  -3.496 124.225  0.00  0.00    +0.000 A 
ATOM     14  C   UNL     1      -6.665  -3.016 124.989  0.00  0.00    +0.000 A 
ATOM     15 CL   UNL     1      -5.125  -3.409 124.312  0.00  0.00    +0.000 Cl
ENDBRANCH   1   9
BRANCH   1  17
ATOM     16 CL   UNL     1      -5.115   0.361 128.938  0.00  0.00    +0.000 Cl
ATOM     17  C   UNL     1      -5.927  -0.127 127.407  0.00  0.00    +0.000 C 
ATOM     18 CL   UNL     1      -5.225   0.891 126.106  0.00  0.00    +0.000 Cl
ENDBRANCH   1  17
TORSDOF 3
ENDMDL
MODEL 8
REMARK VINA RESULT:      -6.3      5.102      7.993
REMARK  Name = Mitotane
REMARK  3 active torsions:
REMARK  status: ('A' for Active; 'I' for Inactive)
REMARK    1  A    between atoms: C_2  and  C_4
REMARK    2  A    between atoms: C_4  and  C_5
REMARK    3  A    between atoms: C_4  and  C_12
REMARK                            x       y       z     vdW  Elec       q    Type
REMARK                         _______ _______ _______ _____ _____    ______ ____
ROOT
ATOM      1  C   UNL     1      -6.643  -1.142 127.508  0.00  0.00    +0.000 C 
ENDROOT
BRANCH   1   2
ATOM      2  C   UNL     1      -6.306  -2.162 128.618  0.00  0.00    +0.000 A 
ATOM      3  C   UNL     1      -7.283  -2.625 129.513  0.00  0.00    +0.000 A 
ATOM      4  C   UNL     1      -6.968  -3.561 130.501  0.00  0.00    +0.000 A 
ATOM      5  C   UNL     1      -5.684  -4.081 130.584  0.00  0.00    +0.000 A 
ATOM      6 CL   UNL     1      -5.315  -5.259 131.781  0.00  0.00    +0.000 Cl
ATOM      7  C   UNL     1      -4.697  -3.654 129.701  0.00  0.00    +0.000 A 
ATOM      8  C   UNL     1      -5.001  -2.682 128.741  0.00  0.00    +0.000 A 
ENDBRANCH   1   2
BRANCH   1   9
ATOM      9  C   UNL     1      -6.638  -1.852 126.128  0.00  0.00    +0.000 A 
ATOM     10  C   UNL     1      -5.540  -1.574 125.270  0.00  0.00    +0.000 A 
ATOM     11  C   UNL     1      -5.389  -2.199 124.027  0.00  0.00    +0.000 A 
ATOM     12  C   UNL     1      -6.354  -3.080 123.575  0.00  0.00    +0.000 A 
ATOM     13  C   UNL     1      -7.455  -3.355 124.377  0.00  0.00    +0.000 A 
ATOM     14  C   UNL     1      -7.585  -2.781 125.650  0.00  0.00    +0.000 A 
ATOM     15 CL   UNL     1      -8.950  -3.377 126.525  0.00  0.00    +0.000 Cl
ENDBRANCH   1   9
BRANCH   1  17
ATOM     16 CL   UNL     1      -7.569   1.001 129.084  0.00  0.00    +0.000 Cl
ATOM     17  C   UNL     1      -7.886  -0.250 127.828  0.00  0.00    +0.000 C 
ATOM     18 CL   UNL     1      -8.490   0.619 126.379  0.00  0.00    +0.000 Cl
ENDBRANCH   1  17
TORSDOF 3
ENDMDL
MODEL 9
REMARK VINA RESULT:      -6.2      3.447      5.634
REMARK  Name = Mitotane
REMARK  3 active torsions:
REMARK  status: ('A' for Active; 'I' for Inactive)
REMARK    1  A    between atoms: C_2  and  C_4
REMARK    2  A    between atoms: C_4  and  C_5
REMARK    3  A    between atoms: C_4  and  C_12
REMARK                            x       y       z     vdW  Elec       q    Type
REMARK                         _______ _______ _______ _____ _____    ______ ____
ROOT
ATOM      1  C   UNL     1      -6.317  -1.893 125.352  0.00  0.00    +0.000 C 
ENDROOT
BRANCH   1   2
ATOM      2  C   UNL     1      -6.644  -0.393 125.179  0.00  0.00    +0.000 A 
ATOM      3  C   UNL     1      -7.871   0.035 124.650  0.00  0.00    +0.000 A 
ATOM      4  C   UNL     1      -8.161   1.396 124.516  0.00  0.00    +0.000 A 
ATOM      5  C   UNL     1      -7.249   2.349 124.948  0.00  0.00    +0.000 A 
ATOM      6 CL   UNL     1      -7.630   4.020 124.812  0.00  0.00    +0.000 Cl
ATOM      7  C   UNL     1      -6.031   1.955 125.493  0.00  0.00    +0.000 A 
ATOM      8  C   UNL     1      -5.721   0.593 125.584  0.00  0.00    +0.000 A 
ENDBRANCH   1   2
BRANCH   1   9
ATOM      9  C   UNL     1      -7.072  -2.453 126.587  0.00  0.00    +0.000 A 
ATOM     10  C   UNL     1      -8.277  -3.162 126.332  0.00  0.00    +0.000 A 
ATOM     11  C   UNL     1      -9.015  -3.768 127.355  0.00  0.00    +0.000 A 
ATOM     12  C   UNL     1      -8.607  -3.641 128.670  0.00  0.00    +0.000 A 
ATOM     13  C   UNL     1      -7.447  -2.932 128.959  0.00  0.00    +0.000 A 
ATOM     14  C   UNL     1      -6.666  -2.373 127.935  0.00  0.00    +0.000 A 
ATOM     15 CL   UNL     1      -5.199  -1.669 128.512  0.00  0.00    +0.000 Cl
ENDBRANCH   1   9
BRANCH   1  17
ATOM     16 CL   UNL     1      -6.185  -1.735 122.543  0.00  0.00    +0.000 Cl
ATOM     17  C   UNL     1      -6.431  -2.719 124.031  0.00  0.00    +0.000 C 
ATOM     18 CL   UNL     1      -5.241  -4.061 123.963  0.00  0.00    +0.000 Cl
ENDBRANCH   1  17
TORSDOF 3
ENDMDL
