MODEL 1
REMARK VINA RESULT:      -9.3      0.000      0.000
REMARK  Name = Mizolastine
REMARK  4 active torsions:
REMARK  status: ('A' for Active; 'I' for Inactive)
REMARK    1  A    between atoms: C_1  and  N_2
REMARK    2  A    between atoms: N_2  and  C_3
REMARK    3  A    between atoms: N_17  and  C_18
REMARK    4  A    between atoms: C_18  and  C_19
REMARK                            x       y       z     vdW  Elec       q    Type
REMARK                         _______ _______ _______ _____ _____    ______ ____
ROOT
ATOM      1  C   UNL     1      -5.956   4.067 127.497  0.00  0.00    +0.000 C 
ATOM      2  C   UNL     1      -7.409   3.625 127.485  0.00  0.00    +0.000 C 
ATOM      3  C   UNL     1      -7.790   2.190 127.527  0.00  0.00    +0.000 C 
ATOM      4  N   UNL     1      -6.954   1.576 126.521  0.00  0.00    +0.000 N 
ATOM      5  C   UNL     1      -5.545   1.572 126.922  0.00  0.00    +0.000 C 
ATOM      6  C   UNL     1      -5.017   3.013 126.797  0.00  0.00    +0.000 C 
ATOM      7  C   UNL     1      -7.481   0.600 125.745  0.00  0.00    +0.000 A 
ATOM      8  N   UNL     1      -7.258  -0.690 125.887  0.00  0.00    +0.000 NA
ATOM      9  C   UNL     1      -7.966  -1.320 124.897  0.00  0.00    +0.000 A 
ATOM     10  C   UNL     1      -8.615  -0.395 124.090  0.00  0.00    +0.000 A 
ATOM     11  C   UNL     1      -9.378  -0.776 122.971  0.00  0.00    +0.000 A 
ATOM     12  C   UNL     1      -9.488  -2.144 122.696  0.00  0.00    +0.000 A 
ATOM     13  C   UNL     1      -8.865  -3.091 123.507  0.00  0.00    +0.000 A 
ATOM     14  C   UNL     1      -8.097  -2.691 124.609  0.00  0.00    +0.000 A 
ATOM     15  N   UNL     1      -8.305   0.847 124.651  0.00  0.00    +0.000 N 
ENDROOT
BRANCH   1  17
ATOM     16  C   UNL     1      -6.885   4.594 129.669  0.00  0.00    +0.000 C 
ATOM     17  N   UNL     1      -5.717   4.607 128.827  0.00  0.00    +0.000 N 
ATOM     18  C   UNL     1      -4.469   5.168 129.224  0.00  0.00    +0.000 A 
ATOM     19  N   UNL     1      -3.990   5.028 130.427  0.00  0.00    +0.000 NA
ATOM     20  C   UNL     1      -2.755   5.582 130.709  0.00  0.00    +0.000 A 
ATOM     21  C   UNL     1      -2.060   6.426 129.943  0.00  0.00    +0.000 A 
ATOM     22  C   UNL     1      -2.559   6.621 128.584  0.00  0.00    +0.000 A 
ATOM     23  O   UNL     1      -1.984   7.288 127.763  0.00  0.00    +0.000 OA
ATOM     24  N   UNL     1      -3.696   5.895 128.321  0.00  0.00    +0.000 N 
ATOM     25  H   UNL     1      -3.833   5.856 127.337  0.00  0.00    +0.000 HD
ENDBRANCH   1  17
BRANCH  15  26
ATOM     26  C   UNL     1      -8.812   2.068 123.994  0.00  0.00    +0.000 C 
BRANCH  26  27
ATOM     27  C   UNL     1      -7.997   2.854 123.002  0.00  0.00    +0.000 A 
ATOM     28  C   UNL     1      -8.555   3.163 121.749  0.00  0.00    +0.000 A 
ATOM     29  C   UNL     1      -7.771   3.766 120.752  0.00  0.00    +0.000 A 
ATOM     30  C   UNL     1      -6.413   4.028 120.996  0.00  0.00    +0.000 A 
ATOM     31  F   UNL     1      -5.582   4.112 119.941  0.00  0.00    +0.000 F 
ATOM     32  C   UNL     1      -5.848   3.775 122.250  0.00  0.00    +0.000 A 
ATOM     33  C   UNL     1      -6.647   3.211 123.265  0.00  0.00    +0.000 A 
ENDBRANCH  26  27
ENDBRANCH  15  26
TORSDOF 3
ENDMDL
MODEL 2
REMARK VINA RESULT:      -9.3      3.212      3.987
REMARK  Name = Mizolastine
REMARK  4 active torsions:
REMARK  status: ('A' for Active; 'I' for Inactive)
REMARK    1  A    between atoms: C_1  and  N_2
REMARK    2  A    between atoms: N_2  and  C_3
REMARK    3  A    between atoms: N_17  and  C_18
REMARK    4  A    between atoms: C_18  and  C_19
REMARK                            x       y       z     vdW  Elec       q    Type
REMARK                         _______ _______ _______ _____ _____    ______ ____
ROOT
ATOM      1  C   UNL     1      -7.371   3.014 129.075  0.00  0.00    +0.000 C 
ATOM      2  C   UNL     1      -8.373   2.111 128.377  0.00  0.00    +0.000 C 
ATOM      3  C   UNL     1      -8.073   0.686 128.087  0.00  0.00    +0.000 C 
ATOM      4  N   UNL     1      -6.757   0.720 127.490  0.00  0.00    +0.000 N 
ATOM      5  C   UNL     1      -5.733   1.098 128.466  0.00  0.00    +0.000 C 
ATOM      6  C   UNL     1      -5.885   2.604 128.748  0.00  0.00    +0.000 C 
ATOM      7  C   UNL     1      -6.491  -0.115 126.458  0.00  0.00    +0.000 A 
ATOM      8  N   UNL     1      -5.791  -1.227 126.539  0.00  0.00    +0.000 NA
ATOM      9  C   UNL     1      -5.749  -1.756 125.275  0.00  0.00    +0.000 A 
ATOM     10  C   UNL     1      -6.406  -0.930 124.374  0.00  0.00    +0.000 A 
ATOM     11  C   UNL     1      -6.475  -1.219 122.999  0.00  0.00    +0.000 A 
ATOM     12  C   UNL     1      -5.869  -2.399 122.553  0.00  0.00    +0.000 A 
ATOM     13  C   UNL     1      -5.224  -3.255 123.444  0.00  0.00    +0.000 A 
ATOM     14  C   UNL     1      -5.154  -2.942 124.809  0.00  0.00    +0.000 A 
ATOM     15  N   UNL     1      -6.894   0.127 125.148  0.00  0.00    +0.000 N 
ENDROOT
BRANCH   1  17
ATOM     16  C   UNL     1      -7.474   2.165 131.340  0.00  0.00    +0.000 C 
ATOM     17  N   UNL     1      -7.881   3.200 130.426  0.00  0.00    +0.000 N 
ATOM     18  C   UNL     1      -8.762   4.262 130.782  0.00  0.00    +0.000 A 
ATOM     19  N   UNL     1      -8.702   4.864 131.936  0.00  0.00    +0.000 NA
ATOM     20  C   UNL     1      -9.580   5.905 132.178  0.00  0.00    +0.000 A 
ATOM     21  C   UNL     1     -10.634   6.255 131.438  0.00  0.00    +0.000 A 
ATOM     22  C   UNL     1     -10.749   5.603 130.136  0.00  0.00    +0.000 A 
ATOM     23  O   UNL     1     -11.602   5.885 129.334  0.00  0.00    +0.000 OA
ATOM     24  N   UNL     1      -9.736   4.708 129.891  0.00  0.00    +0.000 N 
ATOM     25  H   UNL     1      -9.714   4.502 128.919  0.00  0.00    +0.000 HD
ENDBRANCH   1  17
BRANCH  15  26
ATOM     26  C   UNL     1      -7.618   1.225 124.476  0.00  0.00    +0.000 C 
BRANCH  26  27
ATOM     27  C   UNL     1      -6.913   2.403 123.858  0.00  0.00    +0.000 A 
ATOM     28  C   UNL     1      -6.934   2.560 122.461  0.00  0.00    +0.000 A 
ATOM     29  C   UNL     1      -6.169   3.563 121.848  0.00  0.00    +0.000 A 
ATOM     30  C   UNL     1      -5.347   4.391 122.630  0.00  0.00    +0.000 A 
ATOM     31  F   UNL     1      -4.280   4.965 122.045  0.00  0.00    +0.000 F 
ATOM     32  C   UNL     1      -5.345   4.286 124.026  0.00  0.00    +0.000 A 
ATOM     33  C   UNL     1      -6.149   3.308 124.644  0.00  0.00    +0.000 A 
ENDBRANCH  26  27
ENDBRANCH  15  26
TORSDOF 3
ENDMDL
MODEL 3
REMARK VINA RESULT:      -9.1      3.292      7.440
REMARK  Name = Mizolastine
REMARK  4 active torsions:
REMARK  status: ('A' for Active; 'I' for Inactive)
REMARK    1  A    between atoms: C_1  and  N_2
REMARK    2  A    between atoms: N_2  and  C_3
REMARK    3  A    between atoms: N_17  and  C_18
REMARK    4  A    between atoms: C_18  and  C_19
REMARK                            x       y       z     vdW  Elec       q    Type
REMARK                         _______ _______ _______ _____ _____    ______ ____
ROOT
ATOM      1  C   UNL     1      -6.236   3.230 124.674  0.00  0.00    +0.000 C 
ATOM      2  C   UNL     1      -6.079   2.006 125.560  0.00  0.00    +0.000 C 
ATOM      3  C   UNL     1      -7.147   1.577 126.499  0.00  0.00    +0.000 C 
ATOM      4  N   UNL     1      -7.515   2.793 127.189  0.00  0.00    +0.000 N 
ATOM      5  C   UNL     1      -8.195   3.734 126.297  0.00  0.00    +0.000 C 
ATOM      6  C   UNL     1      -7.137   4.331 125.349  0.00  0.00    +0.000 C 
ATOM      7  C   UNL     1      -7.795   2.728 128.512  0.00  0.00    +0.000 A 
ATOM      8  N   UNL     1      -9.002   2.753 129.036  0.00  0.00    +0.000 NA
ATOM      9  C   UNL     1      -8.840   2.681 130.395  0.00  0.00    +0.000 A 
ATOM     10  C   UNL     1      -7.493   2.652 130.729  0.00  0.00    +0.000 A 
ATOM     11  C   UNL     1      -7.048   2.621 132.064  0.00  0.00    +0.000 A 
ATOM     12  C   UNL     1      -8.020   2.598 133.071  0.00  0.00    +0.000 A 
ATOM     13  C   UNL     1      -9.378   2.602 132.758  0.00  0.00    +0.000 A 
ATOM     14  C   UNL     1      -9.801   2.647 131.422  0.00  0.00    +0.000 A 
ATOM     15  N   UNL     1      -6.820   2.673 129.504  0.00  0.00    +0.000 N 
ENDROOT
BRANCH   1  17
ATOM     16  C   UNL     1      -6.785   1.318 123.294  0.00  0.00    +0.000 C 
ATOM     17  N   UNL     1      -6.454   2.718 123.328  0.00  0.00    +0.000 N 
ATOM     18  C   UNL     1      -6.276   3.512 122.159  0.00  0.00    +0.000 A 
ATOM     19  N   UNL     1      -7.038   3.392 121.109  0.00  0.00    +0.000 NA
ATOM     20  C   UNL     1      -6.807   4.230 120.033  0.00  0.00    +0.000 A 
ATOM     21  C   UNL     1      -5.758   5.034 119.852  0.00  0.00    +0.000 A 
ATOM     22  C   UNL     1      -4.870   5.198 121.000  0.00  0.00    +0.000 A 
ATOM     23  O   UNL     1      -3.934   5.957 121.003  0.00  0.00    +0.000 OA
ATOM     24  N   UNL     1      -5.265   4.469 122.095  0.00  0.00    +0.000 N 
ATOM     25  H   UNL     1      -4.797   4.816 122.900  0.00  0.00    +0.000 HD
ENDBRANCH   1  17
BRANCH  15  26
ATOM     26  C   UNL     1      -5.344   2.696 129.505  0.00  0.00    +0.000 C 
BRANCH  26  27
ATOM     27  C   UNL     1      -4.551   3.841 128.934  0.00  0.00    +0.000 A 
ATOM     28  C   UNL     1      -3.468   3.566 128.080  0.00  0.00    +0.000 A 
ATOM     29  C   UNL     1      -2.623   4.601 127.649  0.00  0.00    +0.000 A 
ATOM     30  C   UNL     1      -2.837   5.912 128.105  0.00  0.00    +0.000 A 
ATOM     31  F   UNL     1      -1.791   6.758 128.122  0.00  0.00    +0.000 F 
ATOM     32  C   UNL     1      -3.935   6.219 128.917  0.00  0.00    +0.000 A 
ATOM     33  C   UNL     1      -4.809   5.187 129.312  0.00  0.00    +0.000 A 
ENDBRANCH  26  27
ENDBRANCH  15  26
TORSDOF 3
ENDMDL
MODEL 4
REMARK VINA RESULT:      -9.1      3.523      5.361
REMARK  Name = Mizolastine
REMARK  4 active torsions:
REMARK  status: ('A' for Active; 'I' for Inactive)
REMARK    1  A    between atoms: C_1  and  N_2
REMARK    2  A    between atoms: N_2  and  C_3
REMARK    3  A    between atoms: N_17  and  C_18
REMARK    4  A    between atoms: C_18  and  C_19
REMARK                            x       y       z     vdW  Elec       q    Type
REMARK                         _______ _______ _______ _____ _____    ______ ____
ROOT
ATOM      1  C   UNL     1      -5.587   3.727 127.518  0.00  0.00    +0.000 C 
ATOM      2  C   UNL     1      -5.095   2.295 127.635  0.00  0.00    +0.000 C 
ATOM      3  C   UNL     1      -5.060   1.381 126.465  0.00  0.00    +0.000 C 
ATOM      4  N   UNL     1      -6.365   1.535 125.862  0.00  0.00    +0.000 N 
ATOM      5  C   UNL     1      -6.528   2.860 125.262  0.00  0.00    +0.000 C 
ATOM      6  C   UNL     1      -6.693   3.877 126.407  0.00  0.00    +0.000 C 
ATOM      7  C   UNL     1      -6.980   0.439 125.359  0.00  0.00    +0.000 A 
ATOM      8  N   UNL     1      -7.066   0.134 124.081  0.00  0.00    +0.000 NA
ATOM      9  C   UNL     1      -7.776  -1.037 124.006  0.00  0.00    +0.000 A 
ATOM     10  C   UNL     1      -8.178  -1.451 125.268  0.00  0.00    +0.000 A 
ATOM     11  C   UNL     1      -8.959  -2.603 125.470  0.00  0.00    +0.000 A 
ATOM     12  C   UNL     1      -9.312  -3.354 124.342  0.00  0.00    +0.000 A 
ATOM     13  C   UNL     1      -8.899  -2.969 123.067  0.00  0.00    +0.000 A 
ATOM     14  C   UNL     1      -8.132  -1.809 122.885  0.00  0.00    +0.000 A 
ATOM     15  N   UNL     1      -7.651  -0.496 126.142  0.00  0.00    +0.000 N 
ENDROOT
BRANCH   1  17
ATOM     16  C   UNL     1      -3.303   4.074 126.796  0.00  0.00    +0.000 C 
ATOM     17  N   UNL     1      -4.396   4.562 127.594  0.00  0.00    +0.000 N 
ATOM     18  C   UNL     1      -4.303   5.703 128.442  0.00  0.00    +0.000 A 
ATOM     19  N   UNL     1      -3.659   6.781 128.096  0.00  0.00    +0.000 NA
ATOM     20  C   UNL     1      -3.651   7.849 128.974  0.00  0.00    +0.000 A 
ATOM     21  C   UNL     1      -4.066   7.850 130.242  0.00  0.00    +0.000 A 
ATOM     22  C   UNL     1      -4.790   6.659 130.681  0.00  0.00    +0.000 A 
ATOM     23  O   UNL     1      -5.292   6.561 131.772  0.00  0.00    +0.000 OA
ATOM     24  N   UNL     1      -4.914   5.711 129.695  0.00  0.00    +0.000 N 
ATOM     25  H   UNL     1      -5.621   5.064 129.956  0.00  0.00    +0.000 HD
ENDBRANCH   1  17
BRANCH  15  26
ATOM     26  C   UNL     1      -7.939  -0.619 127.585  0.00  0.00    +0.000 C 
BRANCH  26  27
ATOM     27  C   UNL     1      -7.205  -1.581 128.480  0.00  0.00    +0.000 A 
ATOM     28  C   UNL     1      -5.843  -1.837 128.240  0.00  0.00    +0.000 A 
ATOM     29  C   UNL     1      -5.170  -2.835 128.964  0.00  0.00    +0.000 A 
ATOM     30  C   UNL     1      -5.871  -3.607 129.904  0.00  0.00    +0.000 A 
ATOM     31  F   UNL     1      -5.399  -4.832 130.199  0.00  0.00    +0.000 F 
ATOM     32  C   UNL     1      -7.213  -3.340 130.195  0.00  0.00    +0.000 A 
ATOM     33  C   UNL     1      -7.876  -2.309 129.500  0.00  0.00    +0.000 A 
ENDBRANCH  26  27
ENDBRANCH  15  26
TORSDOF 3
ENDMDL
MODEL 5
REMARK VINA RESULT:      -9.0      1.809      2.368
REMARK  Name = Mizolastine
REMARK  4 active torsions:
REMARK  status: ('A' for Active; 'I' for Inactive)
REMARK    1  A    between atoms: C_1  and  N_2
REMARK    2  A    between atoms: N_2  and  C_3
REMARK    3  A    between atoms: N_17  and  C_18
REMARK    4  A    between atoms: C_18  and  C_19
REMARK                            x       y       z     vdW  Elec       q    Type
REMARK                         _______ _______ _______ _____ _____    ______ ____
ROOT
ATOM      1  C   UNL     1      -4.789   4.493 126.708  0.00  0.00    +0.000 C 
ATOM      2  C   UNL     1      -6.283   4.255 126.844  0.00  0.00    +0.000 C 
ATOM      3  C   UNL     1      -6.845   2.891 127.023  0.00  0.00    +0.000 C 
ATOM      4  N   UNL     1      -6.187   2.106 126.003  0.00  0.00    +0.000 N 
ATOM      5  C   UNL     1      -4.762   1.934 126.291  0.00  0.00    +0.000 C 
ATOM      6  C   UNL     1      -4.062   3.278 126.018  0.00  0.00    +0.000 C 
ATOM      7  C   UNL     1      -6.905   1.164 125.346  0.00  0.00    +0.000 A 
ATOM      8  N   UNL     1      -6.842  -0.132 125.565  0.00  0.00    +0.000 NA
ATOM      9  C   UNL     1      -7.711  -0.720 124.683  0.00  0.00    +0.000 A 
ATOM     10  C   UNL     1      -8.301   0.231 123.863  0.00  0.00    +0.000 A 
ATOM     11  C   UNL     1      -9.202  -0.111 122.839  0.00  0.00    +0.000 A 
ATOM     12  C   UNL     1      -9.516  -1.465 122.677  0.00  0.00    +0.000 A 
ATOM     13  C   UNL     1      -8.953  -2.435 123.504  0.00  0.00    +0.000 A 
ATOM     14  C   UNL     1      -8.045  -2.076 124.510  0.00  0.00    +0.000 A 
ATOM     15  N   UNL     1      -7.782   1.453 124.304  0.00  0.00    +0.000 N 
ENDROOT
BRANCH   1  17
ATOM     16  C   UNL     1      -3.733   6.363 127.825  0.00  0.00    +0.000 C 
ATOM     17  N   UNL     1      -4.365   5.079 127.972  0.00  0.00    +0.000 N 
ATOM     18  C   UNL     1      -4.494   4.405 129.221  0.00  0.00    +0.000 A 
ATOM     19  N   UNL     1      -4.785   5.029 130.327  0.00  0.00    +0.000 NA
ATOM     20  C   UNL     1      -4.919   4.284 131.484  0.00  0.00    +0.000 A 
ATOM     21  C   UNL     1      -4.593   3.001 131.655  0.00  0.00    +0.000 A 
ATOM     22  C   UNL     1      -4.254   2.257 130.444  0.00  0.00    +0.000 A 
ATOM     23  O   UNL     1      -4.022   1.075 130.443  0.00  0.00    +0.000 OA
ATOM     24  N   UNL     1      -4.316   3.025 129.307  0.00  0.00    +0.000 N 
ATOM     25  H   UNL     1      -4.339   2.426 128.514  0.00  0.00    +0.000 HD
ENDBRANCH   1  17
BRANCH  15  26
ATOM     26  C   UNL     1      -8.180   2.688 123.600  0.00  0.00    +0.000 C 
BRANCH  26  27
ATOM     27  C   UNL     1      -7.489   3.170 122.352  0.00  0.00    +0.000 A 
ATOM     28  C   UNL     1      -6.107   3.428 122.390  0.00  0.00    +0.000 A 
ATOM     29  C   UNL     1      -5.464   4.013 121.288  0.00  0.00    +0.000 A 
ATOM     30  C   UNL     1      -6.212   4.379 120.157  0.00  0.00    +0.000 A 
ATOM     31  F   UNL     1      -5.731   5.355 119.365  0.00  0.00    +0.000 F 
ATOM     32  C   UNL     1      -7.578   4.089 120.076  0.00  0.00    +0.000 A 
ATOM     33  C   UNL     1      -8.214   3.460 121.165  0.00  0.00    +0.000 A 
ENDBRANCH  26  27
ENDBRANCH  15  26
TORSDOF 3
ENDMDL
MODEL 6
REMARK VINA RESULT:      -9.0      6.132      9.134
REMARK  Name = Mizolastine
REMARK  4 active torsions:
REMARK  status: ('A' for Active; 'I' for Inactive)
REMARK    1  A    between atoms: C_1  and  N_2
REMARK    2  A    between atoms: N_2  and  C_3
REMARK    3  A    between atoms: N_17  and  C_18
REMARK    4  A    between atoms: C_18  and  C_19
REMARK                            x       y       z     vdW  Elec       q    Type
REMARK                         _______ _______ _______ _____ _____    ______ ____
ROOT
ATOM      1  C   UNL     1      -6.575   2.577 130.750  0.00  0.00    +0.000 C 
ATOM      2  C   UNL     1      -8.081   2.386 130.698  0.00  0.00    +0.000 C 
ATOM      3  C   UNL     1      -8.913   3.017 129.641  0.00  0.00    +0.000 C 
ATOM      4  N   UNL     1      -8.466   4.391 129.617  0.00  0.00    +0.000 N 
ATOM      5  C   UNL     1      -7.102   4.505 129.098  0.00  0.00    +0.000 C 
ATOM      6  C   UNL     1      -6.141   3.980 130.181  0.00  0.00    +0.000 C 
ATOM      7  C   UNL     1      -9.385   5.369 129.439  0.00  0.00    +0.000 A 
ATOM      8  N   UNL     1      -9.591   6.024 128.316  0.00  0.00    +0.000 NA
ATOM      9  C   UNL     1     -10.590   6.929 128.569  0.00  0.00    +0.000 A 
ATOM     10  C   UNL     1     -10.988   6.864 129.897  0.00  0.00    +0.000 A 
ATOM     11  C   UNL     1     -11.971   7.717 130.431  0.00  0.00    +0.000 A 
ATOM     12  C   UNL     1     -12.568   8.641 129.566  0.00  0.00    +0.000 A 
ATOM     13  C   UNL     1     -12.200   8.707 128.223  0.00  0.00    +0.000 A 
ATOM     14  C   UNL     1     -11.208   7.858 127.713  0.00  0.00    +0.000 A 
ATOM     15  N   UNL     1     -10.211   5.844 130.454  0.00  0.00    +0.000 N 
ENDROOT
BRANCH   1  17
ATOM     16  C   UNL     1      -5.890   1.199 128.882  0.00  0.00    +0.000 C 
ATOM     17  N   UNL     1      -6.001   1.312 130.312  0.00  0.00    +0.000 N 
ATOM     18  C   UNL     1      -5.661   0.262 131.213  0.00  0.00    +0.000 A 
ATOM     19  N   UNL     1      -4.620  -0.502 131.036  0.00  0.00    +0.000 NA
ATOM     20  C   UNL     1      -4.354  -1.474 131.982  0.00  0.00    +0.000 A 
ATOM     21  C   UNL     1      -5.152  -1.868 132.976  0.00  0.00    +0.000 A 
ATOM     22  C   UNL     1      -6.337  -1.046 133.212  0.00  0.00    +0.000 A 
ATOM     23  O   UNL     1      -7.097  -1.236 134.127  0.00  0.00    +0.000 OA
ATOM     24  N   UNL     1      -6.439   0.012 132.341  0.00  0.00    +0.000 N 
ATOM     25  H   UNL     1      -7.092   0.667 132.704  0.00  0.00    +0.000 HD
ENDBRANCH   1  17
BRANCH  15  26
ATOM     26  C   UNL     1     -10.358   5.543 131.892  0.00  0.00    +0.000 C 
BRANCH  26  27
ATOM     27  C   UNL     1      -9.186   5.210 132.775  0.00  0.00    +0.000 A 
ATOM     28  C   UNL     1      -8.028   6.004 132.706  0.00  0.00    +0.000 A 
ATOM     29  C   UNL     1      -6.870   5.635 133.409  0.00  0.00    +0.000 A 
ATOM     30  C   UNL     1      -6.857   4.444 134.154  0.00  0.00    +0.000 A 
ATOM     31  F   UNL     1      -5.672   3.851 134.384  0.00  0.00    +0.000 F 
ATOM     32  C   UNL     1      -8.011   3.663 134.278  0.00  0.00    +0.000 A 
ATOM     33  C   UNL     1      -9.186   4.059 133.609  0.00  0.00    +0.000 A 
ENDBRANCH  26  27
ENDBRANCH  15  26
TORSDOF 3
ENDMDL
MODEL 7
REMARK VINA RESULT:      -8.8      4.926      8.784
REMARK  Name = Mizolastine
REMARK  4 active torsions:
REMARK  status: ('A' for Active; 'I' for Inactive)
REMARK    1  A    between atoms: C_1  and  N_2
REMARK    2  A    between atoms: N_2  and  C_3
REMARK    3  A    between atoms: N_17  and  C_18
REMARK    4  A    between atoms: C_18  and  C_19
REMARK                            x       y       z     vdW  Elec       q    Type
REMARK                         _______ _______ _______ _____ _____    ______ ____
ROOT
ATOM      1  C   UNL     1      -6.415   2.590 130.655  0.00  0.00    +0.000 C 
ATOM      2  C   UNL     1      -7.917   2.376 130.587  0.00  0.00    +0.000 C 
ATOM      3  C   UNL     1      -8.749   2.998 129.525  0.00  0.00    +0.000 C 
ATOM      4  N   UNL     1      -8.324   4.380 129.513  0.00  0.00    +0.000 N 
ATOM      5  C   UNL     1      -6.957   4.518 129.008  0.00  0.00    +0.000 C 
ATOM      6  C   UNL     1      -5.998   4.003 130.098  0.00  0.00    +0.000 C 
ATOM      7  C   UNL     1      -9.257   5.344 129.331  0.00  0.00    +0.000 A 
ATOM      8  N   UNL     1      -9.463   6.002 128.210  0.00  0.00    +0.000 NA
ATOM      9  C   UNL     1     -10.478   6.889 128.458  0.00  0.00    +0.000 A 
ATOM     10  C   UNL     1     -10.888   6.810 129.782  0.00  0.00    +0.000 A 
ATOM     11  C   UNL     1     -11.890   7.644 130.311  0.00  0.00    +0.000 A 
ATOM     12  C   UNL     1     -12.494   8.563 129.445  0.00  0.00    +0.000 A 
ATOM     13  C   UNL     1     -12.114   8.643 128.107  0.00  0.00    +0.000 A 
ATOM     14  C   UNL     1     -11.104   7.813 127.601  0.00  0.00    +0.000 A 
ATOM     15  N   UNL     1     -10.100   5.800 130.341  0.00  0.00    +0.000 N 
ENDROOT
BRANCH   1  17
ATOM     16  C   UNL     1      -5.301   0.539 131.296  0.00  0.00    +0.000 C 
ATOM     17  N   UNL     1      -5.816   1.337 130.215  0.00  0.00    +0.000 N 
ATOM     18  C   UNL     1      -5.685   0.981 128.842  0.00  0.00    +0.000 A 
ATOM     19  N   UNL     1      -5.818  -0.245 128.422  0.00  0.00    +0.000 NA
ATOM     20  C   UNL     1      -5.704  -0.488 127.065  0.00  0.00    +0.000 A 
ATOM     21  C   UNL     1      -5.274   0.362 126.131  0.00  0.00    +0.000 A 
ATOM     22  C   UNL     1      -5.104   1.750 126.554  0.00  0.00    +0.000 A 
ATOM     23  O   UNL     1      -4.802   2.636 125.795  0.00  0.00    +0.000 OA
ATOM     24  N   UNL     1      -5.409   1.949 127.879  0.00  0.00    +0.000 N 
ATOM     25  H   UNL     1      -5.532   2.922 128.039  0.00  0.00    +0.000 HD
ENDBRANCH   1  17
BRANCH  15  26
ATOM     26  C   UNL     1     -10.257   5.489 131.775  0.00  0.00    +0.000 C 
BRANCH  26  27
ATOM     27  C   UNL     1      -9.093   5.125 132.658  0.00  0.00    +0.000 A 
ATOM     28  C   UNL     1      -9.210   4.027 133.528  0.00  0.00    +0.000 A 
ATOM     29  C   UNL     1      -8.200   3.752 134.464  0.00  0.00    +0.000 A 
ATOM     30  C   UNL     1      -7.086   4.601 134.558  0.00  0.00    +0.000 A 
ATOM     31  F   UNL     1      -6.419   4.649 135.726  0.00  0.00    +0.000 F 
ATOM     32  C   UNL     1      -6.924   5.672 133.672  0.00  0.00    +0.000 A 
ATOM     33  C   UNL     1      -7.916   5.920 132.703  0.00  0.00    +0.000 A 
ENDBRANCH  26  27
ENDBRANCH  15  26
TORSDOF 3
ENDMDL
MODEL 8
REMARK VINA RESULT:      -8.7      4.274      6.224
REMARK  Name = Mizolastine
REMARK  4 active torsions:
REMARK  status: ('A' for Active; 'I' for Inactive)
REMARK    1  A    between atoms: C_1  and  N_2
REMARK    2  A    between atoms: N_2  and  C_3
REMARK    3  A    between atoms: N_17  and  C_18
REMARK    4  A    between atoms: C_18  and  C_19
REMARK                            x       y       z     vdW  Elec       q    Type
REMARK                         _______ _______ _______ _____ _____    ______ ____
ROOT
ATOM      1  C   UNL     1      -7.441   1.814 130.554  0.00  0.00    +0.000 C 
ATOM      2  C   UNL     1      -6.479   0.846 129.886  0.00  0.00    +0.000 C 
ATOM      3  C   UNL     1      -6.366   0.751 128.409  0.00  0.00    +0.000 C 
ATOM      4  N   UNL     1      -7.736   0.666 127.957  0.00  0.00    +0.000 N 
ATOM      5  C   UNL     1      -8.452   1.925 128.169  0.00  0.00    +0.000 C 
ATOM      6  C   UNL     1      -8.727   2.061 129.678  0.00  0.00    +0.000 C 
ATOM      7  C   UNL     1      -8.029  -0.161 126.925  0.00  0.00    +0.000 A 
ATOM      8  N   UNL     1      -8.253   0.219 125.685  0.00  0.00    +0.000 NA
ATOM      9  C   UNL     1      -8.524  -0.919 124.970  0.00  0.00    +0.000 A 
ATOM     10  C   UNL     1      -8.508  -2.034 125.796  0.00  0.00    +0.000 A 
ATOM     11  C   UNL     1      -8.797  -3.327 125.322  0.00  0.00    +0.000 A 
ATOM     12  C   UNL     1      -9.086  -3.468 123.960  0.00  0.00    +0.000 A 
ATOM     13  C   UNL     1      -9.085  -2.365 123.108  0.00  0.00    +0.000 A 
ATOM     14  C   UNL     1      -8.808  -1.083 123.602  0.00  0.00    +0.000 A 
ATOM     15  N   UNL     1      -8.177  -1.539 127.060  0.00  0.00    +0.000 N 
ENDROOT
BRANCH   1  17
ATOM     16  C   UNL     1      -5.388   2.411 131.689  0.00  0.00    +0.000 C 
ATOM     17  N   UNL     1      -6.614   2.881 131.099  0.00  0.00    +0.000 N 
ATOM     18  C   UNL     1      -7.021   4.246 131.115  0.00  0.00    +0.000 A 
ATOM     19  N   UNL     1      -6.185   5.228 130.931  0.00  0.00    +0.000 NA
ATOM     20  C   UNL     1      -6.681   6.519 130.933  0.00  0.00    +0.000 A 
ATOM     21  C   UNL     1      -7.904   6.909 131.298  0.00  0.00    +0.000 A 
ATOM     22  C   UNL     1      -8.878   5.844 131.520  0.00  0.00    +0.000 A 
ATOM     23  O   UNL     1     -10.037   6.056 131.771  0.00  0.00    +0.000 OA
ATOM     24  N   UNL     1      -8.356   4.588 131.325  0.00  0.00    +0.000 N 
ATOM     25  H   UNL     1      -9.102   3.939 131.229  0.00  0.00    +0.000 HD
ENDBRANCH   1  17
BRANCH  15  26
ATOM     26  C   UNL     1      -8.118  -2.477 128.198  0.00  0.00    +0.000 C 
BRANCH  26  27
ATOM     27  C   UNL     1      -6.822  -3.017 128.739  0.00  0.00    +0.000 A 
ATOM     28  C   UNL     1      -6.849  -3.883 129.847  0.00  0.00    +0.000 A 
ATOM     29  C   UNL     1      -5.653  -4.287 130.462  0.00  0.00    +0.000 A 
ATOM     30  C   UNL     1      -4.425  -3.792 129.992  0.00  0.00    +0.000 A 
ATOM     31  F   UNL     1      -3.386  -3.755 130.845  0.00  0.00    +0.000 F 
ATOM     32  C   UNL     1      -4.369  -2.969 128.862  0.00  0.00    +0.000 A 
ATOM     33  C   UNL     1      -5.567  -2.600 128.218  0.00  0.00    +0.000 A 
ENDBRANCH  26  27
ENDBRANCH  15  26
TORSDOF 3
ENDMDL
MODEL 9
REMARK VINA RESULT:      -8.7      3.744      5.651
REMARK  Name = Mizolastine
REMARK  4 active torsions:
REMARK  status: ('A' for Active; 'I' for Inactive)
REMARK    1  A    between atoms: C_1  and  N_2
REMARK    2  A    between atoms: N_2  and  C_3
REMARK    3  A    between atoms: N_17  and  C_18
REMARK    4  A    between atoms: C_18  and  C_19
REMARK                            x       y       z     vdW  Elec       q    Type
REMARK                         _______ _______ _______ _____ _____    ______ ____
ROOT
ATOM      1  C   UNL     1      -6.740   2.161 130.125  0.00  0.00    +0.000 C 
ATOM      2  C   UNL     1      -5.926   1.022 129.535  0.00  0.00    +0.000 C 
ATOM      3  C   UNL     1      -5.864   0.781 128.071  0.00  0.00    +0.000 C 
ATOM      4  N   UNL     1      -7.245   0.831 127.649  0.00  0.00    +0.000 N 
ATOM      5  C   UNL     1      -7.791   2.186 127.754  0.00  0.00    +0.000 C 
ATOM      6  C   UNL     1      -8.007   2.491 129.249  0.00  0.00    +0.000 C 
ATOM      7  C   UNL     1      -7.667  -0.040 126.703  0.00  0.00    +0.000 A 
ATOM      8  N   UNL     1      -7.874   0.252 125.436  0.00  0.00    +0.000 NA
ATOM      9  C   UNL     1      -8.305  -0.901 124.834  0.00  0.00    +0.000 A 
ATOM     10  C   UNL     1      -8.408  -1.931 125.759  0.00  0.00    +0.000 A 
ATOM     11  C   UNL     1      -8.870  -3.213 125.410  0.00  0.00    +0.000 A 
ATOM     12  C   UNL     1      -9.211  -3.438 124.071  0.00  0.00    +0.000 A 
ATOM     13  C   UNL     1      -9.092  -2.426 123.121  0.00  0.00    +0.000 A 
ATOM     14  C   UNL     1      -8.643  -1.150 123.491  0.00  0.00    +0.000 A 
ATOM     15  N   UNL     1      -7.984  -1.370 126.967  0.00  0.00    +0.000 N 
ENDROOT
BRANCH   1  17
ATOM     16  C   UNL     1      -5.805   3.416 131.971  0.00  0.00    +0.000 C 
ATOM     17  N   UNL     1      -5.771   3.158 130.556  0.00  0.00    +0.000 N 
ATOM     18  C   UNL     1      -4.930   3.864 129.648  0.00  0.00    +0.000 A 
ATOM     19  N   UNL     1      -3.702   4.190 129.941  0.00  0.00    +0.000 NA
ATOM     20  C   UNL     1      -2.953   4.848 128.983  0.00  0.00    +0.000 A 
ATOM     21  C   UNL     1      -3.397   5.375 127.839  0.00  0.00    +0.000 A 
ATOM     22  C   UNL     1      -4.770   5.043 127.469  0.00  0.00    +0.000 A 
ATOM     23  O   UNL     1      -5.269   5.381 126.426  0.00  0.00    +0.000 OA
ATOM     24  N   UNL     1      -5.394   4.235 128.388  0.00  0.00    +0.000 N 
ATOM     25  H   UNL     1      -6.202   3.835 127.970  0.00  0.00    +0.000 HD
ENDBRANCH   1  17
BRANCH  15  26
ATOM     26  C   UNL     1      -8.015  -2.202 128.186  0.00  0.00    +0.000 C 
BRANCH  26  27
ATOM     27  C   UNL     1      -6.786  -2.866 128.746  0.00  0.00    +0.000 A 
ATOM     28  C   UNL     1      -6.911  -3.706 129.867  0.00  0.00    +0.000 A 
ATOM     29  C   UNL     1      -5.769  -4.223 130.498  0.00  0.00    +0.000 A 
ATOM     30  C   UNL     1      -4.492  -3.868 130.031  0.00  0.00    +0.000 A 
ATOM     31  F   UNL     1      -3.461  -3.926 130.893  0.00  0.00    +0.000 F 
ATOM     32  C   UNL     1      -4.342  -3.073 128.890  0.00  0.00    +0.000 A 
ATOM     33  C   UNL     1      -5.490  -2.592 128.230  0.00  0.00    +0.000 A 
ENDBRANCH  26  27
ENDBRANCH  15  26
TORSDOF 3
ENDMDL
