MODEL 1
REMARK VINA RESULT:      -6.8      0.000      0.000
REMARK  Name = Moclobemide
REMARK  4 active torsions:
REMARK  status: ('A' for Active; 'I' for Inactive)
REMARK    1  A    between atoms: C_5  and  C_8
REMARK    2  A    between atoms: N_10  and  C_11
REMARK    3  A    between atoms: C_11  and  C_12
REMARK    4  A    between atoms: C_12  and  N_13
REMARK                            x       y       z     vdW  Elec       q    Type
REMARK                         _______ _______ _______ _____ _____    ______ ____
ROOT
ATOM      1  C   UNL     1      -8.652   2.795 122.968  0.00  0.00    +0.000 C 
ATOM      2  O   UNL     1      -8.560   3.369 124.054  0.00  0.00    +0.000 OA
ATOM      3  N   UNL     1      -9.348   1.614 122.808  0.00  0.00    +0.000 N 
ATOM      4  H   UNL     1      -9.516   1.195 121.909  0.00  0.00    +0.000 HD
ENDROOT
BRANCH   1   9
ATOM      5 CL   UNL     1      -6.099   5.278 118.147  0.00  0.00    +0.000 Cl
ATOM      6  C   UNL     1      -6.824   4.533 119.515  0.00  0.00    +0.000 A 
ATOM      7  C   UNL     1      -8.198   4.301 119.540  0.00  0.00    +0.000 A 
ATOM      8  C   UNL     1      -8.782   3.716 120.666  0.00  0.00    +0.000 A 
ATOM      9  C   UNL     1      -7.988   3.363 121.768  0.00  0.00    +0.000 A 
ATOM     10  C   UNL     1      -6.606   3.584 121.719  0.00  0.00    +0.000 A 
ATOM     11  C   UNL     1      -6.027   4.170 120.596  0.00  0.00    +0.000 A 
ENDBRANCH   1   9
BRANCH   3  12
ATOM     12  C   UNL     1      -9.972   1.024 123.954  0.00  0.00    +0.000 C 
BRANCH  12  13
ATOM     13  C   UNL     1      -9.102  -0.013 124.693  0.00  0.00    +0.000 C 
BRANCH  13  14
ATOM     14  N   UNL     1      -9.496  -1.429 124.499  0.00  0.00    +0.000 NA
ATOM     15  C   UNL     1      -8.904  -2.305 125.545  0.00  0.00    +0.000 C 
ATOM     16  C   UNL     1      -7.373  -2.446 125.409  0.00  0.00    +0.000 C 
ATOM     17  O   UNL     1      -7.019  -2.959 124.114  0.00  0.00    +0.000 OA
ATOM     18  C   UNL     1      -7.517  -2.080 123.098  0.00  0.00    +0.000 C 
ATOM     19  C   UNL     1      -9.056  -1.973 123.191  0.00  0.00    +0.000 C 
ENDBRANCH  13  14
ENDBRANCH  12  13
ENDBRANCH   3  12
TORSDOF 4
ENDMDL
MODEL 2
REMARK VINA RESULT:      -6.4      1.115      1.871
REMARK  Name = Moclobemide
REMARK  4 active torsions:
REMARK  status: ('A' for Active; 'I' for Inactive)
REMARK    1  A    between atoms: C_5  and  C_8
REMARK    2  A    between atoms: N_10  and  C_11
REMARK    3  A    between atoms: C_11  and  C_12
REMARK    4  A    between atoms: C_12  and  N_13
REMARK                            x       y       z     vdW  Elec       q    Type
REMARK                         _______ _______ _______ _____ _____    ______ ____
ROOT
ATOM      1  C   UNL     1      -7.997   2.525 123.155  0.00  0.00    +0.000 C 
ATOM      2  O   UNL     1      -9.040   2.848 123.726  0.00  0.00    +0.000 OA
ATOM      3  N   UNL     1      -7.200   1.488 123.596  0.00  0.00    +0.000 N 
ATOM      4  H   UNL     1      -6.405   1.151 123.079  0.00  0.00    +0.000 HD
ENDROOT
BRANCH   1   9
ATOM      5 CL   UNL     1      -6.029   5.357 118.254  0.00  0.00    +0.000 Cl
ATOM      6  C   UNL     1      -6.602   4.578 119.674  0.00  0.00    +0.000 A 
ATOM      7  C   UNL     1      -5.725   4.291 120.718  0.00  0.00    +0.000 A 
ATOM      8  C   UNL     1      -6.196   3.636 121.858  0.00  0.00    +0.000 A 
ATOM      9  C   UNL     1      -7.546   3.268 121.952  0.00  0.00    +0.000 A 
ATOM     10  C   UNL     1      -8.419   3.582 120.903  0.00  0.00    +0.000 A 
ATOM     11  C   UNL     1      -7.946   4.232 119.766  0.00  0.00    +0.000 A 
ENDBRANCH   1   9
BRANCH   3  12
ATOM     12  C   UNL     1      -7.592   0.772 124.773  0.00  0.00    +0.000 C 
BRANCH  12  13
ATOM     13  C   UNL     1      -8.502  -0.444 124.508  0.00  0.00    +0.000 C 
BRANCH  13  14
ATOM     14  N   UNL     1      -8.054  -1.352 123.425  0.00  0.00    +0.000 NA
ATOM     15  C   UNL     1      -9.008  -2.476 123.229  0.00  0.00    +0.000 C 
ATOM     16  C   UNL     1      -9.011  -3.469 124.411  0.00  0.00    +0.000 C 
ATOM     17  O   UNL     1      -7.695  -4.006 124.631  0.00  0.00    +0.000 OA
ATOM     18  C   UNL     1      -6.781  -2.936 124.898  0.00  0.00    +0.000 C 
ATOM     19  C   UNL     1      -6.730  -1.962 123.700  0.00  0.00    +0.000 C 
ENDBRANCH  13  14
ENDBRANCH  12  13
ENDBRANCH   3  12
TORSDOF 4
ENDMDL
MODEL 3
REMARK VINA RESULT:      -6.1      8.963     10.041
REMARK  Name = Moclobemide
REMARK  4 active torsions:
REMARK  status: ('A' for Active; 'I' for Inactive)
REMARK    1  A    between atoms: C_5  and  C_8
REMARK    2  A    between atoms: N_10  and  C_11
REMARK    3  A    between atoms: C_11  and  C_12
REMARK    4  A    between atoms: C_12  and  N_13
REMARK                            x       y       z     vdW  Elec       q    Type
REMARK                         _______ _______ _______ _____ _____    ______ ____
ROOT
ATOM      1  C   UNL     1      -9.688   6.042 132.078  0.00  0.00    +0.000 C 
ATOM      2  O   UNL     1      -8.518   6.419 132.152  0.00  0.00    +0.000 OA
ATOM      3  N   UNL     1     -10.163   4.954 132.782  0.00  0.00    +0.000 N 
ATOM      4  H   UNL     1     -11.137   4.702 132.808  0.00  0.00    +0.000 HD
ENDROOT
BRANCH   1   9
ATOM      5 CL   UNL     1     -13.497   8.777 128.346  0.00  0.00    +0.000 Cl
ATOM      6  C   UNL     1     -12.401   8.024 129.434  0.00  0.00    +0.000 A 
ATOM      7  C   UNL     1     -11.040   7.979 129.139  0.00  0.00    +0.000 A 
ATOM      8  C   UNL     1     -10.160   7.344 130.019  0.00  0.00    +0.000 A 
ATOM      9  C   UNL     1     -10.645   6.755 131.196  0.00  0.00    +0.000 A 
ATOM     10  C   UNL     1     -12.012   6.826 131.489  0.00  0.00    +0.000 A 
ATOM     11  C   UNL     1     -12.888   7.457 130.608  0.00  0.00    +0.000 A 
ENDBRANCH   1   9
BRANCH   3  12
ATOM     12  C   UNL     1      -9.256   4.225 133.617  0.00  0.00    +0.000 C 
BRANCH  12  13
ATOM     13  C   UNL     1      -9.109   2.734 133.251  0.00  0.00    +0.000 C 
BRANCH  13  14
ATOM     14  N   UNL     1      -7.820   2.357 132.621  0.00  0.00    +0.000 NA
ATOM     15  C   UNL     1      -7.705   2.910 131.246  0.00  0.00    +0.000 C 
ATOM     16  C   UNL     1      -8.680   2.244 130.251  0.00  0.00    +0.000 C 
ATOM     17  O   UNL     1      -8.469   0.822 130.203  0.00  0.00    +0.000 OA
ATOM     18  C   UNL     1      -8.654   0.267 131.510  0.00  0.00    +0.000 C 
ATOM     19  C   UNL     1      -7.648   0.888 132.504  0.00  0.00    +0.000 C 
ENDBRANCH  13  14
ENDBRANCH  12  13
ENDBRANCH   3  12
TORSDOF 4
ENDMDL
MODEL 4
REMARK VINA RESULT:      -6.1      9.050     10.015
REMARK  Name = Moclobemide
REMARK  4 active torsions:
REMARK  status: ('A' for Active; 'I' for Inactive)
REMARK    1  A    between atoms: C_5  and  C_8
REMARK    2  A    between atoms: N_10  and  C_11
REMARK    3  A    between atoms: C_11  and  C_12
REMARK    4  A    between atoms: C_12  and  N_13
REMARK                            x       y       z     vdW  Elec       q    Type
REMARK                         _______ _______ _______ _____ _____    ______ ____
ROOT
ATOM      1  C   UNL     1     -10.818   5.274 130.043  0.00  0.00    +0.000 C 
ATOM      2  O   UNL     1     -11.515   4.263 130.147  0.00  0.00    +0.000 OA
ATOM      3  N   UNL     1      -9.439   5.223 130.006  0.00  0.00    +0.000 N 
ATOM      4  H   UNL     1      -8.867   6.030 129.818  0.00  0.00    +0.000 HD
ENDROOT
BRANCH   1   9
ATOM      5 CL   UNL     1     -13.497  10.612 129.550  0.00  0.00    +0.000 Cl
ATOM      6  C   UNL     1     -12.701   9.098 129.709  0.00  0.00    +0.000 A 
ATOM      7  C   UNL     1     -11.862   8.638 128.696  0.00  0.00    +0.000 A 
ATOM      8  C   UNL     1     -11.238   7.394 128.824  0.00  0.00    +0.000 A 
ATOM      9  C   UNL     1     -11.454   6.612 129.969  0.00  0.00    +0.000 A 
ATOM     10  C   UNL     1     -12.284   7.098 130.987  0.00  0.00    +0.000 A 
ATOM     11  C   UNL     1     -12.907   8.336 130.855  0.00  0.00    +0.000 A 
ENDBRANCH   1   9
BRANCH   3  12
ATOM     12  C   UNL     1      -8.794   3.949 130.109  0.00  0.00    +0.000 C 
BRANCH  12  13
ATOM     13  C   UNL     1      -7.926   3.772 131.371  0.00  0.00    +0.000 C 
BRANCH  13  14
ATOM     14  N   UNL     1      -8.650   3.325 132.585  0.00  0.00    +0.000 NA
ATOM     15  C   UNL     1      -7.715   3.087 133.718  0.00  0.00    +0.000 C 
ATOM     16  C   UNL     1      -6.807   1.859 133.495  0.00  0.00    +0.000 C 
ATOM     17  O   UNL     1      -7.593   0.674 133.279  0.00  0.00    +0.000 OA
ATOM     18  C   UNL     1      -8.442   0.863 132.142  0.00  0.00    +0.000 C 
ATOM     19  C   UNL     1      -9.393   2.058 132.375  0.00  0.00    +0.000 C 
ENDBRANCH  13  14
ENDBRANCH  12  13
ENDBRANCH   3  12
TORSDOF 4
ENDMDL
MODEL 5
REMARK VINA RESULT:      -6.0      9.729     10.776
REMARK  Name = Moclobemide
REMARK  4 active torsions:
REMARK  status: ('A' for Active; 'I' for Inactive)
REMARK    1  A    between atoms: C_5  and  C_8
REMARK    2  A    between atoms: N_10  and  C_11
REMARK    3  A    between atoms: C_11  and  C_12
REMARK    4  A    between atoms: C_12  and  N_13
REMARK                            x       y       z     vdW  Elec       q    Type
REMARK                         _______ _______ _______ _____ _____    ______ ____
ROOT
ATOM      1  C   UNL     1      -9.337   6.615 131.506  0.00  0.00    +0.000 C 
ATOM      2  O   UNL     1      -9.578   6.341 132.683  0.00  0.00    +0.000 OA
ATOM      3  N   UNL     1      -8.054   6.636 130.996  0.00  0.00    +0.000 N 
ATOM      4  H   UNL     1      -7.857   6.756 130.017  0.00  0.00    +0.000 HD
ENDROOT
BRANCH   1   9
ATOM      5 CL   UNL     1     -13.886   8.135 127.913  0.00  0.00    +0.000 Cl
ATOM      6  C   UNL     1     -12.583   7.666 128.928  0.00  0.00    +0.000 A 
ATOM      7  C   UNL     1     -12.834   7.165 130.204  0.00  0.00    +0.000 A 
ATOM      8  C   UNL     1     -11.766   6.807 131.031  0.00  0.00    +0.000 A 
ATOM      9  C   UNL     1     -10.445   6.952 130.579  0.00  0.00    +0.000 A 
ATOM     10  C   UNL     1     -10.211   7.438 129.287  0.00  0.00    +0.000 A 
ATOM     11  C   UNL     1     -11.277   7.796 128.466  0.00  0.00    +0.000 A 
ENDBRANCH   1   9
BRANCH   3  12
ATOM     12  C   UNL     1      -6.961   6.347 131.874  0.00  0.00    +0.000 C 
BRANCH  12  13
ATOM     13  C   UNL     1      -5.725   5.741 131.177  0.00  0.00    +0.000 C 
BRANCH  13  14
ATOM     14  N   UNL     1      -5.277   6.443 129.950  0.00  0.00    +0.000 NA
ATOM     15  C   UNL     1      -4.368   5.590 129.138  0.00  0.00    +0.000 C 
ATOM     16  C   UNL     1      -3.000   5.362 129.816  0.00  0.00    +0.000 C 
ATOM     17  O   UNL     1      -2.348   6.615 130.088  0.00  0.00    +0.000 OA
ATOM     18  C   UNL     1      -3.182   7.414 130.935  0.00  0.00    +0.000 C 
ATOM     19  C   UNL     1      -4.535   7.694 130.245  0.00  0.00    +0.000 C 
ENDBRANCH  13  14
ENDBRANCH  12  13
ENDBRANCH   3  12
TORSDOF 4
ENDMDL
MODEL 6
REMARK VINA RESULT:      -6.0      9.414     10.588
REMARK  Name = Moclobemide
REMARK  4 active torsions:
REMARK  status: ('A' for Active; 'I' for Inactive)
REMARK    1  A    between atoms: C_5  and  C_8
REMARK    2  A    between atoms: N_10  and  C_11
REMARK    3  A    between atoms: C_11  and  C_12
REMARK    4  A    between atoms: C_12  and  N_13
REMARK                            x       y       z     vdW  Elec       q    Type
REMARK                         _______ _______ _______ _____ _____    ______ ____
ROOT
ATOM      1  C   UNL     1     -10.404   5.321 130.008  0.00  0.00    +0.000 C 
ATOM      2  O   UNL     1      -9.537   5.013 129.189  0.00  0.00    +0.000 OA
ATOM      3  N   UNL     1     -10.707   4.534 131.100  0.00  0.00    +0.000 N 
ATOM      4  H   UNL     1     -11.338   4.827 131.827  0.00  0.00    +0.000 HD
ENDROOT
BRANCH   1   9
ATOM      5 CL   UNL     1     -13.452  10.457 129.505  0.00  0.00    +0.000 Cl
ATOM      6  C   UNL     1     -12.604   8.968 129.628  0.00  0.00    +0.000 A 
ATOM      7  C   UNL     1     -12.844   8.112 130.701  0.00  0.00    +0.000 A 
ATOM      8  C   UNL     1     -12.132   6.914 130.806  0.00  0.00    +0.000 A 
ATOM      9  C   UNL     1     -11.179   6.575 129.833  0.00  0.00    +0.000 A 
ATOM     10  C   UNL     1     -10.965   7.436 128.750  0.00  0.00    +0.000 A 
ATOM     11  C   UNL     1     -11.674   8.630 128.651  0.00  0.00    +0.000 A 
ENDBRANCH   1   9
BRANCH   3  12
ATOM     12  C   UNL     1      -9.999   3.302 131.278  0.00  0.00    +0.000 C 
BRANCH  12  13
ATOM     13  C   UNL     1      -9.313   3.152 132.650  0.00  0.00    +0.000 C 
BRANCH  13  14
ATOM     14  N   UNL     1      -7.831   3.217 132.633  0.00  0.00    +0.000 NA
ATOM     15  C   UNL     1      -7.270   3.192 134.011  0.00  0.00    +0.000 C 
ATOM     16  C   UNL     1      -7.573   4.483 134.801  0.00  0.00    +0.000 C 
ATOM     17  O   UNL     1      -7.066   5.638 134.110  0.00  0.00    +0.000 OA
ATOM     18  C   UNL     1      -7.659   5.715 132.809  0.00  0.00    +0.000 C 
ATOM     19  C   UNL     1      -7.319   4.451 131.988  0.00  0.00    +0.000 C 
ENDBRANCH  13  14
ENDBRANCH  12  13
ENDBRANCH   3  12
TORSDOF 4
ENDMDL
MODEL 7
REMARK VINA RESULT:      -5.8      8.322     10.743
REMARK  Name = Moclobemide
REMARK  4 active torsions:
REMARK  status: ('A' for Active; 'I' for Inactive)
REMARK    1  A    between atoms: C_5  and  C_8
REMARK    2  A    between atoms: N_10  and  C_11
REMARK    3  A    between atoms: C_11  and  C_12
REMARK    4  A    between atoms: C_12  and  N_13
REMARK                            x       y       z     vdW  Elec       q    Type
REMARK                         _______ _______ _______ _____ _____    ______ ____
ROOT
ATOM      1  C   UNL     1      -9.588   4.358 131.277  0.00  0.00    +0.000 C 
ATOM      2  O   UNL     1      -8.696   5.167 131.538  0.00  0.00    +0.000 OA
ATOM      3  N   UNL     1     -10.914   4.725 131.166  0.00  0.00    +0.000 N 
ATOM      4  H   UNL     1     -11.632   4.094 130.853  0.00  0.00    +0.000 HD
ENDROOT
BRANCH   1   9
ATOM      5 CL   UNL     1      -8.035  -1.377 130.489  0.00  0.00    +0.000 Cl
ATOM      6  C   UNL     1      -8.512   0.261 130.698  0.00  0.00    +0.000 A 
ATOM      7  C   UNL     1      -8.161   1.219 129.750  0.00  0.00    +0.000 A 
ATOM      8  C   UNL     1      -8.533   2.552 129.940  0.00  0.00    +0.000 A 
ATOM      9  C   UNL     1      -9.259   2.924 131.082  0.00  0.00    +0.000 A 
ATOM     10  C   UNL     1      -9.622   1.946 132.015  0.00  0.00    +0.000 A 
ATOM     11  C   UNL     1      -9.247   0.618 131.824  0.00  0.00    +0.000 A 
ENDBRANCH   1   9
BRANCH   3  12
ATOM     12  C   UNL     1     -11.268   6.096 131.382  0.00  0.00    +0.000 C 
BRANCH  12  13
ATOM     13  C   UNL     1     -12.215   6.686 130.317  0.00  0.00    +0.000 C 
BRANCH  13  14
ATOM     14  N   UNL     1     -11.811   8.001 129.764  0.00  0.00    +0.000 NA
ATOM     15  C   UNL     1     -12.804   8.502 128.775  0.00  0.00    +0.000 C 
ATOM     16  C   UNL     1     -12.821   7.672 127.474  0.00  0.00    +0.000 C 
ATOM     17  O   UNL     1     -11.520   7.653 126.862  0.00  0.00    +0.000 OA
ATOM     18  C   UNL     1     -10.568   7.099 127.778  0.00  0.00    +0.000 C 
ATOM     19  C   UNL     1     -10.504   7.952 129.065  0.00  0.00    +0.000 C 
ENDBRANCH  13  14
ENDBRANCH  12  13
ENDBRANCH   3  12
TORSDOF 4
ENDMDL
MODEL 8
REMARK VINA RESULT:      -5.8      4.302      8.058
REMARK  Name = Moclobemide
REMARK  4 active torsions:
REMARK  status: ('A' for Active; 'I' for Inactive)
REMARK    1  A    between atoms: C_5  and  C_8
REMARK    2  A    between atoms: N_10  and  C_11
REMARK    3  A    between atoms: C_11  and  C_12
REMARK    4  A    between atoms: C_12  and  N_13
REMARK                            x       y       z     vdW  Elec       q    Type
REMARK                         _______ _______ _______ _____ _____    ______ ____
ROOT
ATOM      1  C   UNL     1      -8.397  -2.086 125.673  0.00  0.00    +0.000 C 
ATOM      2  O   UNL     1      -9.601  -2.168 125.424  0.00  0.00    +0.000 OA
ATOM      3  N   UNL     1      -7.488  -1.562 124.777  0.00  0.00    +0.000 N 
ATOM      4  H   UNL     1      -6.523  -1.396 125.010  0.00  0.00    +0.000 HD
ENDROOT
BRANCH   1   9
ATOM      5 CL   UNL     1      -6.251  -3.840 130.986  0.00  0.00    +0.000 Cl
ATOM      6  C   UNL     1      -6.853  -3.369 129.448  0.00  0.00    +0.000 A 
ATOM      7  C   UNL     1      -6.073  -2.586 128.600  0.00  0.00    +0.000 A 
ATOM      8  C   UNL     1      -6.581  -2.187 127.361  0.00  0.00    +0.000 A 
ATOM      9  C   UNL     1      -7.872  -2.575 126.972  0.00  0.00    +0.000 A 
ATOM     10  C   UNL     1      -8.635  -3.379 127.827  0.00  0.00    +0.000 A 
ATOM     11  C   UNL     1      -8.128  -3.772 129.062  0.00  0.00    +0.000 A 
ENDBRANCH   1   9
BRANCH   3  12
ATOM     12  C   UNL     1      -7.960  -1.112 123.502  0.00  0.00    +0.000 C 
BRANCH  12  13
ATOM     13  C   UNL     1      -7.728   0.387 123.228  0.00  0.00    +0.000 C 
BRANCH  13  14
ATOM     14  N   UNL     1      -8.956   1.210 123.104  0.00  0.00    +0.000 NA
ATOM     15  C   UNL     1      -8.630   2.642 122.870  0.00  0.00    +0.000 C 
ATOM     16  C   UNL     1      -7.993   3.318 124.103  0.00  0.00    +0.000 C 
ATOM     17  O   UNL     1      -8.858   3.216 125.247  0.00  0.00    +0.000 OA
ATOM     18  C   UNL     1      -9.117   1.836 125.529  0.00  0.00    +0.000 C 
ATOM     19  C   UNL     1      -9.803   1.161 124.321  0.00  0.00    +0.000 C 
ENDBRANCH  13  14
ENDBRANCH  12  13
ENDBRANCH   3  12
TORSDOF 4
ENDMDL
MODEL 9
REMARK VINA RESULT:      -5.7     10.159     11.100
REMARK  Name = Moclobemide
REMARK  4 active torsions:
REMARK  status: ('A' for Active; 'I' for Inactive)
REMARK    1  A    between atoms: C_5  and  C_8
REMARK    2  A    between atoms: N_10  and  C_11
REMARK    3  A    between atoms: C_11  and  C_12
REMARK    4  A    between atoms: C_12  and  N_13
REMARK                            x       y       z     vdW  Elec       q    Type
REMARK                         _______ _______ _______ _____ _____    ______ ____
ROOT
ATOM      1  C   UNL     1      -9.305   6.627 131.444  0.00  0.00    +0.000 C 
ATOM      2  O   UNL     1      -9.506   6.343 132.626  0.00  0.00    +0.000 OA
ATOM      3  N   UNL     1      -8.045   6.622 130.882  0.00  0.00    +0.000 N 
ATOM      4  H   UNL     1      -7.884   6.751 129.898  0.00  0.00    +0.000 HD
ENDROOT
BRANCH   1   9
ATOM      5 CL   UNL     1     -13.809   8.017 127.742  0.00  0.00    +0.000 Cl
ATOM      6  C   UNL     1     -12.521   7.652 128.819  0.00  0.00    +0.000 A 
ATOM      7  C   UNL     1     -11.204   7.915 128.450  0.00  0.00    +0.000 A 
ATOM      8  C   UNL     1     -10.162   7.593 129.324  0.00  0.00    +0.000 A 
ATOM      9  C   UNL     1     -10.441   7.006 130.567  0.00  0.00    +0.000 A 
ATOM     10  C   UNL     1     -11.772   6.767 130.931  0.00  0.00    +0.000 A 
ATOM     11  C   UNL     1     -12.808   7.087 130.058  0.00  0.00    +0.000 A 
ENDBRANCH   1   9
BRANCH   3  12
ATOM     12  C   UNL     1      -6.924   6.293 131.711  0.00  0.00    +0.000 C 
BRANCH  12  13
ATOM     13  C   UNL     1      -5.560   6.348 130.993  0.00  0.00    +0.000 C 
BRANCH  13  14
ATOM     14  N   UNL     1      -4.451   5.640 131.677  0.00  0.00    +0.000 NA
ATOM     15  C   UNL     1      -3.858   6.475 132.756  0.00  0.00    +0.000 C 
ATOM     16  C   UNL     1      -3.084   7.694 132.210  0.00  0.00    +0.000 C 
ATOM     17  O   UNL     1      -2.041   7.278 131.312  0.00  0.00    +0.000 OA
ATOM     18  C   UNL     1      -2.611   6.538 130.226  0.00  0.00    +0.000 C 
ATOM     19  C   UNL     1      -3.343   5.286 130.756  0.00  0.00    +0.000 C 
ENDBRANCH  13  14
ENDBRANCH  12  13
ENDBRANCH   3  12
TORSDOF 4
ENDMDL
