MODEL 1
REMARK VINA RESULT:      -7.0      0.000      0.000
REMARK  Name = Modafinil
REMARK  5 active torsions:
REMARK  status: ('A' for Active; 'I' for Inactive)
REMARK    1  A    between atoms: C_2  and  C_4
REMARK    2  A    between atoms: C_4  and  S_5
REMARK    3  A    between atoms: S_5  and  C_7
REMARK    4  A    between atoms: C_7  and  C_8
REMARK    5  A    between atoms: C_7  and  C_14
REMARK                            x       y       z     vdW  Elec       q    Type
REMARK                         _______ _______ _______ _____ _____    ______ ____
ROOT
ATOM      1  C   UNL     1      -8.055  -2.524 125.038  0.00  0.00    +0.000 C 
ENDROOT
BRANCH   1   2
ATOM      2  C   UNL     1      -6.726  -3.000 124.470  0.00  0.00    +0.000 A 
ATOM      3  C   UNL     1      -6.376  -4.362 124.473  0.00  0.00    +0.000 A 
ATOM      4  C   UNL     1      -5.158  -4.805 123.975  0.00  0.00    +0.000 A 
ATOM      5  C   UNL     1      -4.278  -3.894 123.415  0.00  0.00    +0.000 A 
ATOM      6  C   UNL     1      -4.607  -2.539 123.377  0.00  0.00    +0.000 A 
ATOM      7  C   UNL     1      -5.825  -2.090 123.899  0.00  0.00    +0.000 A 
ENDBRANCH   1   2
BRANCH   1   8
ATOM      8  C   UNL     1      -8.129  -2.736 126.558  0.00  0.00    +0.000 A 
ATOM      9  C   UNL     1      -7.287  -2.054 127.445  0.00  0.00    +0.000 A 
ATOM     10  C   UNL     1      -7.297  -2.383 128.807  0.00  0.00    +0.000 A 
ATOM     11  C   UNL     1      -8.213  -3.307 129.314  0.00  0.00    +0.000 A 
ATOM     12  C   UNL     1      -9.091  -3.950 128.457  0.00  0.00    +0.000 A 
ATOM     13  C   UNL     1      -9.023  -3.686 127.098  0.00  0.00    +0.000 A 
ENDBRANCH   1   8
BRANCH   1  14
ATOM     14  S   UNL     1      -8.394  -0.727 124.710  0.00  0.00    +0.000 S 
ATOM     15  O   UNL     1      -9.544  -0.323 125.588  0.00  0.00    +0.000 OA
BRANCH  14  16
ATOM     16  C   UNL     1      -8.971  -0.705 122.990  0.00  0.00    +0.000 C 
BRANCH  16  18
ATOM     17  N   UNL     1      -9.455   1.721 123.025  0.00  0.00    +0.000 N 
ATOM     18  C   UNL     1      -9.942   0.465 122.823  0.00  0.00    +0.000 C 
ATOM     19  O   UNL     1     -11.142   0.364 122.554  0.00  0.00    +0.000 OA
ATOM     20  H   UNL     1     -10.123   2.475 122.901  0.00  0.00    +0.000 HD
ATOM     21  H   UNL     1      -8.511   1.950 123.295  0.00  0.00    +0.000 HD
ENDBRANCH  16  18
ENDBRANCH  14  16
ENDBRANCH   1  14
TORSDOF 5
ENDMDL
MODEL 2
REMARK VINA RESULT:      -6.7      1.937      2.263
REMARK  Name = Modafinil
REMARK  5 active torsions:
REMARK  status: ('A' for Active; 'I' for Inactive)
REMARK    1  A    between atoms: C_2  and  C_4
REMARK    2  A    between atoms: C_4  and  S_5
REMARK    3  A    between atoms: S_5  and  C_7
REMARK    4  A    between atoms: C_7  and  C_8
REMARK    5  A    between atoms: C_7  and  C_14
REMARK                            x       y       z     vdW  Elec       q    Type
REMARK                         _______ _______ _______ _____ _____    ______ ____
ROOT
ATOM      1  C   UNL     1      -8.285  -0.919 125.813  0.00  0.00    +0.000 C 
ENDROOT
BRANCH   1   2
ATOM      2  C   UNL     1      -7.335  -1.436 124.743  0.00  0.00    +0.000 A 
ATOM      3  C   UNL     1      -7.716  -1.492 123.391  0.00  0.00    +0.000 A 
ATOM      4  C   UNL     1      -6.864  -1.980 122.410  0.00  0.00    +0.000 A 
ATOM      5  C   UNL     1      -5.583  -2.379 122.755  0.00  0.00    +0.000 A 
ATOM      6  C   UNL     1      -5.167  -2.312 124.085  0.00  0.00    +0.000 A 
ATOM      7  C   UNL     1      -6.035  -1.843 125.078  0.00  0.00    +0.000 A 
ENDBRANCH   1   2
BRANCH   1   8
ATOM      8  C   UNL     1      -8.317  -1.847 127.037  0.00  0.00    +0.000 A 
ATOM      9  C   UNL     1      -7.719  -1.494 128.253  0.00  0.00    +0.000 A 
ATOM     10  C   UNL     1      -7.655  -2.429 129.295  0.00  0.00    +0.000 A 
ATOM     11  C   UNL     1      -8.273  -3.675 129.178  0.00  0.00    +0.000 A 
ATOM     12  C   UNL     1      -8.917  -4.019 128.001  0.00  0.00    +0.000 A 
ATOM     13  C   UNL     1      -8.908  -3.126 126.940  0.00  0.00    +0.000 A 
ENDBRANCH   1   8
BRANCH   1  14
ATOM     14  S   UNL     1      -7.857   0.785 126.417  0.00  0.00    +0.000 S 
ATOM     15  O   UNL     1      -9.086   1.346 127.073  0.00  0.00    +0.000 OA
BRANCH  14  16
ATOM     16  C   UNL     1      -7.561   1.721 124.892  0.00  0.00    +0.000 C 
BRANCH  16  18
ATOM     17  N   UNL     1      -9.894   2.093 124.156  0.00  0.00    +0.000 N 
ATOM     18  C   UNL     1      -8.756   2.648 124.657  0.00  0.00    +0.000 C 
ATOM     19  O   UNL     1      -8.762   3.867 124.851  0.00  0.00    +0.000 OA
ATOM     20  H   UNL     1     -10.669   2.734 124.017  0.00  0.00    +0.000 HD
ATOM     21  H   UNL     1     -10.017   1.124 123.907  0.00  0.00    +0.000 HD
ENDBRANCH  16  18
ENDBRANCH  14  16
ENDBRANCH   1  14
TORSDOF 5
ENDMDL
MODEL 3
REMARK VINA RESULT:      -6.7      1.128      1.218
REMARK  Name = Modafinil
REMARK  5 active torsions:
REMARK  status: ('A' for Active; 'I' for Inactive)
REMARK    1  A    between atoms: C_2  and  C_4
REMARK    2  A    between atoms: C_4  and  S_5
REMARK    3  A    between atoms: S_5  and  C_7
REMARK    4  A    between atoms: C_7  and  C_8
REMARK    5  A    between atoms: C_7  and  C_14
REMARK                            x       y       z     vdW  Elec       q    Type
REMARK                         _______ _______ _______ _____ _____    ______ ____
ROOT
ATOM      1  C   UNL     1      -8.287  -1.463 125.204  0.00  0.00    +0.000 C 
ENDROOT
BRANCH   1   2
ATOM      2  C   UNL     1      -7.106  -2.002 124.412  0.00  0.00    +0.000 A 
ATOM      3  C   UNL     1      -6.077  -2.731 125.036  0.00  0.00    +0.000 A 
ATOM      4  C   UNL     1      -4.986  -3.211 124.326  0.00  0.00    +0.000 A 
ATOM      5  C   UNL     1      -4.923  -3.014 122.956  0.00  0.00    +0.000 A 
ATOM      6  C   UNL     1      -5.940  -2.316 122.304  0.00  0.00    +0.000 A 
ATOM      7  C   UNL     1      -7.029  -1.812 123.024  0.00  0.00    +0.000 A 
ENDBRANCH   1   2
BRANCH   1   8
ATOM      8  C   UNL     1      -8.379  -2.113 126.594  0.00  0.00    +0.000 A 
ATOM      9  C   UNL     1      -7.768  -1.548 127.720  0.00  0.00    +0.000 A 
ATOM     10  C   UNL     1      -7.763  -2.248 128.934  0.00  0.00    +0.000 A 
ATOM     11  C   UNL     1      -8.453  -3.454 129.068  0.00  0.00    +0.000 A 
ATOM     12  C   UNL     1      -9.110  -3.998 127.978  0.00  0.00    +0.000 A 
ATOM     13  C   UNL     1      -9.043  -3.348 126.755  0.00  0.00    +0.000 A 
ENDBRANCH   1   8
BRANCH   1  14
ATOM     14  S   UNL     1      -8.227   0.377 125.453  0.00  0.00    +0.000 S 
ATOM     15  O   UNL     1      -9.438   0.757 126.256  0.00  0.00    +0.000 OA
BRANCH  14  16
ATOM     16  C   UNL     1      -8.435   1.045 123.780  0.00  0.00    +0.000 C 
BRANCH  16  18
ATOM     17  N   UNL     1     -10.843   1.586 123.956  0.00  0.00    +0.000 N 
ATOM     18  C   UNL     1      -9.887   0.826 123.351  0.00  0.00    +0.000 C 
ATOM     19  O   UNL     1     -10.270  -0.008 122.526  0.00  0.00    +0.000 OA
ATOM     20  H   UNL     1     -11.795   1.421 123.645  0.00  0.00    +0.000 HD
ATOM     21  H   UNL     1     -10.681   2.271 124.678  0.00  0.00    +0.000 HD
ENDBRANCH  16  18
ENDBRANCH  14  16
ENDBRANCH   1  14
TORSDOF 5
ENDMDL
MODEL 4
REMARK VINA RESULT:      -6.4      3.786      5.963
REMARK  Name = Modafinil
REMARK  5 active torsions:
REMARK  status: ('A' for Active; 'I' for Inactive)
REMARK    1  A    between atoms: C_2  and  C_4
REMARK    2  A    between atoms: C_4  and  S_5
REMARK    3  A    between atoms: S_5  and  C_7
REMARK    4  A    between atoms: C_7  and  C_8
REMARK    5  A    between atoms: C_7  and  C_14
REMARK                            x       y       z     vdW  Elec       q    Type
REMARK                         _______ _______ _______ _____ _____    ______ ____
ROOT
ATOM      1  C   UNL     1      -7.786   1.891 124.087  0.00  0.00    +0.000 C 
ENDROOT
BRANCH   1   2
ATOM      2  C   UNL     1      -7.653   2.629 122.763  0.00  0.00    +0.000 A 
ATOM      3  C   UNL     1      -8.785   2.984 122.007  0.00  0.00    +0.000 A 
ATOM      4  C   UNL     1      -8.674   3.640 120.789  0.00  0.00    +0.000 A 
ATOM      5  C   UNL     1      -7.422   4.003 120.320  0.00  0.00    +0.000 A 
ATOM      6  C   UNL     1      -6.282   3.686 121.060  0.00  0.00    +0.000 A 
ATOM      7  C   UNL     1      -6.392   3.004 122.276  0.00  0.00    +0.000 A 
ENDBRANCH   1   2
BRANCH   1   8
ATOM      8  C   UNL     1      -7.776   0.367 123.887  0.00  0.00    +0.000 A 
ATOM      9  C   UNL     1      -6.834  -0.269 123.070  0.00  0.00    +0.000 A 
ATOM     10  C   UNL     1      -6.950  -1.641 122.810  0.00  0.00    +0.000 A 
ATOM     11  C   UNL     1      -7.932  -2.409 123.442  0.00  0.00    +0.000 A 
ATOM     12  C   UNL     1      -8.836  -1.804 124.297  0.00  0.00    +0.000 A 
ATOM     13  C   UNL     1      -8.773  -0.432 124.488  0.00  0.00    +0.000 A 
ENDBRANCH   1   8
BRANCH   1  14
ATOM     14  S   UNL     1      -6.438   2.302 125.298  0.00  0.00    +0.000 S 
ATOM     15  O   UNL     1      -6.096   1.037 126.030  0.00  0.00    +0.000 OA
BRANCH  14  16
ATOM     16  C   UNL     1      -7.242   3.427 126.470  0.00  0.00    +0.000 C 
BRANCH  16  18
ATOM     17  N   UNL     1      -6.802   5.386 125.024  0.00  0.00    +0.000 N 
ATOM     18  C   UNL     1      -7.732   4.656 125.701  0.00  0.00    +0.000 C 
ATOM     19  O   UNL     1      -8.897   5.062 125.670  0.00  0.00    +0.000 OA
ATOM     20  H   UNL     1      -7.160   6.191 124.519  0.00  0.00    +0.000 HD
ATOM     21  H   UNL     1      -5.811   5.200 124.999  0.00  0.00    +0.000 HD
ENDBRANCH  16  18
ENDBRANCH  14  16
ENDBRANCH   1  14
TORSDOF 5
ENDMDL
MODEL 5
REMARK VINA RESULT:      -6.3      2.267      2.599
REMARK  Name = Modafinil
REMARK  5 active torsions:
REMARK  status: ('A' for Active; 'I' for Inactive)
REMARK    1  A    between atoms: C_2  and  C_4
REMARK    2  A    between atoms: C_4  and  S_5
REMARK    3  A    between atoms: S_5  and  C_7
REMARK    4  A    between atoms: C_7  and  C_8
REMARK    5  A    between atoms: C_7  and  C_14
REMARK                            x       y       z     vdW  Elec       q    Type
REMARK                         _______ _______ _______ _____ _____    ______ ____
ROOT
ATOM      1  C   UNL     1      -8.147  -0.884 125.617  0.00  0.00    +0.000 C 
ENDROOT
BRANCH   1   2
ATOM      2  C   UNL     1      -7.159  -1.482 124.626  0.00  0.00    +0.000 A 
ATOM      3  C   UNL     1      -5.938  -2.034 125.054  0.00  0.00    +0.000 A 
ATOM      4  C   UNL     1      -5.021  -2.564 124.157  0.00  0.00    +0.000 A 
ATOM      5  C   UNL     1      -5.329  -2.600 122.806  0.00  0.00    +0.000 A 
ATOM      6  C   UNL     1      -6.543  -2.081 122.355  0.00  0.00    +0.000 A 
ATOM      7  C   UNL     1      -7.457  -1.526 123.256  0.00  0.00    +0.000 A 
ENDBRANCH   1   2
BRANCH   1   8
ATOM      8  C   UNL     1      -8.260  -1.740 126.888  0.00  0.00    +0.000 A 
ATOM      9  C   UNL     1      -7.761  -1.308 128.122  0.00  0.00    +0.000 A 
ATOM     10  C   UNL     1      -7.764  -2.179 129.219  0.00  0.00    +0.000 A 
ATOM     11  C   UNL     1      -8.357  -3.440 129.131  0.00  0.00    +0.000 A 
ATOM     12  C   UNL     1      -8.906  -3.862 127.932  0.00  0.00    +0.000 A 
ATOM     13  C   UNL     1      -8.827  -3.032 126.823  0.00  0.00    +0.000 A 
ENDBRANCH   1   8
BRANCH   1  14
ATOM     14  S   UNL     1      -7.707   0.841 126.145  0.00  0.00    +0.000 S 
ATOM     15  O   UNL     1      -8.995   1.580 126.372  0.00  0.00    +0.000 OA
BRANCH  14  16
ATOM     16  C   UNL     1      -6.908   1.550 124.680  0.00  0.00    +0.000 C 
BRANCH  16  18
ATOM     17  N   UNL     1      -7.940   3.780 124.393  0.00  0.00    +0.000 N 
ATOM     18  C   UNL     1      -6.867   3.071 124.841  0.00  0.00    +0.000 C 
ATOM     19  O   UNL     1      -5.925   3.714 125.313  0.00  0.00    +0.000 OA
ATOM     20  H   UNL     1      -7.884   4.785 124.519  0.00  0.00    +0.000 HD
ATOM     21  H   UNL     1      -8.756   3.393 123.944  0.00  0.00    +0.000 HD
ENDBRANCH  16  18
ENDBRANCH  14  16
ENDBRANCH   1  14
TORSDOF 5
ENDMDL
MODEL 6
REMARK VINA RESULT:      -6.1      1.936      4.766
REMARK  Name = Modafinil
REMARK  5 active torsions:
REMARK  status: ('A' for Active; 'I' for Inactive)
REMARK    1  A    between atoms: C_2  and  C_4
REMARK    2  A    between atoms: C_4  and  S_5
REMARK    3  A    between atoms: S_5  and  C_7
REMARK    4  A    between atoms: C_7  and  C_8
REMARK    5  A    between atoms: C_7  and  C_14
REMARK                            x       y       z     vdW  Elec       q    Type
REMARK                         _______ _______ _______ _____ _____    ______ ____
ROOT
ATOM      1  C   UNL     1      -6.067  -1.302 126.589  0.00  0.00    +0.000 C 
ENDROOT
BRANCH   1   2
ATOM      2  C   UNL     1      -7.086  -2.211 127.261  0.00  0.00    +0.000 A 
ATOM      3  C   UNL     1      -7.042  -2.461 128.644  0.00  0.00    +0.000 A 
ATOM      4  C   UNL     1      -7.954  -3.304 129.264  0.00  0.00    +0.000 A 
ATOM      5  C   UNL     1      -8.968  -3.880 128.517  0.00  0.00    +0.000 A 
ATOM      6  C   UNL     1      -9.052  -3.632 127.147  0.00  0.00    +0.000 A 
ATOM      7  C   UNL     1      -8.118  -2.801 126.517  0.00  0.00    +0.000 A 
ENDBRANCH   1   2
BRANCH   1   8
ATOM      8  C   UNL     1      -5.955  -1.594 125.084  0.00  0.00    +0.000 A 
ATOM      9  C   UNL     1      -6.611  -0.814 124.124  0.00  0.00    +0.000 A 
ATOM     10  C   UNL     1      -6.590  -1.202 122.778  0.00  0.00    +0.000 A 
ATOM     11  C   UNL     1      -5.834  -2.300 122.361  0.00  0.00    +0.000 A 
ATOM     12  C   UNL     1      -5.134  -3.049 123.291  0.00  0.00    +0.000 A 
ATOM     13  C   UNL     1      -5.223  -2.715 124.634  0.00  0.00    +0.000 A 
ENDBRANCH   1   8
BRANCH   1  14
ATOM     14  S   UNL     1      -6.456   0.505 126.776  0.00  0.00    +0.000 S 
ATOM     15  O   UNL     1      -5.639   1.020 127.926  0.00  0.00    +0.000 OA
BRANCH  14  16
ATOM     16  C   UNL     1      -8.199   0.520 127.280  0.00  0.00    +0.000 C 
BRANCH  16  18
ATOM     17  N   UNL     1      -8.791   1.978 125.370  0.00  0.00    +0.000 N 
ATOM     18  C   UNL     1      -9.053   0.826 126.047  0.00  0.00    +0.000 C 
ATOM     19  O   UNL     1      -9.986   0.131 125.635  0.00  0.00    +0.000 OA
ATOM     20  H   UNL     1      -9.371   2.149 124.555  0.00  0.00    +0.000 HD
ATOM     21  H   UNL     1      -8.093   2.662 125.619  0.00  0.00    +0.000 HD
ENDBRANCH  16  18
ENDBRANCH  14  16
ENDBRANCH   1  14
TORSDOF 5
ENDMDL
MODEL 7
REMARK VINA RESULT:      -6.1      1.044      4.308
REMARK  Name = Modafinil
REMARK  5 active torsions:
REMARK  status: ('A' for Active; 'I' for Inactive)
REMARK    1  A    between atoms: C_2  and  C_4
REMARK    2  A    between atoms: C_4  and  S_5
REMARK    3  A    between atoms: S_5  and  C_7
REMARK    4  A    between atoms: C_7  and  C_8
REMARK    5  A    between atoms: C_7  and  C_14
REMARK                            x       y       z     vdW  Elec       q    Type
REMARK                         _______ _______ _______ _____ _____    ______ ____
ROOT
ATOM      1  C   UNL     1      -7.527  -1.576 125.422  0.00  0.00    +0.000 C 
ENDROOT
BRANCH   1   2
ATOM      2  C   UNL     1      -7.800  -2.224 126.771  0.00  0.00    +0.000 A 
ATOM      3  C   UNL     1      -8.697  -3.300 126.897  0.00  0.00    +0.000 A 
ATOM      4  C   UNL     1      -8.968  -3.886 128.126  0.00  0.00    +0.000 A 
ATOM      5  C   UNL     1      -8.304  -3.438 129.257  0.00  0.00    +0.000 A 
ATOM      6  C   UNL     1      -7.391  -2.388 129.160  0.00  0.00    +0.000 A 
ATOM      7  C   UNL     1      -7.136  -1.782 127.924  0.00  0.00    +0.000 A 
ENDBRANCH   1   2
BRANCH   1   8
ATOM      8  C   UNL     1      -6.469  -2.354 124.625  0.00  0.00    +0.000 A 
ATOM      9  C   UNL     1      -5.879  -3.524 125.117  0.00  0.00    +0.000 A 
ATOM     10  C   UNL     1      -4.822  -4.120 124.417  0.00  0.00    +0.000 A 
ATOM     11  C   UNL     1      -4.416  -3.625 123.176  0.00  0.00    +0.000 A 
ATOM     12  C   UNL     1      -5.028  -2.500 122.648  0.00  0.00    +0.000 A 
ATOM     13  C   UNL     1      -6.016  -1.862 123.381  0.00  0.00    +0.000 A 
ENDBRANCH   1   8
BRANCH   1  14
ATOM     14  S   UNL     1      -9.040  -1.439 124.352  0.00  0.00    +0.000 S 
ATOM     15  O   UNL     1      -9.024  -2.605 123.406  0.00  0.00    +0.000 OA
BRANCH  14  16
ATOM     16  C   UNL     1      -8.749   0.068 123.386  0.00  0.00    +0.000 C 
BRANCH  16  18
ATOM     17  N   UNL     1     -10.200   1.956 124.057  0.00  0.00    +0.000 N 
ATOM     18  C   UNL     1     -10.067   0.840 123.288  0.00  0.00    +0.000 C 
ATOM     19  O   UNL     1     -11.035   0.514 122.596  0.00  0.00    +0.000 OA
ATOM     20  H   UNL     1     -11.083   2.448 123.965  0.00  0.00    +0.000 HD
ATOM     21  H   UNL     1      -9.512   2.313 124.702  0.00  0.00    +0.000 HD
ENDBRANCH  16  18
ENDBRANCH  14  16
ENDBRANCH   1  14
TORSDOF 5
ENDMDL
MODEL 8
REMARK VINA RESULT:      -6.0      6.327      8.171
REMARK  Name = Modafinil
REMARK  5 active torsions:
REMARK  status: ('A' for Active; 'I' for Inactive)
REMARK    1  A    between atoms: C_2  and  C_4
REMARK    2  A    between atoms: C_4  and  S_5
REMARK    3  A    between atoms: S_5  and  C_7
REMARK    4  A    between atoms: C_7  and  C_8
REMARK    5  A    between atoms: C_7  and  C_14
REMARK                            x       y       z     vdW  Elec       q    Type
REMARK                         _______ _______ _______ _____ _____    ______ ____
ROOT
ATOM      1  C   UNL     1      -6.037   4.694 125.531  0.00  0.00    +0.000 C 
ENDROOT
BRANCH   1   2
ATOM      2  C   UNL     1      -4.749   4.416 126.291  0.00  0.00    +0.000 A 
ATOM      3  C   UNL     1      -4.040   3.215 126.115  0.00  0.00    +0.000 A 
ATOM      4  C   UNL     1      -2.875   2.943 126.818  0.00  0.00    +0.000 A 
ATOM      5  C   UNL     1      -2.362   3.896 127.684  0.00  0.00    +0.000 A 
ATOM      6  C   UNL     1      -3.030   5.107 127.862  0.00  0.00    +0.000 A 
ATOM      7  C   UNL     1      -4.217   5.371 127.170  0.00  0.00    +0.000 A 
ENDBRANCH   1   2
BRANCH   1   8
ATOM      8  C   UNL     1      -5.985   4.125 124.104  0.00  0.00    +0.000 A 
ATOM      9  C   UNL     1      -5.161   4.674 123.115  0.00  0.00    +0.000 A 
ATOM     10  C   UNL     1      -5.250   4.209 121.796  0.00  0.00    +0.000 A 
ATOM     11  C   UNL     1      -6.074   3.129 121.472  0.00  0.00    +0.000 A 
ATOM     12  C   UNL     1      -6.854   2.538 122.452  0.00  0.00    +0.000 A 
ATOM     13  C   UNL     1      -6.828   3.053 123.739  0.00  0.00    +0.000 A 
ENDBRANCH   1   8
BRANCH   1  14
ATOM     14  S   UNL     1      -7.546   3.990 126.356  0.00  0.00    +0.000 S 
ATOM     15  O   UNL     1      -8.498   5.127 126.588  0.00  0.00    +0.000 OA
BRANCH  14  16
ATOM     16  C   UNL     1      -6.934   3.435 127.970  0.00  0.00    +0.000 C 
BRANCH  16  18
ATOM     17  N   UNL     1      -8.762   4.188 129.459  0.00  0.00    +0.000 N 
ATOM     18  C   UNL     1      -7.479   4.381 129.042  0.00  0.00    +0.000 C 
ATOM     19  O   UNL     1      -6.863   5.329 129.537  0.00  0.00    +0.000 OA
ATOM     20  H   UNL     1      -9.091   4.828 130.174  0.00  0.00    +0.000 HD
ATOM     21  H   UNL     1      -9.395   3.486 129.109  0.00  0.00    +0.000 HD
ENDBRANCH  16  18
ENDBRANCH  14  16
ENDBRANCH   1  14
TORSDOF 5
ENDMDL
MODEL 9
REMARK VINA RESULT:      -6.0      4.643      7.384
REMARK  Name = Modafinil
REMARK  5 active torsions:
REMARK  status: ('A' for Active; 'I' for Inactive)
REMARK    1  A    between atoms: C_2  and  C_4
REMARK    2  A    between atoms: C_4  and  S_5
REMARK    3  A    between atoms: S_5  and  C_7
REMARK    4  A    between atoms: C_7  and  C_8
REMARK    5  A    between atoms: C_7  and  C_14
REMARK                            x       y       z     vdW  Elec       q    Type
REMARK                         _______ _______ _______ _____ _____    ______ ____
ROOT
ATOM      1  C   UNL     1      -7.036  -1.438 129.759  0.00  0.00    +0.000 C 
ENDROOT
BRANCH   1   2
ATOM      2  C   UNL     1      -7.809  -0.219 130.239  0.00  0.00    +0.000 A 
ATOM      3  C   UNL     1      -8.642  -0.281 131.371  0.00  0.00    +0.000 A 
ATOM      4  C   UNL     1      -9.367   0.819 131.806  0.00  0.00    +0.000 A 
ATOM      5  C   UNL     1      -9.235   2.029 131.144  0.00  0.00    +0.000 A 
ATOM      6  C   UNL     1      -8.398   2.128 130.032  0.00  0.00    +0.000 A 
ATOM      7  C   UNL     1      -7.685   1.012 129.579  0.00  0.00    +0.000 A 
ENDBRANCH   1   2
BRANCH   1   8
ATOM      8  C   UNL     1      -7.753  -2.140 128.595  0.00  0.00    +0.000 A 
ATOM      9  C   UNL     1      -7.894  -1.539 127.338  0.00  0.00    +0.000 A 
ATOM     10  C   UNL     1      -8.675  -2.158 126.353  0.00  0.00    +0.000 A 
ATOM     11  C   UNL     1      -9.228  -3.422 126.568  0.00  0.00    +0.000 A 
ATOM     12  C   UNL     1      -9.050  -4.055 127.787  0.00  0.00    +0.000 A 
ATOM     13  C   UNL     1      -8.349  -3.405 128.790  0.00  0.00    +0.000 A 
ENDBRANCH   1   8
BRANCH   1  14
ATOM     14  S   UNL     1      -5.312  -1.040 129.191  0.00  0.00    +0.000 S 
ATOM     15  O   UNL     1      -4.835  -2.201 128.367  0.00  0.00    +0.000 OA
BRANCH  14  16
ATOM     16  C   UNL     1      -4.349  -1.012 130.727  0.00  0.00    +0.000 C 
BRANCH  16  18
ATOM     17  N   UNL     1      -2.393  -2.149 129.724  0.00  0.00    +0.000 N 
ATOM     18  C   UNL     1      -3.352  -2.173 130.691  0.00  0.00    +0.000 C 
ATOM     19  O   UNL     1      -3.366  -3.150 131.446  0.00  0.00    +0.000 OA
ATOM     20  H   UNL     1      -1.744  -2.929 129.731  0.00  0.00    +0.000 HD
ATOM     21  H   UNL     1      -2.290  -1.441 129.014  0.00  0.00    +0.000 HD
ENDBRANCH  16  18
ENDBRANCH  14  16
ENDBRANCH   1  14
TORSDOF 5
ENDMDL
