MODEL 1
REMARK VINA RESULT:      -7.6      0.000      0.000
REMARK  Name = Moexipril
REMARK  17 active torsions:
REMARK  status: ('A' for Active; 'I' for Inactive)
REMARK    1  A    between atoms: C_1  and  C_2
REMARK    2  A    between atoms: C_2  and  O_3
REMARK    3  A    between atoms: O_3  and  C_4
REMARK    4  A    between atoms: C_4  and  C_6
REMARK    5  A    between atoms: C_6  and  C_7
REMARK    6  A    between atoms: C_6  and  N_15
REMARK    7  A    between atoms: C_7  and  C_8
REMARK    8  A    between atoms: C_8  and  C_9
REMARK    9  A    between atoms: N_15  and  CA_16
REMARK   10  A    between atoms: CA_16  and  CB_17
REMARK   11  A    between atoms: CA_16  and  C_18
REMARK   12  A    between atoms: C_24  and  O_25
REMARK   13  A    between atoms: O_25  and  C_26
REMARK   14  A    between atoms: C_27  and  O_28
REMARK   15  A    between atoms: O_28  and  C_29
REMARK   16  A    between atoms: C_33  and  C_34
REMARK   17  A    between atoms: C_34  and  O_35
REMARK                            x       y       z     vdW  Elec       q    Type
REMARK                         _______ _______ _______ _____ _____    ______ ____
ROOT
ATOM      1  C   ALA A   1      -8.069   2.667 127.283  0.00  0.00    +0.000 C 
ATOM      2  O   ALA A   1      -8.701   3.430 128.018  0.00  0.00    +0.000 OA
ATOM      3  N   UNK A   2      -7.613   1.419 127.757  0.00  0.00    +0.000 N 
ATOM      4  C   UNK A   2      -7.688   1.225 129.217  0.00  0.00    +0.000 C 
ATOM      5  C   UNK A   2      -6.849   0.033 129.650  0.00  0.00    +0.000 A 
ATOM      6  C   UNK A   2      -7.351  -1.046 130.376  0.00  0.00    +0.000 A 
ATOM      7  C   UNK A   2      -6.559  -2.199 130.562  0.00  0.00    +0.000 A 
ATOM      8  C   UNK A   2      -5.286  -2.301 129.954  0.00  0.00    +0.000 A 
ATOM      9  C   UNK A   2      -4.772  -1.220 129.258  0.00  0.00    +0.000 A 
ATOM     10  C   UNK A   2      -5.562  -0.093 129.074  0.00  0.00    +0.000 A 
ATOM     11  C   UNK A   2      -5.273   0.800 127.898  0.00  0.00    +0.000 C 
ATOM     12  C   UNK A   2      -6.567   0.627 127.056  0.00  0.00    +0.000 C 
ENDROOT
BRANCH   1  13
ATOM     13  CA  ALA A   1      -7.779   3.030 125.794  0.00  0.00    +0.000 C 
ATOM     14  CB  ALA A   1      -7.098   4.357 125.717  0.00  0.00    +0.000 C 
BRANCH  13  15
ATOM     15  N   ALA A   1      -9.040   3.215 125.034  0.00  0.00    +0.000 NA
ATOM     16  H   ALA A   1      -9.777   3.139 125.738  0.00  0.00    +0.000 HD
BRANCH  15  17
ATOM     17  C   UNK A   0      -9.312   2.259 123.910  0.00  0.00    +0.000 C 
BRANCH  17  18
ATOM     18  C   UNK A   0      -9.369   0.705 124.233  0.00  0.00    +0.000 C 
ATOM     19  O   UNK A   0     -10.050   0.261 125.139  0.00  0.00    +0.000 OA
BRANCH  18  20
ATOM     20  O   UNK A   0      -8.573  -0.099 123.453  0.00  0.00    +0.000 OA
BRANCH  20  22
ATOM     21  C   UNK A   0      -8.737  -2.618 123.478  0.00  0.00    +0.000 C 
ATOM     22  C   UNK A   0      -9.186  -1.277 122.845  0.00  0.00    +0.000 C 
ENDBRANCH  20  22
ENDBRANCH  18  20
ENDBRANCH  17  18
BRANCH  17  23
ATOM     23  C   UNK A   0      -8.258   2.404 122.797  0.00  0.00    +0.000 C 
BRANCH  23  24
ATOM     24  C   UNK A   0      -8.710   3.234 121.589  0.00  0.00    +0.000 C 
BRANCH  24  25
ATOM     25  C   UNK A   0      -7.518   3.745 120.844  0.00  0.00    +0.000 A 
ATOM     26  C   UNK A   0      -6.278   3.818 121.483  0.00  0.00    +0.000 A 
ATOM     27  C   UNK A   0      -5.242   4.524 120.887  0.00  0.00    +0.000 A 
ATOM     28  C   UNK A   0      -5.409   5.063 119.612  0.00  0.00    +0.000 A 
ATOM     29  C   UNK A   0      -6.624   4.929 118.941  0.00  0.00    +0.000 A 
ATOM     30  C   UNK A   0      -7.683   4.278 119.560  0.00  0.00    +0.000 A 
ENDBRANCH  24  25
ENDBRANCH  23  24
ENDBRANCH  17  23
ENDBRANCH  15  17
ENDBRANCH  13  15
ENDBRANCH   1  13
BRANCH   7  31
ATOM     31  O   UNK A   2      -7.161  -3.170 131.331  0.00  0.00    +0.000 OA
ATOM     32  C   UNK A   2      -7.579  -2.755 132.632  0.00  0.00    +0.000 C 
ENDBRANCH   7  31
BRANCH   8  33
ATOM     33  O   UNK A   2      -4.648  -3.508 129.985  0.00  0.00    +0.000 OA
ATOM     34  C   UNK A   2      -3.517  -3.724 129.160  0.00  0.00    +0.000 C 
ENDBRANCH   8  33
BRANCH  12  35
ATOM     35  C   UNK A   2      -6.899  -0.774 126.490  0.00  0.00    +0.000 C 
ATOM     36  O   UNK A   2      -6.074  -1.398 125.828  0.00  0.00    +0.000 OA
BRANCH  35  37
ATOM     37  O   UNK A   2      -8.109  -1.297 126.718  0.00  0.00    +0.000 OA
ATOM     38  H   UNK A   2      -8.215  -1.727 127.579  0.00  0.00    +0.000 HD
ENDBRANCH  35  37
ENDBRANCH  12  35
TORSDOF 13
ENDMDL
MODEL 2
REMARK VINA RESULT:      -7.6      3.749      8.372
REMARK  Name = Moexipril
REMARK  17 active torsions:
REMARK  status: ('A' for Active; 'I' for Inactive)
REMARK    1  A    between atoms: C_1  and  C_2
REMARK    2  A    between atoms: C_2  and  O_3
REMARK    3  A    between atoms: O_3  and  C_4
REMARK    4  A    between atoms: C_4  and  C_6
REMARK    5  A    between atoms: C_6  and  C_7
REMARK    6  A    between atoms: C_6  and  N_15
REMARK    7  A    between atoms: C_7  and  C_8
REMARK    8  A    between atoms: C_8  and  C_9
REMARK    9  A    between atoms: N_15  and  CA_16
REMARK   10  A    between atoms: CA_16  and  CB_17
REMARK   11  A    between atoms: CA_16  and  C_18
REMARK   12  A    between atoms: C_24  and  O_25
REMARK   13  A    between atoms: O_25  and  C_26
REMARK   14  A    between atoms: C_27  and  O_28
REMARK   15  A    between atoms: O_28  and  C_29
REMARK   16  A    between atoms: C_33  and  C_34
REMARK   17  A    between atoms: C_34  and  O_35
REMARK                            x       y       z     vdW  Elec       q    Type
REMARK                         _______ _______ _______ _____ _____    ______ ____
ROOT
ATOM      1  C   ALA A   1      -4.605   3.616 128.001  0.00  0.00    +0.000 C 
ATOM      2  O   ALA A   1      -3.806   2.744 128.355  0.00  0.00    +0.000 OA
ATOM      3  N   UNK A   2      -5.566   3.352 127.003  0.00  0.00    +0.000 N 
ATOM      4  C   UNK A   2      -5.368   2.106 126.239  0.00  0.00    +0.000 C 
ATOM      5  C   UNK A   2      -6.215   2.103 124.975  0.00  0.00    +0.000 A 
ATOM      6  C   UNK A   2      -7.130   1.102 124.659  0.00  0.00    +0.000 A 
ATOM      7  C   UNK A   2      -8.017   1.276 123.574  0.00  0.00    +0.000 A 
ATOM      8  C   UNK A   2      -8.035   2.490 122.850  0.00  0.00    +0.000 A 
ATOM      9  C   UNK A   2      -7.105   3.475 123.142  0.00  0.00    +0.000 A 
ATOM     10  C   UNK A   2      -6.243   3.298 124.216  0.00  0.00    +0.000 A 
ATOM     11  C   UNK A   2      -5.665   4.517 124.880  0.00  0.00    +0.000 C 
ATOM     12  C   UNK A   2      -6.304   4.431 126.292  0.00  0.00    +0.000 C 
ENDROOT
BRANCH   1  13
ATOM     13  CA  ALA A   1      -4.611   5.029 128.662  0.00  0.00    +0.000 C 
ATOM     14  CB  ALA A   1      -3.537   5.111 129.696  0.00  0.00    +0.000 C 
BRANCH  13  15
ATOM     15  N   ALA A   1      -5.869   5.262 129.413  0.00  0.00    +0.000 NA
ATOM     16  H   ALA A   1      -5.939   6.279 129.487  0.00  0.00    +0.000 HD
BRANCH  15  17
ATOM     17  C   UNK A   0      -5.982   4.645 130.775  0.00  0.00    +0.000 C 
BRANCH  17  18
ATOM     18  C   UNK A   0      -6.785   3.282 130.926  0.00  0.00    +0.000 C 
ATOM     19  O   UNK A   0      -6.369   2.364 131.608  0.00  0.00    +0.000 OA
BRANCH  18  20
ATOM     20  O   UNK A   0      -7.954   3.193 130.209  0.00  0.00    +0.000 OA
BRANCH  20  22
ATOM     21  C   UNK A   0     -10.474   3.276 130.340  0.00  0.00    +0.000 C 
ATOM     22  C   UNK A   0      -9.145   2.719 130.910  0.00  0.00    +0.000 C 
ENDBRANCH  20  22
ENDBRANCH  18  20
ENDBRANCH  17  18
BRANCH  17  23
ATOM     23  C   UNK A   0      -6.644   5.618 131.767  0.00  0.00    +0.000 C 
BRANCH  23  24
ATOM     24  C   UNK A   0      -7.298   6.847 131.122  0.00  0.00    +0.000 C 
BRANCH  24  25
ATOM     25  C   UNK A   0      -8.786   6.689 131.113  0.00  0.00    +0.000 A 
ATOM     26  C   UNK A   0      -9.527   7.158 130.026  0.00  0.00    +0.000 A 
ATOM     27  C   UNK A   0     -10.908   7.248 130.128  0.00  0.00    +0.000 A 
ATOM     28  C   UNK A   0     -11.555   6.770 131.267  0.00  0.00    +0.000 A 
ATOM     29  C   UNK A   0     -10.821   6.235 132.326  0.00  0.00    +0.000 A 
ATOM     30  C   UNK A   0      -9.435   6.203 132.253  0.00  0.00    +0.000 A 
ENDBRANCH  24  25
ENDBRANCH  23  24
ENDBRANCH  17  23
ENDBRANCH  15  17
ENDBRANCH  13  15
ENDBRANCH   1  13
BRANCH   7  31
ATOM     31  O   UNK A   2      -8.839   0.194 123.347  0.00  0.00    +0.000 OA
ATOM     32  C   UNK A   2      -8.183  -1.071 123.255  0.00  0.00    +0.000 C 
ENDBRANCH   7  31
BRANCH   8  33
ATOM     33  O   UNK A   2      -9.043   2.695 121.951  0.00  0.00    +0.000 OA
ATOM     34  C   UNK A   2      -8.859   3.613 120.889  0.00  0.00    +0.000 C 
ENDBRANCH   8  33
BRANCH  12  35
ATOM     35  C   UNK A   2      -7.843   4.534 126.416  0.00  0.00    +0.000 C 
ATOM     36  O   UNK A   2      -8.470   5.380 125.785  0.00  0.00    +0.000 OA
BRANCH  35  37
ATOM     37  O   UNK A   2      -8.487   3.696 127.236  0.00  0.00    +0.000 OA
ATOM     38  H   UNK A   2      -9.307   3.323 126.881  0.00  0.00    +0.000 HD
ENDBRANCH  35  37
ENDBRANCH  12  35
TORSDOF 13
ENDMDL
MODEL 3
REMARK VINA RESULT:      -7.4      4.969      9.065
REMARK  Name = Moexipril
REMARK  17 active torsions:
REMARK  status: ('A' for Active; 'I' for Inactive)
REMARK    1  A    between atoms: C_1  and  C_2
REMARK    2  A    between atoms: C_2  and  O_3
REMARK    3  A    between atoms: O_3  and  C_4
REMARK    4  A    between atoms: C_4  and  C_6
REMARK    5  A    between atoms: C_6  and  C_7
REMARK    6  A    between atoms: C_6  and  N_15
REMARK    7  A    between atoms: C_7  and  C_8
REMARK    8  A    between atoms: C_8  and  C_9
REMARK    9  A    between atoms: N_15  and  CA_16
REMARK   10  A    between atoms: CA_16  and  CB_17
REMARK   11  A    between atoms: CA_16  and  C_18
REMARK   12  A    between atoms: C_24  and  O_25
REMARK   13  A    between atoms: O_25  and  C_26
REMARK   14  A    between atoms: C_27  and  O_28
REMARK   15  A    between atoms: O_28  and  C_29
REMARK   16  A    between atoms: C_33  and  C_34
REMARK   17  A    between atoms: C_34  and  O_35
REMARK                            x       y       z     vdW  Elec       q    Type
REMARK                         _______ _______ _______ _____ _____    ______ ____
ROOT
ATOM      1  C   ALA A   1      -7.183   4.777 132.220  0.00  0.00    +0.000 C 
ATOM      2  O   ALA A   1      -6.151   5.439 132.371  0.00  0.00    +0.000 OA
ATOM      3  N   UNK A   2      -8.243   5.263 131.427  0.00  0.00    +0.000 N 
ATOM      4  C   UNK A   2      -8.156   6.684 131.045  0.00  0.00    +0.000 C 
ATOM      5  C   UNK A   2      -9.493   7.190 130.526  0.00  0.00    +0.000 A 
ATOM      6  C   UNK A   2      -9.664   7.785 129.277  0.00  0.00    +0.000 A 
ATOM      7  C   UNK A   2     -10.965   8.041 128.792  0.00  0.00    +0.000 A 
ATOM      8  C   UNK A   2     -12.099   7.632 129.530  0.00  0.00    +0.000 A 
ATOM      9  C   UNK A   2     -11.933   7.070 130.786  0.00  0.00    +0.000 A 
ATOM     10  C   UNK A   2     -10.649   6.814 131.250  0.00  0.00    +0.000 A 
ATOM     11  C   UNK A   2     -10.462   5.735 132.281  0.00  0.00    +0.000 C 
ATOM     12  C   UNK A   2      -9.618   4.698 131.492  0.00  0.00    +0.000 C 
ENDROOT
BRANCH   1  13
ATOM     13  CA  ALA A   1      -7.344   3.367 132.867  0.00  0.00    +0.000 C 
ATOM     14  CB  ALA A   1      -6.875   3.401 134.285  0.00  0.00    +0.000 C 
BRANCH  13  15
ATOM     15  N   ALA A   1      -6.461   2.373 132.208  0.00  0.00    +0.000 NA
ATOM     16  H   ALA A   1      -5.557   2.483 132.673  0.00  0.00    +0.000 HD
BRANCH  15  17
ATOM     17  C   UNK A   0      -6.285   2.488 130.723  0.00  0.00    +0.000 C 
BRANCH  17  18
ATOM     18  C   UNK A   0      -7.055   1.463 129.785  0.00  0.00    +0.000 C 
ATOM     19  O   UNK A   0      -8.237   1.216 129.937  0.00  0.00    +0.000 OA
BRANCH  18  20
ATOM     20  O   UNK A   0      -6.295   0.846 128.821  0.00  0.00    +0.000 OA
BRANCH  20  22
ATOM     21  C   UNK A   0      -6.561   2.554 126.981  0.00  0.00    +0.000 C 
ATOM     22  C   UNK A   0      -6.656   1.072 127.424  0.00  0.00    +0.000 C 
ENDBRANCH  20  22
ENDBRANCH  18  20
ENDBRANCH  17  18
BRANCH  17  23
ATOM     23  C   UNK A   0      -4.800   2.358 130.334  0.00  0.00    +0.000 C 
BRANCH  23  24
ATOM     24  C   UNK A   0      -3.842   3.229 131.156  0.00  0.00    +0.000 C 
BRANCH  24  25
ATOM     25  C   UNK A   0      -3.164   4.223 130.268  0.00  0.00    +0.000 A 
ATOM     26  C   UNK A   0      -2.587   5.369 130.821  0.00  0.00    +0.000 A 
ATOM     27  C   UNK A   0      -2.191   6.406 129.988  0.00  0.00    +0.000 A 
ATOM     28  C   UNK A   0      -2.269   6.255 128.603  0.00  0.00    +0.000 A 
ATOM     29  C   UNK A   0      -2.777   5.082 128.047  0.00  0.00    +0.000 A 
ATOM     30  C   UNK A   0      -3.234   4.069 128.879  0.00  0.00    +0.000 A 
ENDBRANCH  24  25
ENDBRANCH  23  24
ENDBRANCH  17  23
ENDBRANCH  15  17
ENDBRANCH  13  15
ENDBRANCH   1  13
BRANCH   7  31
ATOM     31  O   UNK A   2     -10.989   8.668 127.566  0.00  0.00    +0.000 OA
ATOM     32  C   UNK A   2     -10.810   7.817 126.433  0.00  0.00    +0.000 C 
ENDBRANCH   7  31
BRANCH   8  33
ATOM     33  O   UNK A   2     -13.325   7.710 128.932  0.00  0.00    +0.000 OA
ATOM     34  C   UNK A   2     -13.765   6.656 128.095  0.00  0.00    +0.000 C 
ENDBRANCH   8  33
BRANCH  12  35
ATOM     35  C   UNK A   2     -10.245   4.029 130.245  0.00  0.00    +0.000 C 
ATOM     36  O   UNK A   2     -11.408   3.637 130.258  0.00  0.00    +0.000 OA
BRANCH  35  37
ATOM     37  O   UNK A   2      -9.496   3.867 129.148  0.00  0.00    +0.000 OA
ATOM     38  H   UNK A   2      -8.615   3.497 129.304  0.00  0.00    +0.000 HD
ENDBRANCH  35  37
ENDBRANCH  12  35
TORSDOF 13
ENDMDL
MODEL 4
REMARK VINA RESULT:      -7.4      4.760      9.536
REMARK  Name = Moexipril
REMARK  17 active torsions:
REMARK  status: ('A' for Active; 'I' for Inactive)
REMARK    1  A    between atoms: C_1  and  C_2
REMARK    2  A    between atoms: C_2  and  O_3
REMARK    3  A    between atoms: O_3  and  C_4
REMARK    4  A    between atoms: C_4  and  C_6
REMARK    5  A    between atoms: C_6  and  C_7
REMARK    6  A    between atoms: C_6  and  N_15
REMARK    7  A    between atoms: C_7  and  C_8
REMARK    8  A    between atoms: C_8  and  C_9
REMARK    9  A    between atoms: N_15  and  CA_16
REMARK   10  A    between atoms: CA_16  and  CB_17
REMARK   11  A    between atoms: CA_16  and  C_18
REMARK   12  A    between atoms: C_24  and  O_25
REMARK   13  A    between atoms: O_25  and  C_26
REMARK   14  A    between atoms: C_27  and  O_28
REMARK   15  A    between atoms: O_28  and  C_29
REMARK   16  A    between atoms: C_33  and  C_34
REMARK   17  A    between atoms: C_34  and  O_35
REMARK                            x       y       z     vdW  Elec       q    Type
REMARK                         _______ _______ _______ _____ _____    ______ ____
ROOT
ATOM      1  C   ALA A   1      -6.939   4.210 132.141  0.00  0.00    +0.000 C 
ATOM      2  O   ALA A   1      -5.878   4.820 132.305  0.00  0.00    +0.000 OA
ATOM      3  N   UNK A   2      -8.020   4.811 131.463  0.00  0.00    +0.000 N 
ATOM      4  C   UNK A   2      -7.901   6.262 131.230  0.00  0.00    +0.000 C 
ATOM      5  C   UNK A   2      -9.244   6.862 130.841  0.00  0.00    +0.000 A 
ATOM      6  C   UNK A   2      -9.456   7.593 129.674  0.00  0.00    +0.000 A 
ATOM      7  C   UNK A   2     -10.770   7.939 129.290  0.00  0.00    +0.000 A 
ATOM      8  C   UNK A   2     -11.880   7.487 130.041  0.00  0.00    +0.000 A 
ATOM      9  C   UNK A   2     -11.670   6.787 131.218  0.00  0.00    +0.000 A 
ATOM     10  C   UNK A   2     -10.375   6.444 131.582  0.00  0.00    +0.000 A 
ATOM     11  C   UNK A   2     -10.175   5.255 132.481  0.00  0.00    +0.000 C 
ATOM     12  C   UNK A   2      -9.409   4.285 131.541  0.00  0.00    +0.000 C 
ENDROOT
BRANCH   1  13
ATOM     13  CA  ALA A   1      -7.117   2.744 132.642  0.00  0.00    +0.000 C 
ATOM     14  CB  ALA A   1      -6.696   2.639 134.071  0.00  0.00    +0.000 C 
BRANCH  13  15
ATOM     15  N   ALA A   1      -6.211   1.818 131.918  0.00  0.00    +0.000 NA
ATOM     16  H   ALA A   1      -5.515   2.428 131.483  0.00  0.00    +0.000 HD
BRANCH  15  17
ATOM     17  C   UNK A   0      -6.825   0.927 130.880  0.00  0.00    +0.000 C 
BRANCH  17  18
ATOM     18  C   UNK A   0      -7.184   1.549 129.463  0.00  0.00    +0.000 C 
ATOM     19  O   UNK A   0      -6.544   2.465 128.982  0.00  0.00    +0.000 OA
BRANCH  18  20
ATOM     20  O   UNK A   0      -8.282   1.013 128.835  0.00  0.00    +0.000 OA
BRANCH  20  22
ATOM     21  C   UNK A   0      -7.742  -0.503 126.889  0.00  0.00    +0.000 C 
ATOM     22  C   UNK A   0      -8.236   0.881 127.380  0.00  0.00    +0.000 C 
ENDBRANCH  20  22
ENDBRANCH  18  20
ENDBRANCH  17  18
BRANCH  17  23
ATOM     23  C   UNK A   0      -8.136   0.305 131.395  0.00  0.00    +0.000 C 
BRANCH  23  24
ATOM     24  C   UNK A   0      -7.953  -0.898 132.329  0.00  0.00    +0.000 C 
BRANCH  24  25
ATOM     25  C   UNK A   0      -7.523  -2.096 131.544  0.00  0.00    +0.000 A 
ATOM     26  C   UNK A   0      -6.526  -2.935 132.047  0.00  0.00    +0.000 A 
ATOM     27  C   UNK A   0      -5.950  -3.886 131.217  0.00  0.00    +0.000 A 
ATOM     28  C   UNK A   0      -6.441  -4.072 129.924  0.00  0.00    +0.000 A 
ATOM     29  C   UNK A   0      -7.485  -3.284 129.444  0.00  0.00    +0.000 A 
ATOM     30  C   UNK A   0      -8.022  -2.288 130.250  0.00  0.00    +0.000 A 
ENDBRANCH  24  25
ENDBRANCH  23  24
ENDBRANCH  17  23
ENDBRANCH  15  17
ENDBRANCH  13  15
ENDBRANCH   1  13
BRANCH   7  31
ATOM     31  O   UNK A   2     -10.833   8.695 128.141  0.00  0.00    +0.000 OA
ATOM     32  C   UNK A   2     -10.714   7.970 126.916  0.00  0.00    +0.000 C 
ENDBRANCH   7  31
BRANCH   8  33
ATOM     33  O   UNK A   2     -13.130   7.667 129.522  0.00  0.00    +0.000 OA
ATOM     34  C   UNK A   2     -13.610   6.780 128.526  0.00  0.00    +0.000 C 
ENDBRANCH   8  33
BRANCH  12  35
ATOM     35  C   UNK A   2     -10.122   3.774 130.266  0.00  0.00    +0.000 C 
ATOM     36  O   UNK A   2     -11.288   3.391 130.306  0.00  0.00    +0.000 OA
BRANCH  35  37
ATOM     37  O   UNK A   2      -9.444   3.738 129.113  0.00  0.00    +0.000 OA
ATOM     38  H   UNK A   2      -9.484   2.895 128.640  0.00  0.00    +0.000 HD
ENDBRANCH  35  37
ENDBRANCH  12  35
TORSDOF 13
ENDMDL
MODEL 5
REMARK VINA RESULT:      -7.3      5.280      9.661
REMARK  Name = Moexipril
REMARK  17 active torsions:
REMARK  status: ('A' for Active; 'I' for Inactive)
REMARK    1  A    between atoms: C_1  and  C_2
REMARK    2  A    between atoms: C_2  and  O_3
REMARK    3  A    between atoms: O_3  and  C_4
REMARK    4  A    between atoms: C_4  and  C_6
REMARK    5  A    between atoms: C_6  and  C_7
REMARK    6  A    between atoms: C_6  and  N_15
REMARK    7  A    between atoms: C_7  and  C_8
REMARK    8  A    between atoms: C_8  and  C_9
REMARK    9  A    between atoms: N_15  and  CA_16
REMARK   10  A    between atoms: CA_16  and  CB_17
REMARK   11  A    between atoms: CA_16  and  C_18
REMARK   12  A    between atoms: C_24  and  O_25
REMARK   13  A    between atoms: O_25  and  C_26
REMARK   14  A    between atoms: C_27  and  O_28
REMARK   15  A    between atoms: O_28  and  C_29
REMARK   16  A    between atoms: C_33  and  C_34
REMARK   17  A    between atoms: C_34  and  O_35
REMARK                            x       y       z     vdW  Elec       q    Type
REMARK                         _______ _______ _______ _____ _____    ______ ____
ROOT
ATOM      1  C   ALA A   1      -7.011   4.112 132.179  0.00  0.00    +0.000 C 
ATOM      2  O   ALA A   1      -5.925   4.681 132.324  0.00  0.00    +0.000 OA
ATOM      3  N   UNK A   2      -8.069   4.740 131.490  0.00  0.00    +0.000 N 
ATOM      4  C   UNK A   2      -7.891   6.178 131.220  0.00  0.00    +0.000 C 
ATOM      5  C   UNK A   2      -9.210   6.823 130.821  0.00  0.00    +0.000 A 
ATOM      6  C   UNK A   2      -9.397   7.533 129.637  0.00  0.00    +0.000 A 
ATOM      7  C   UNK A   2     -10.697   7.924 129.249  0.00  0.00    +0.000 A 
ATOM      8  C   UNK A   2     -11.821   7.537 130.015  0.00  0.00    +0.000 A 
ATOM      9  C   UNK A   2     -11.635   6.859 131.209  0.00  0.00    +0.000 A 
ATOM     10  C   UNK A   2     -10.354   6.471 131.577  0.00  0.00    +0.000 A 
ATOM     11  C   UNK A   2     -10.199   5.298 132.505  0.00  0.00    +0.000 C 
ATOM     12  C   UNK A   2      -9.478   4.273 131.587  0.00  0.00    +0.000 C 
ENDROOT
BRANCH   1  13
ATOM     13  CA  ALA A   1      -7.247   2.667 132.718  0.00  0.00    +0.000 C 
ATOM     14  CB  ALA A   1      -6.709   2.546 134.105  0.00  0.00    +0.000 C 
BRANCH  13  15
ATOM     15  N   ALA A   1      -6.477   1.671 131.932  0.00  0.00    +0.000 NA
ATOM     16  H   ALA A   1      -6.581   1.975 130.961  0.00  0.00    +0.000 HD
BRANCH  15  17
ATOM     17  C   UNK A   0      -6.881   0.233 132.059  0.00  0.00    +0.000 C 
BRANCH  17  18
ATOM     18  C   UNK A   0      -6.123  -0.677 133.118  0.00  0.00    +0.000 C 
ATOM     19  O   UNK A   0      -4.926  -0.883 133.049  0.00  0.00    +0.000 OA
BRANCH  18  20
ATOM     20  O   UNK A   0      -6.910  -1.246 134.091  0.00  0.00    +0.000 OA
BRANCH  20  22
ATOM     21  C   UNK A   0      -8.357  -3.315 134.170  0.00  0.00    +0.000 C 
ATOM     22  C   UNK A   0      -6.932  -2.705 134.179  0.00  0.00    +0.000 C 
ENDBRANCH  20  22
ENDBRANCH  18  20
ENDBRANCH  17  18
BRANCH  17  23
ATOM     23  C   UNK A   0      -6.735  -0.501 130.714  0.00  0.00    +0.000 C 
BRANCH  23  24
ATOM     24  C   UNK A   0      -7.309  -1.924 130.692  0.00  0.00    +0.000 C 
BRANCH  24  25
ATOM     25  C   UNK A   0      -7.880  -2.225 129.343  0.00  0.00    +0.000 A 
ATOM     26  C   UNK A   0      -8.524  -3.444 129.118  0.00  0.00    +0.000 A 
ATOM     27  C   UNK A   0      -8.822  -3.830 127.819  0.00  0.00    +0.000 A 
ATOM     28  C   UNK A   0      -8.577  -2.957 126.759  0.00  0.00    +0.000 A 
ATOM     29  C   UNK A   0      -8.000  -1.709 126.989  0.00  0.00    +0.000 A 
ATOM     30  C   UNK A   0      -7.642  -1.345 128.281  0.00  0.00    +0.000 A 
ENDBRANCH  24  25
ENDBRANCH  23  24
ENDBRANCH  17  23
ENDBRANCH  15  17
ENDBRANCH  13  15
ENDBRANCH   1  13
BRANCH   7  31
ATOM     31  O   UNK A   2     -10.734   8.653 128.082  0.00  0.00    +0.000 OA
ATOM     32  C   UNK A   2     -10.720   7.890 126.875  0.00  0.00    +0.000 C 
ENDBRANCH   7  31
BRANCH   8  33
ATOM     33  O   UNK A   2     -13.066   7.755 129.496  0.00  0.00    +0.000 OA
ATOM     34  C   UNK A   2     -13.625   6.814 128.598  0.00  0.00    +0.000 C 
ENDBRANCH   8  33
BRANCH  12  35
ATOM     35  C   UNK A   2     -10.218   3.761 130.327  0.00  0.00    +0.000 C 
ATOM     36  O   UNK A   2      -9.621   3.610 129.264  0.00  0.00    +0.000 OA
BRANCH  35  37
ATOM     37  O   UNK A   2     -11.526   3.496 130.405  0.00  0.00    +0.000 OA
ATOM     38  H   UNK A   2     -11.944   3.242 129.569  0.00  0.00    +0.000 HD
ENDBRANCH  35  37
ENDBRANCH  12  35
TORSDOF 13
ENDMDL
MODEL 6
REMARK VINA RESULT:      -7.3      4.695      9.157
REMARK  Name = Moexipril
REMARK  17 active torsions:
REMARK  status: ('A' for Active; 'I' for Inactive)
REMARK    1  A    between atoms: C_1  and  C_2
REMARK    2  A    between atoms: C_2  and  O_3
REMARK    3  A    between atoms: O_3  and  C_4
REMARK    4  A    between atoms: C_4  and  C_6
REMARK    5  A    between atoms: C_6  and  C_7
REMARK    6  A    between atoms: C_6  and  N_15
REMARK    7  A    between atoms: C_7  and  C_8
REMARK    8  A    between atoms: C_8  and  C_9
REMARK    9  A    between atoms: N_15  and  CA_16
REMARK   10  A    between atoms: CA_16  and  CB_17
REMARK   11  A    between atoms: CA_16  and  C_18
REMARK   12  A    between atoms: C_24  and  O_25
REMARK   13  A    between atoms: O_25  and  C_26
REMARK   14  A    between atoms: C_27  and  O_28
REMARK   15  A    between atoms: O_28  and  C_29
REMARK   16  A    between atoms: C_33  and  C_34
REMARK   17  A    between atoms: C_34  and  O_35
REMARK                            x       y       z     vdW  Elec       q    Type
REMARK                         _______ _______ _______ _____ _____    ______ ____
ROOT
ATOM      1  C   ALA A   1      -6.791   4.096 131.962  0.00  0.00    +0.000 C 
ATOM      2  O   ALA A   1      -5.717   4.692 132.091  0.00  0.00    +0.000 OA
ATOM      3  N   UNK A   2      -7.894   4.720 131.344  0.00  0.00    +0.000 N 
ATOM      4  C   UNK A   2      -7.770   6.173 131.132  0.00  0.00    +0.000 C 
ATOM      5  C   UNK A   2      -9.122   6.793 130.814  0.00  0.00    +0.000 A 
ATOM      6  C   UNK A   2      -9.378   7.549 129.671  0.00  0.00    +0.000 A 
ATOM      7  C   UNK A   2     -10.704   7.914 129.351  0.00  0.00    +0.000 A 
ATOM      8  C   UNK A   2     -11.784   7.459 130.142  0.00  0.00    +0.000 A 
ATOM      9  C   UNK A   2     -11.531   6.735 131.296  0.00  0.00    +0.000 A 
ATOM     10  C   UNK A   2     -10.224   6.372 131.596  0.00  0.00    +0.000 A 
ATOM     11  C   UNK A   2      -9.998   5.165 132.463  0.00  0.00    +0.000 C 
ATOM     12  C   UNK A   2      -9.284   4.205 131.473  0.00  0.00    +0.000 C 
ENDROOT
BRANCH   1  13
ATOM     13  CA  ALA A   1      -6.962   2.622 132.444  0.00  0.00    +0.000 C 
ATOM     14  CB  ALA A   1      -6.970   2.571 133.936  0.00  0.00    +0.000 C 
BRANCH  13  15
ATOM     15  N   ALA A   1      -5.796   1.793 132.050  0.00  0.00    +0.000 NA
ATOM     16  H   ALA A   1      -5.022   2.457 131.975  0.00  0.00    +0.000 HD
BRANCH  15  17
ATOM     17  C   UNK A   0      -5.911   1.003 130.780  0.00  0.00    +0.000 C 
BRANCH  17  18
ATOM     18  C   UNK A   0      -7.129   1.306 129.806  0.00  0.00    +0.000 C 
ATOM     19  O   UNK A   0      -8.233   0.827 129.989  0.00  0.00    +0.000 OA
BRANCH  18  20
ATOM     20  O   UNK A   0      -6.847   2.108 128.726  0.00  0.00    +0.000 OA
BRANCH  20  22
ATOM     21  C   UNK A   0      -5.120   1.485 126.993  0.00  0.00    +0.000 C 
ATOM     22  C   UNK A   0      -5.450   2.225 128.314  0.00  0.00    +0.000 C 
ENDBRANCH  20  22
ENDBRANCH  18  20
ENDBRANCH  17  18
BRANCH  17  23
ATOM     23  C   UNK A   0      -5.994  -0.506 131.077  0.00  0.00    +0.000 C 
BRANCH  23  24
ATOM     24  C   UNK A   0      -5.296  -1.402 130.046  0.00  0.00    +0.000 C 
BRANCH  24  25
ATOM     25  C   UNK A   0      -6.314  -2.121 129.219  0.00  0.00    +0.000 A 
ATOM     26  C   UNK A   0      -6.292  -1.998 127.827  0.00  0.00    +0.000 A 
ATOM     27  C   UNK A   0      -7.375  -2.446 127.084  0.00  0.00    +0.000 A 
ATOM     28  C   UNK A   0      -8.426  -3.110 127.715  0.00  0.00    +0.000 A 
ATOM     29  C   UNK A   0      -8.417  -3.298 129.096  0.00  0.00    +0.000 A 
ATOM     30  C   UNK A   0      -7.366  -2.795 129.851  0.00  0.00    +0.000 A 
ENDBRANCH  24  25
ENDBRANCH  23  24
ENDBRANCH  17  23
ENDBRANCH  15  17
ENDBRANCH  13  15
ENDBRANCH   1  13
BRANCH   7  31
ATOM     31  O   UNK A   2     -10.809   8.693 128.221  0.00  0.00    +0.000 OA
ATOM     32  C   UNK A   2     -10.743   7.991 126.979  0.00  0.00    +0.000 C 
ENDBRANCH   7  31
BRANCH   8  33
ATOM     33  O   UNK A   2     -13.054   7.660 129.682  0.00  0.00    +0.000 OA
ATOM     34  C   UNK A   2     -13.592   6.786 128.705  0.00  0.00    +0.000 C 
ENDBRANCH   8  33
BRANCH  12  35
ATOM     35  C   UNK A   2     -10.057   3.725 130.221  0.00  0.00    +0.000 C 
ATOM     36  O   UNK A   2     -11.256   3.468 130.281  0.00  0.00    +0.000 OA
BRANCH  35  37
ATOM     37  O   UNK A   2      -9.397   3.577 129.067  0.00  0.00    +0.000 OA
ATOM     38  H   UNK A   2      -9.760   4.074 128.319  0.00  0.00    +0.000 HD
ENDBRANCH  35  37
ENDBRANCH  12  35
TORSDOF 13
ENDMDL
MODEL 7
REMARK VINA RESULT:      -7.1      3.938      8.278
REMARK  Name = Moexipril
REMARK  17 active torsions:
REMARK  status: ('A' for Active; 'I' for Inactive)
REMARK    1  A    between atoms: C_1  and  C_2
REMARK    2  A    between atoms: C_2  and  O_3
REMARK    3  A    between atoms: O_3  and  C_4
REMARK    4  A    between atoms: C_4  and  C_6
REMARK    5  A    between atoms: C_6  and  C_7
REMARK    6  A    between atoms: C_6  and  N_15
REMARK    7  A    between atoms: C_7  and  C_8
REMARK    8  A    between atoms: C_8  and  C_9
REMARK    9  A    between atoms: N_15  and  CA_16
REMARK   10  A    between atoms: CA_16  and  CB_17
REMARK   11  A    between atoms: CA_16  and  C_18
REMARK   12  A    between atoms: C_24  and  O_25
REMARK   13  A    between atoms: O_25  and  C_26
REMARK   14  A    between atoms: C_27  and  O_28
REMARK   15  A    between atoms: O_28  and  C_29
REMARK   16  A    between atoms: C_33  and  C_34
REMARK   17  A    between atoms: C_34  and  O_35
REMARK                            x       y       z     vdW  Elec       q    Type
REMARK                         _______ _______ _______ _____ _____    ______ ____
ROOT
ATOM      1  C   ALA A   1      -4.807   2.502 128.653  0.00  0.00    +0.000 C 
ATOM      2  O   ALA A   1      -4.067   1.532 128.844  0.00  0.00    +0.000 OA
ATOM      3  N   UNK A   2      -5.704   2.522 127.565  0.00  0.00    +0.000 N 
ATOM      4  C   UNK A   2      -5.499   1.476 126.547  0.00  0.00    +0.000 C 
ATOM      5  C   UNK A   2      -6.254   1.805 125.269  0.00  0.00    +0.000 A 
ATOM      6  C   UNK A   2      -7.182   0.951 124.675  0.00  0.00    +0.000 A 
ATOM      7  C   UNK A   2      -7.983   1.414 123.609  0.00  0.00    +0.000 A 
ATOM      8  C   UNK A   2      -7.905   2.761 123.185  0.00  0.00    +0.000 A 
ATOM      9  C   UNK A   2      -6.962   3.604 123.752  0.00  0.00    +0.000 A 
ATOM     10  C   UNK A   2      -6.185   3.141 124.806  0.00  0.00    +0.000 A 
ATOM     11  C   UNK A   2      -5.610   4.145 125.766  0.00  0.00    +0.000 C 
ATOM     12  C   UNK A   2      -6.349   3.772 127.080  0.00  0.00    +0.000 C 
ENDROOT
BRANCH   1  13
ATOM     13  CA  ALA A   1      -4.806   3.725 129.621  0.00  0.00    +0.000 C 
ATOM     14  CB  ALA A   1      -3.403   4.145 129.910  0.00  0.00    +0.000 C 
BRANCH  13  15
ATOM     15  N   ALA A   1      -5.365   3.357 130.945  0.00  0.00    +0.000 NA
ATOM     16  H   ALA A   1      -5.341   2.335 130.960  0.00  0.00    +0.000 HD
BRANCH  15  17
ATOM     17  C   UNK A   0      -6.750   3.837 131.265  0.00  0.00    +0.000 C 
BRANCH  17  18
ATOM     18  C   UNK A   0      -7.977   2.881 130.941  0.00  0.00    +0.000 C 
ATOM     19  O   UNK A   0      -7.876   1.942 130.173  0.00  0.00    +0.000 OA
BRANCH  18  20
ATOM     20  O   UNK A   0      -9.165   3.205 131.551  0.00  0.00    +0.000 OA
BRANCH  20  22
ATOM     21  C   UNK A   0     -10.862   4.756 130.505  0.00  0.00    +0.000 C 
ATOM     22  C   UNK A   0     -10.355   3.306 130.709  0.00  0.00    +0.000 C 
ENDBRANCH  20  22
ENDBRANCH  18  20
ENDBRANCH  17  18
BRANCH  17  23
ATOM     23  C   UNK A   0      -7.058   5.156 130.533  0.00  0.00    +0.000 C 
BRANCH  23  24
ATOM     24  C   UNK A   0      -6.888   6.419 131.387  0.00  0.00    +0.000 C 
BRANCH  24  25
ATOM     25  C   UNK A   0      -5.442   6.792 131.468  0.00  0.00    +0.000 A 
ATOM     26  C   UNK A   0      -4.707   6.478 132.614  0.00  0.00    +0.000 A 
ATOM     27  C   UNK A   0      -3.453   7.043 132.798  0.00  0.00    +0.000 A 
ATOM     28  C   UNK A   0      -2.889   7.831 131.794  0.00  0.00    +0.000 A 
ATOM     29  C   UNK A   0      -3.592   8.086 130.617  0.00  0.00    +0.000 A 
ATOM     30  C   UNK A   0      -4.873   7.575 130.457  0.00  0.00    +0.000 A 
ENDBRANCH  24  25
ENDBRANCH  23  24
ENDBRANCH  17  23
ENDBRANCH  15  17
ENDBRANCH  13  15
ENDBRANCH   1  13
BRANCH   7  31
ATOM     31  O   UNK A   2      -8.826   0.458 123.090  0.00  0.00    +0.000 OA
ATOM     32  C   UNK A   2      -8.403  -0.896 123.259  0.00  0.00    +0.000 C 
ENDBRANCH   7  31
BRANCH   8  33
ATOM     33  O   UNK A   2      -8.839   3.218 122.299  0.00  0.00    +0.000 OA
ATOM     34  C   UNK A   2      -8.432   3.652 121.014  0.00  0.00    +0.000 C 
ENDBRANCH   8  33
BRANCH  12  35
ATOM     35  C   UNK A   2      -7.889   3.925 127.132  0.00  0.00    +0.000 C 
ATOM     36  O   UNK A   2      -8.426   4.990 126.839  0.00  0.00    +0.000 OA
BRANCH  35  37
ATOM     37  O   UNK A   2      -8.633   2.883 127.517  0.00  0.00    +0.000 OA
ATOM     38  H   UNK A   2      -9.275   3.073 128.216  0.00  0.00    +0.000 HD
ENDBRANCH  35  37
ENDBRANCH  12  35
TORSDOF 13
ENDMDL
MODEL 8
REMARK VINA RESULT:      -7.0      3.683      6.606
REMARK  Name = Moexipril
REMARK  17 active torsions:
REMARK  status: ('A' for Active; 'I' for Inactive)
REMARK    1  A    between atoms: C_1  and  C_2
REMARK    2  A    between atoms: C_2  and  O_3
REMARK    3  A    between atoms: O_3  and  C_4
REMARK    4  A    between atoms: C_4  and  C_6
REMARK    5  A    between atoms: C_6  and  C_7
REMARK    6  A    between atoms: C_6  and  N_15
REMARK    7  A    between atoms: C_7  and  C_8
REMARK    8  A    between atoms: C_8  and  C_9
REMARK    9  A    between atoms: N_15  and  CA_16
REMARK   10  A    between atoms: CA_16  and  CB_17
REMARK   11  A    between atoms: CA_16  and  C_18
REMARK   12  A    between atoms: C_24  and  O_25
REMARK   13  A    between atoms: O_25  and  C_26
REMARK   14  A    between atoms: C_27  and  O_28
REMARK   15  A    between atoms: O_28  and  C_29
REMARK   16  A    between atoms: C_33  and  C_34
REMARK   17  A    between atoms: C_34  and  O_35
REMARK                            x       y       z     vdW  Elec       q    Type
REMARK                         _______ _______ _______ _____ _____    ______ ____
ROOT
ATOM      1  C   ALA A   1      -6.392  -0.760 129.844  0.00  0.00    +0.000 C 
ATOM      2  O   ALA A   1      -5.375  -1.317 130.269  0.00  0.00    +0.000 OA
ATOM      3  N   UNK A   2      -6.852   0.441 130.422  0.00  0.00    +0.000 N 
ATOM      4  C   UNK A   2      -6.226   0.816 131.703  0.00  0.00    +0.000 C 
ATOM      5  C   UNK A   2      -7.034   1.894 132.408  0.00  0.00    +0.000 A 
ATOM      6  C   UNK A   2      -6.505   3.119 132.812  0.00  0.00    +0.000 A 
ATOM      7  C   UNK A   2      -7.364   4.139 133.274  0.00  0.00    +0.000 A 
ATOM      8  C   UNK A   2      -8.766   3.956 133.262  0.00  0.00    +0.000 A 
ATOM      9  C   UNK A   2      -9.293   2.730 132.891  0.00  0.00    +0.000 A 
ATOM     10  C   UNK A   2      -8.440   1.736 132.429  0.00  0.00    +0.000 A 
ATOM     11  C   UNK A   2      -9.000   0.676 131.521  0.00  0.00    +0.000 C 
ATOM     12  C   UNK A   2      -8.229   0.961 130.204  0.00  0.00    +0.000 C 
ENDROOT
BRANCH   1  13
ATOM     13  CA  ALA A   1      -7.188  -1.339 128.634  0.00  0.00    +0.000 C 
ATOM     14  CB  ALA A   1      -7.922  -2.571 129.050  0.00  0.00    +0.000 C 
BRANCH  13  15
ATOM     15  N   ALA A   1      -6.271  -1.797 127.561  0.00  0.00    +0.000 NA
ATOM     16  H   ALA A   1      -5.561  -2.349 128.049  0.00  0.00    +0.000 HD
BRANCH  15  17
ATOM     17  C   UNK A   0      -5.608  -0.742 126.726  0.00  0.00    +0.000 C 
BRANCH  17  18
ATOM     18  C   UNK A   0      -6.385   0.619 126.468  0.00  0.00    +0.000 C 
ATOM     19  O   UNK A   0      -6.119   1.637 127.080  0.00  0.00    +0.000 OA
BRANCH  18  20
ATOM     20  O   UNK A   0      -7.397   0.565 125.541  0.00  0.00    +0.000 OA
BRANCH  20  22
ATOM     21  C   UNK A   0      -9.841   0.811 124.952  0.00  0.00    +0.000 C 
ATOM     22  C   UNK A   0      -8.771   0.527 126.037  0.00  0.00    +0.000 C 
ENDBRANCH  20  22
ENDBRANCH  18  20
ENDBRANCH  17  18
BRANCH  17  23
ATOM     23  C   UNK A   0      -5.263  -1.285 125.327  0.00  0.00    +0.000 C 
BRANCH  23  24
ATOM     24  C   UNK A   0      -5.644  -2.753 125.095  0.00  0.00    +0.000 C 
BRANCH  24  25
ATOM     25  C   UNK A   0      -6.920  -2.834 124.319  0.00  0.00    +0.000 A 
ATOM     26  C   UNK A   0      -7.081  -2.063 123.164  0.00  0.00    +0.000 A 
ATOM     27  C   UNK A   0      -8.340  -1.941 122.595  0.00  0.00    +0.000 A 
ATOM     28  C   UNK A   0      -9.412  -2.669 123.109  0.00  0.00    +0.000 A 
ATOM     29  C   UNK A   0      -9.238  -3.495 124.219  0.00  0.00    +0.000 A 
ATOM     30  C   UNK A   0      -7.994  -3.571 124.831  0.00  0.00    +0.000 A 
ENDBRANCH  24  25
ENDBRANCH  23  24
ENDBRANCH  17  23
ENDBRANCH  15  17
ENDBRANCH  13  15
ENDBRANCH   1  13
BRANCH   7  31
ATOM     31  O   UNK A   2      -6.707   5.279 133.680  0.00  0.00    +0.000 OA
ATOM     32  C   UNK A   2      -5.448   5.523 133.052  0.00  0.00    +0.000 C 
ENDBRANCH   7  31
BRANCH   8  33
ATOM     33  O   UNK A   2      -9.563   5.036 133.518  0.00  0.00    +0.000 OA
ATOM     34  C   UNK A   2     -10.052   5.816 132.441  0.00  0.00    +0.000 C 
ENDBRANCH   8  33
BRANCH  12  35
ATOM     35  C   UNK A   2      -8.446   2.322 129.499  0.00  0.00    +0.000 C 
ATOM     36  O   UNK A   2      -9.578   2.749 129.289  0.00  0.00    +0.000 OA
BRANCH  35  37
ATOM     37  O   UNK A   2      -7.380   3.027 129.105  0.00  0.00    +0.000 OA
ATOM     38  H   UNK A   2      -7.255   3.082 128.147  0.00  0.00    +0.000 HD
ENDBRANCH  35  37
ENDBRANCH  12  35
TORSDOF 13
ENDMDL
MODEL 9
REMARK VINA RESULT:      -6.9      4.532      9.160
REMARK  Name = Moexipril
REMARK  17 active torsions:
REMARK  status: ('A' for Active; 'I' for Inactive)
REMARK    1  A    between atoms: C_1  and  C_2
REMARK    2  A    between atoms: C_2  and  O_3
REMARK    3  A    between atoms: O_3  and  C_4
REMARK    4  A    between atoms: C_4  and  C_6
REMARK    5  A    between atoms: C_6  and  C_7
REMARK    6  A    between atoms: C_6  and  N_15
REMARK    7  A    between atoms: C_7  and  C_8
REMARK    8  A    between atoms: C_8  and  C_9
REMARK    9  A    between atoms: N_15  and  CA_16
REMARK   10  A    between atoms: CA_16  and  CB_17
REMARK   11  A    between atoms: CA_16  and  C_18
REMARK   12  A    between atoms: C_24  and  O_25
REMARK   13  A    between atoms: O_25  and  C_26
REMARK   14  A    between atoms: C_27  and  O_28
REMARK   15  A    between atoms: O_28  and  C_29
REMARK   16  A    between atoms: C_33  and  C_34
REMARK   17  A    between atoms: C_34  and  O_35
REMARK                            x       y       z     vdW  Elec       q    Type
REMARK                         _______ _______ _______ _____ _____    ______ ____
ROOT
ATOM      1  C   ALA A   1      -4.447   3.373 128.259  0.00  0.00    +0.000 C 
ATOM      2  O   ALA A   1      -3.600   2.517 128.530  0.00  0.00    +0.000 OA
ATOM      3  N   UNK A   2      -5.409   3.144 127.253  0.00  0.00    +0.000 N 
ATOM      4  C   UNK A   2      -5.161   1.978 126.385  0.00  0.00    +0.000 C 
ATOM      5  C   UNK A   2      -6.026   2.037 125.135  0.00  0.00    +0.000 A 
ATOM      6  C   UNK A   2      -6.896   1.020 124.746  0.00  0.00    +0.000 A 
ATOM      7  C   UNK A   2      -7.807   1.238 123.691  0.00  0.00    +0.000 A 
ATOM      8  C   UNK A   2      -7.897   2.506 123.071  0.00  0.00    +0.000 A 
ATOM      9  C   UNK A   2      -7.013   3.510 123.434  0.00  0.00    +0.000 A 
ATOM     10  C   UNK A   2      -6.127   3.288 124.480  0.00  0.00    +0.000 A 
ATOM     11  C   UNK A   2      -5.600   4.476 125.237  0.00  0.00    +0.000 C 
ATOM     12  C   UNK A   2      -6.211   4.239 126.644  0.00  0.00    +0.000 C 
ENDROOT
BRANCH   1  13
ATOM     13  CA  ALA A   1      -4.513   4.723 129.036  0.00  0.00    +0.000 C 
ATOM     14  CB  ALA A   1      -3.133   5.228 129.299  0.00  0.00    +0.000 C 
BRANCH  13  15
ATOM     15  N   ALA A   1      -5.103   4.535 130.385  0.00  0.00    +0.000 NA
ATOM     16  H   ALA A   1      -6.089   4.783 130.271  0.00  0.00    +0.000 HD
BRANCH  15  17
ATOM     17  C   UNK A   0      -4.509   5.325 131.512  0.00  0.00    +0.000 C 
BRANCH  17  18
ATOM     18  C   UNK A   0      -3.968   4.542 132.785  0.00  0.00    +0.000 C 
ATOM     19  O   UNK A   0      -4.564   3.592 133.257  0.00  0.00    +0.000 OA
BRANCH  18  20
ATOM     20  O   UNK A   0      -2.808   5.030 133.339  0.00  0.00    +0.000 OA
BRANCH  20  22
ATOM     21  C   UNK A   0      -0.790   6.141 132.305  0.00  0.00    +0.000 C 
ATOM     22  C   UNK A   0      -1.565   4.831 132.598  0.00  0.00    +0.000 C 
ENDBRANCH  20  22
ENDBRANCH  18  20
ENDBRANCH  17  18
BRANCH  17  23
ATOM     23  C   UNK A   0      -5.522   6.345 132.063  0.00  0.00    +0.000 C 
BRANCH  23  24
ATOM     24  C   UNK A   0      -6.460   6.951 131.011  0.00  0.00    +0.000 C 
BRANCH  24  25
ATOM     25  C   UNK A   0      -7.877   6.583 131.317  0.00  0.00    +0.000 A 
ATOM     26  C   UNK A   0      -8.905   7.022 130.478  0.00  0.00    +0.000 A 
ATOM     27  C   UNK A   0     -10.223   6.904 130.894  0.00  0.00    +0.000 A 
ATOM     28  C   UNK A   0     -10.521   6.254 132.091  0.00  0.00    +0.000 A 
ATOM     29  C   UNK A   0      -9.500   5.750 132.896  0.00  0.00    +0.000 A 
ATOM     30  C   UNK A   0      -8.176   5.923 132.514  0.00  0.00    +0.000 A 
ENDBRANCH  24  25
ENDBRANCH  23  24
ENDBRANCH  17  23
ENDBRANCH  15  17
ENDBRANCH  13  15
ENDBRANCH   1  13
BRANCH   7  31
ATOM     31  O   UNK A   2      -8.577   0.139 123.383  0.00  0.00    +0.000 OA
ATOM     32  C   UNK A   2      -7.860  -1.078 123.172  0.00  0.00    +0.000 C 
ENDBRANCH   7  31
BRANCH   8  33
ATOM     33  O   UNK A   2      -8.928   2.733 122.204  0.00  0.00    +0.000 OA
ATOM     34  C   UNK A   2      -8.722   3.557 121.071  0.00  0.00    +0.000 C 
ENDBRANCH   8  33
BRANCH  12  35
ATOM     35  C   UNK A   2      -7.751   4.253 126.794  0.00  0.00    +0.000 C 
ATOM     36  O   UNK A   2      -8.419   5.185 126.352  0.00  0.00    +0.000 OA
BRANCH  35  37
ATOM     37  O   UNK A   2      -8.352   3.240 127.428  0.00  0.00    +0.000 OA
ATOM     38  H   UNK A   2      -8.241   3.234 128.390  0.00  0.00    +0.000 HD
ENDBRANCH  35  37
ENDBRANCH  12  35
TORSDOF 13
ENDMDL
