MODEL 1
REMARK VINA RESULT:      -7.2      0.000      0.000
REMARK  Name = Molindone
REMARK  5 active torsions:
REMARK  status: ('A' for Active; 'I' for Inactive)
REMARK    1  A    between atoms: C_1  and  C_2
REMARK    2  A    between atoms: C_2  and  C_3
REMARK    3  A    between atoms: C_4  and  C_5
REMARK    4  A    between atoms: C_11  and  C_12
REMARK    5  A    between atoms: C_12  and  N_13
REMARK                            x       y       z     vdW  Elec       q    Type
REMARK                         _______ _______ _______ _____ _____    ______ ____
ROOT
ATOM      1  C   UNL     1     -11.444   7.950 128.747  0.00  0.00    +0.000 A 
ATOM      2  C   UNL     1     -12.516   8.602 129.318  0.00  0.00    +0.000 A 
ATOM      3  C   UNL     1     -13.358   9.655 128.766  0.00  0.00    +0.000 C 
ATOM      4  N   UNL     1     -12.709   8.130 130.580  0.00  0.00    +0.000 N 
ATOM      5  C   UNL     1     -11.782   7.171 130.761  0.00  0.00    +0.000 A 
ATOM      6  C   UNL     1     -11.052   6.952 129.620  0.00  0.00    +0.000 A 
ATOM      7  C   UNL     1      -9.976   5.977 129.415  0.00  0.00    +0.000 C 
ATOM      8  O   UNL     1      -9.337   5.832 128.394  0.00  0.00    +0.000 OA
ATOM      9  C   UNL     1      -9.584   5.226 130.621  0.00  0.00    +0.000 C 
ATOM     10  C   UNL     1     -10.434   5.640 131.776  0.00  0.00    +0.000 C 
ATOM     11  C   UNL     1     -11.616   6.518 132.013  0.00  0.00    +0.000 C 
ATOM     12  H   UNL     1     -13.383   8.437 131.275  0.00  0.00    +0.000 HD
ENDROOT
BRANCH   1  14
ATOM     13  C   UNL     1     -11.439   7.539 126.339  0.00  0.00    +0.000 C 
ATOM     14  C   UNL     1     -10.696   8.197 127.504  0.00  0.00    +0.000 C 
ENDBRANCH   1  14
BRANCH   9  15
ATOM     15  C   UNL     1      -9.663   3.689 130.482  0.00  0.00    +0.000 C 
BRANCH  15  16
ATOM     16  N   UNL     1      -8.391   2.895 130.581  0.00  0.00    +0.000 NA
ATOM     17  C   UNL     1      -8.460   1.401 130.497  0.00  0.00    +0.000 C 
ATOM     18  C   UNL     1      -8.730   0.599 131.826  0.00  0.00    +0.000 C 
ATOM     19  O   UNL     1      -8.135   1.170 132.999  0.00  0.00    +0.000 OA
ATOM     20  C   UNL     1      -8.110   2.613 133.058  0.00  0.00    +0.000 C 
ATOM     21  C   UNL     1      -7.583   3.227 131.760  0.00  0.00    +0.000 C 
ENDBRANCH  15  16
ENDBRANCH   9  15
TORSDOF 3
ENDMDL
MODEL 2
REMARK VINA RESULT:      -7.0      1.628      2.217
REMARK  Name = Molindone
REMARK  5 active torsions:
REMARK  status: ('A' for Active; 'I' for Inactive)
REMARK    1  A    between atoms: C_1  and  C_2
REMARK    2  A    between atoms: C_2  and  C_3
REMARK    3  A    between atoms: C_4  and  C_5
REMARK    4  A    between atoms: C_11  and  C_12
REMARK    5  A    between atoms: C_12  and  N_13
REMARK                            x       y       z     vdW  Elec       q    Type
REMARK                         _______ _______ _______ _____ _____    ______ ____
ROOT
ATOM      1  C   UNL     1     -11.478   7.974 128.724  0.00  0.00    +0.000 A 
ATOM      2  C   UNL     1     -12.542   8.622 129.315  0.00  0.00    +0.000 A 
ATOM      3  C   UNL     1     -13.397   9.674 128.780  0.00  0.00    +0.000 C 
ATOM      4  N   UNL     1     -12.711   8.147 130.580  0.00  0.00    +0.000 N 
ATOM      5  C   UNL     1     -11.778   7.191 130.743  0.00  0.00    +0.000 A 
ATOM      6  C   UNL     1     -11.068   6.976 129.588  0.00  0.00    +0.000 A 
ATOM      7  C   UNL     1      -9.993   6.004 129.362  0.00  0.00    +0.000 C 
ATOM      8  O   UNL     1      -9.373   5.862 128.330  0.00  0.00    +0.000 OA
ATOM      9  C   UNL     1      -9.578   5.251 130.560  0.00  0.00    +0.000 C 
ATOM     10  C   UNL     1     -10.409   5.662 131.731  0.00  0.00    +0.000 C 
ATOM     11  C   UNL     1     -11.589   6.535 131.990  0.00  0.00    +0.000 C 
ATOM     12  H   UNL     1     -13.374   8.450 131.287  0.00  0.00    +0.000 HD
ENDROOT
BRANCH   1  14
ATOM     13  C   UNL     1     -11.496   7.537 126.321  0.00  0.00    +0.000 C 
ATOM     14  C   UNL     1     -10.754   8.226 127.468  0.00  0.00    +0.000 C 
ENDBRANCH   1  14
BRANCH   9  15
ATOM     15  C   UNL     1      -9.655   3.715 130.420  0.00  0.00    +0.000 C 
BRANCH  15  16
ATOM     16  N   UNL     1      -8.372   2.931 130.412  0.00  0.00    +0.000 NA
ATOM     17  C   UNL     1      -7.071   3.670 130.479  0.00  0.00    +0.000 C 
ATOM     18  C   UNL     1      -6.439   4.177 129.127  0.00  0.00    +0.000 C 
ATOM     19  O   UNL     1      -6.651   3.306 128.007  0.00  0.00    +0.000 OA
ATOM     20  C   UNL     1      -7.927   2.632 127.961  0.00  0.00    +0.000 C 
ATOM     21  C   UNL     1      -8.274   1.979 129.300  0.00  0.00    +0.000 C 
ENDBRANCH  15  16
ENDBRANCH   9  15
TORSDOF 3
ENDMDL
MODEL 3
REMARK VINA RESULT:      -6.7      7.640      9.279
REMARK  Name = Molindone
REMARK  5 active torsions:
REMARK  status: ('A' for Active; 'I' for Inactive)
REMARK    1  A    between atoms: C_1  and  C_2
REMARK    2  A    between atoms: C_2  and  C_3
REMARK    3  A    between atoms: C_4  and  C_5
REMARK    4  A    between atoms: C_11  and  C_12
REMARK    5  A    between atoms: C_12  and  N_13
REMARK                            x       y       z     vdW  Elec       q    Type
REMARK                         _______ _______ _______ _____ _____    ______ ____
ROOT
ATOM      1  C   UNL     1      -8.378  -1.429 125.526  0.00  0.00    +0.000 A 
ATOM      2  C   UNL     1      -8.850  -2.454 124.733  0.00  0.00    +0.000 A 
ATOM      3  C   UNL     1      -9.119  -2.467 123.301  0.00  0.00    +0.000 C 
ATOM      4  N   UNL     1      -9.081  -3.550 125.507  0.00  0.00    +0.000 N 
ATOM      5  C   UNL     1      -8.717  -3.204 126.755  0.00  0.00    +0.000 A 
ATOM      6  C   UNL     1      -8.178  -1.943 126.793  0.00  0.00    +0.000 A 
ATOM      7  C   UNL     1      -7.646  -1.227 127.957  0.00  0.00    +0.000 C 
ATOM      8  O   UNL     1      -7.198  -0.100 127.952  0.00  0.00    +0.000 OA
ATOM      9  C   UNL     1      -7.814  -1.927 129.244  0.00  0.00    +0.000 C 
ATOM     10  C   UNL     1      -8.477  -3.247 129.020  0.00  0.00    +0.000 C 
ATOM     11  C   UNL     1      -8.915  -4.076 127.861  0.00  0.00    +0.000 C 
ATOM     12  H   UNL     1      -9.472  -4.447 125.234  0.00  0.00    +0.000 HD
ENDROOT
BRANCH   1  14
ATOM     13  C   UNL     1      -9.492   0.739 125.363  0.00  0.00    +0.000 C 
ATOM     14  C   UNL     1      -8.158  -0.001 125.249  0.00  0.00    +0.000 C 
ENDBRANCH   1  14
BRANCH   9  15
ATOM     15  C   UNL     1      -6.506  -2.164 130.030  0.00  0.00    +0.000 C 
BRANCH  15  16
ATOM     16  N   UNL     1      -5.683  -3.378 129.702  0.00  0.00    +0.000 NA
ATOM     17  C   UNL     1      -5.360  -4.352 130.794  0.00  0.00    +0.000 C 
ATOM     18  C   UNL     1      -4.086  -4.075 131.677  0.00  0.00    +0.000 C 
ATOM     19  O   UNL     1      -2.987  -3.484 130.970  0.00  0.00    +0.000 OA
ATOM     20  C   UNL     1      -3.334  -2.529 129.944  0.00  0.00    +0.000 C 
ATOM     21  C   UNL     1      -4.425  -3.064 129.014  0.00  0.00    +0.000 C 
ENDBRANCH  15  16
ENDBRANCH   9  15
TORSDOF 3
ENDMDL
MODEL 4
REMARK VINA RESULT:      -6.6      7.406      8.705
REMARK  Name = Molindone
REMARK  5 active torsions:
REMARK  status: ('A' for Active; 'I' for Inactive)
REMARK    1  A    between atoms: C_1  and  C_2
REMARK    2  A    between atoms: C_2  and  C_3
REMARK    3  A    between atoms: C_4  and  C_5
REMARK    4  A    between atoms: C_11  and  C_12
REMARK    5  A    between atoms: C_12  and  N_13
REMARK                            x       y       z     vdW  Elec       q    Type
REMARK                         _______ _______ _______ _____ _____    ______ ____
ROOT
ATOM      1  C   UNL     1      -5.978   3.442 123.932  0.00  0.00    +0.000 A 
ATOM      2  C   UNL     1      -5.883   3.954 122.655  0.00  0.00    +0.000 A 
ATOM      3  C   UNL     1      -4.810   4.731 122.047  0.00  0.00    +0.000 C 
ATOM      4  N   UNL     1      -7.014   3.647 121.963  0.00  0.00    +0.000 N 
ATOM      5  C   UNL     1      -7.776   2.922 122.804  0.00  0.00    +0.000 A 
ATOM      6  C   UNL     1      -7.129   2.680 123.990  0.00  0.00    +0.000 A 
ATOM      7  C   UNL     1      -7.618   1.911 125.139  0.00  0.00    +0.000 C 
ATOM      8  O   UNL     1      -7.023   1.741 126.182  0.00  0.00    +0.000 OA
ATOM      9  C   UNL     1      -9.009   1.437 125.020  0.00  0.00    +0.000 C 
ATOM     10  C   UNL     1      -9.574   1.848 123.700  0.00  0.00    +0.000 C 
ATOM     11  C   UNL     1      -9.089   2.507 122.452  0.00  0.00    +0.000 C 
ATOM     12  H   UNL     1      -7.273   3.918 121.019  0.00  0.00    +0.000 HD
ENDROOT
BRANCH   1  14
ATOM     13  C   UNL     1      -5.558   4.950 125.808  0.00  0.00    +0.000 C 
ATOM     14  C   UNL     1      -5.147   3.641 125.130  0.00  0.00    +0.000 C 
ENDBRANCH   1  14
BRANCH   9  15
ATOM     15  C   UNL     1      -9.190  -0.089 125.176  0.00  0.00    +0.000 C 
BRANCH  15  16
ATOM     16  N   UNL     1      -8.219  -1.000 124.480  0.00  0.00    +0.000 NA
ATOM     17  C   UNL     1      -8.670  -1.744 123.260  0.00  0.00    +0.000 C 
ATOM     18  C   UNL     1      -9.389  -3.131 123.465  0.00  0.00    +0.000 C 
ATOM     19  O   UNL     1      -8.893  -3.903 124.567  0.00  0.00    +0.000 OA
ATOM     20  C   UNL     1      -8.494  -3.155 125.736  0.00  0.00    +0.000 C 
ATOM     21  C   UNL     1      -7.587  -1.977 125.376  0.00  0.00    +0.000 C 
ENDBRANCH  15  16
ENDBRANCH   9  15
TORSDOF 3
ENDMDL
MODEL 5
REMARK VINA RESULT:      -6.5      7.189     10.311
REMARK  Name = Molindone
REMARK  5 active torsions:
REMARK  status: ('A' for Active; 'I' for Inactive)
REMARK    1  A    between atoms: C_1  and  C_2
REMARK    2  A    between atoms: C_2  and  C_3
REMARK    3  A    between atoms: C_4  and  C_5
REMARK    4  A    between atoms: C_11  and  C_12
REMARK    5  A    between atoms: C_12  and  N_13
REMARK                            x       y       z     vdW  Elec       q    Type
REMARK                         _______ _______ _______ _____ _____    ______ ____
ROOT
ATOM      1  C   UNL     1      -6.430  -2.457 128.664  0.00  0.00    +0.000 A 
ATOM      2  C   UNL     1      -7.317  -2.985 129.577  0.00  0.00    +0.000 A 
ATOM      3  C   UNL     1      -7.172  -3.154 131.017  0.00  0.00    +0.000 C 
ATOM      4  N   UNL     1      -8.442  -3.393 128.926  0.00  0.00    +0.000 N 
ATOM      5  C   UNL     1      -8.252  -3.080 127.631  0.00  0.00    +0.000 A 
ATOM      6  C   UNL     1      -7.073  -2.404 127.442  0.00  0.00    +0.000 A 
ATOM      7  C   UNL     1      -6.531  -1.877 126.185  0.00  0.00    +0.000 C 
ATOM      8  O   UNL     1      -5.470  -1.305 126.056  0.00  0.00    +0.000 OA
ATOM      9  C   UNL     1      -7.317  -2.213 124.983  0.00  0.00    +0.000 C 
ATOM     10  C   UNL     1      -8.523  -3.005 125.370  0.00  0.00    +0.000 C 
ATOM     11  C   UNL     1      -9.189  -3.452 126.628  0.00  0.00    +0.000 C 
ATOM     12  H   UNL     1      -9.258  -3.864 129.305  0.00  0.00    +0.000 HD
ENDROOT
BRANCH   1  14
ATOM     13  C   UNL     1      -4.156  -3.313 128.920  0.00  0.00    +0.000 C 
ATOM     14  C   UNL     1      -5.019  -2.056 128.789  0.00  0.00    +0.000 C 
ENDBRANCH   1  14
BRANCH   9  15
ATOM     15  C   UNL     1      -7.777  -0.998 124.148  0.00  0.00    +0.000 C 
BRANCH  15  16
ATOM     16  N   UNL     1      -9.155  -0.447 124.383  0.00  0.00    +0.000 NA
ATOM     17  C   UNL     1      -9.761   0.455 123.352  0.00  0.00    +0.000 C 
ATOM     18  C   UNL     1      -9.439   1.995 123.438  0.00  0.00    +0.000 C 
ATOM     19  O   UNL     1      -9.311   2.504 124.773  0.00  0.00    +0.000 OA
ATOM     20  C   UNL     1      -8.698   1.617 125.733  0.00  0.00    +0.000 C 
ATOM     21  C   UNL     1      -9.307   0.215 125.684  0.00  0.00    +0.000 C 
ENDBRANCH  15  16
ENDBRANCH   9  15
TORSDOF 3
ENDMDL
MODEL 6
REMARK VINA RESULT:      -6.1      7.942      9.073
REMARK  Name = Molindone
REMARK  5 active torsions:
REMARK  status: ('A' for Active; 'I' for Inactive)
REMARK    1  A    between atoms: C_1  and  C_2
REMARK    2  A    between atoms: C_2  and  C_3
REMARK    3  A    between atoms: C_4  and  C_5
REMARK    4  A    between atoms: C_11  and  C_12
REMARK    5  A    between atoms: C_12  and  N_13
REMARK                            x       y       z     vdW  Elec       q    Type
REMARK                         _______ _______ _______ _____ _____    ______ ____
ROOT
ATOM      1  C   UNL     1      -8.368  -1.122 123.534  0.00  0.00    +0.000 A 
ATOM      2  C   UNL     1      -9.026   0.077 123.359  0.00  0.00    +0.000 A 
ATOM      3  C   UNL     1     -10.146   0.398 122.484  0.00  0.00    +0.000 C 
ATOM      4  N   UNL     1      -8.450   1.024 124.149  0.00  0.00    +0.000 N 
ATOM      5  C   UNL     1      -7.471   0.396 124.826  0.00  0.00    +0.000 A 
ATOM      6  C   UNL     1      -7.456  -0.950 124.558  0.00  0.00    +0.000 A 
ATOM      7  C   UNL     1      -6.561  -1.968 125.118  0.00  0.00    +0.000 C 
ATOM      8  O   UNL     1      -6.565  -3.147 124.835  0.00  0.00    +0.000 OA
ATOM      9  C   UNL     1      -5.496  -1.441 125.992  0.00  0.00    +0.000 C 
ATOM     10  C   UNL     1      -5.626   0.041 126.114  0.00  0.00    +0.000 C 
ATOM     11  C   UNL     1      -6.582   1.101 125.682  0.00  0.00    +0.000 C 
ATOM     12  H   UNL     1      -8.670   2.014 124.214  0.00  0.00    +0.000 HD
ENDROOT
BRANCH   1  14
ATOM     13  C   UNL     1      -9.590  -3.232 123.381  0.00  0.00    +0.000 C 
ATOM     14  C   UNL     1      -8.446  -2.397 122.803  0.00  0.00    +0.000 C 
ENDBRANCH   1  14
BRANCH   9  15
ATOM     15  C   UNL     1      -5.463  -2.048 127.412  0.00  0.00    +0.000 C 
BRANCH  15  16
ATOM     16  N   UNL     1      -6.314  -1.420 128.479  0.00  0.00    +0.000 NA
ATOM     17  C   UNL     1      -5.817  -1.412 129.892  0.00  0.00    +0.000 C 
ATOM     18  C   UNL     1      -6.120  -2.671 130.789  0.00  0.00    +0.000 C 
ATOM     19  O   UNL     1      -7.388  -3.293 130.535  0.00  0.00    +0.000 OA
ATOM     20  C   UNL     1      -7.823  -3.306 129.158  0.00  0.00    +0.000 C 
ATOM     21  C   UNL     1      -7.691  -1.929 128.506  0.00  0.00    +0.000 C 
ENDBRANCH  15  16
ENDBRANCH   9  15
TORSDOF 3
ENDMDL
MODEL 7
REMARK VINA RESULT:      -6.0      6.708      9.273
REMARK  Name = Molindone
REMARK  5 active torsions:
REMARK  status: ('A' for Active; 'I' for Inactive)
REMARK    1  A    between atoms: C_1  and  C_2
REMARK    2  A    between atoms: C_2  and  C_3
REMARK    3  A    between atoms: C_4  and  C_5
REMARK    4  A    between atoms: C_11  and  C_12
REMARK    5  A    between atoms: C_12  and  N_13
REMARK                            x       y       z     vdW  Elec       q    Type
REMARK                         _______ _______ _______ _____ _____    ______ ____
ROOT
ATOM      1  C   UNL     1      -7.512  -1.376 124.275  0.00  0.00    +0.000 A 
ATOM      2  C   UNL     1      -8.642  -1.706 123.557  0.00  0.00    +0.000 A 
ATOM      3  C   UNL     1      -9.193  -3.020 123.252  0.00  0.00    +0.000 C 
ATOM      4  N   UNL     1      -9.233  -0.568 123.102  0.00  0.00    +0.000 N 
ATOM      5  C   UNL     1      -8.486   0.449 123.570  0.00  0.00    +0.000 A 
ATOM      6  C   UNL     1      -7.478   0.001 124.387  0.00  0.00    +0.000 A 
ATOM      7  C   UNL     1      -6.478   0.801 125.102  0.00  0.00    +0.000 C 
ATOM      8  O   UNL     1      -5.587   0.362 125.797  0.00  0.00    +0.000 OA
ATOM      9  C   UNL     1      -6.520   2.246 124.813  0.00  0.00    +0.000 C 
ATOM     10  C   UNL     1      -7.629   2.540 123.857  0.00  0.00    +0.000 C 
ATOM     11  C   UNL     1      -8.748   1.799 123.207  0.00  0.00    +0.000 C 
ATOM     12  H   UNL     1     -10.050  -0.473 122.506  0.00  0.00    +0.000 HD
ENDROOT
BRANCH   1  14
ATOM     13  C   UNL     1      -5.487  -2.599 123.664  0.00  0.00    +0.000 C 
ATOM     14  C   UNL     1      -6.418  -2.201 124.811  0.00  0.00    +0.000 C 
ENDBRANCH   1  14
BRANCH   9  15
ATOM     15  C   UNL     1      -6.689   3.151 126.053  0.00  0.00    +0.000 C 
BRANCH  15  16
ATOM     16  N   UNL     1      -5.566   4.080 126.419  0.00  0.00    +0.000 NA
ATOM     17  C   UNL     1      -4.205   3.835 125.843  0.00  0.00    +0.000 C 
ATOM     18  C   UNL     1      -3.251   2.838 126.603  0.00  0.00    +0.000 C 
ATOM     19  O   UNL     1      -3.370   2.870 128.033  0.00  0.00    +0.000 OA
ATOM     20  C   UNL     1      -4.701   3.082 128.552  0.00  0.00    +0.000 C 
ATOM     21  C   UNL     1      -5.400   4.257 127.867  0.00  0.00    +0.000 C 
ENDBRANCH  15  16
ENDBRANCH   9  15
TORSDOF 3
ENDMDL
MODEL 8
REMARK VINA RESULT:      -5.9      6.624      8.658
REMARK  Name = Molindone
REMARK  5 active torsions:
REMARK  status: ('A' for Active; 'I' for Inactive)
REMARK    1  A    between atoms: C_1  and  C_2
REMARK    2  A    between atoms: C_2  and  C_3
REMARK    3  A    between atoms: C_4  and  C_5
REMARK    4  A    between atoms: C_11  and  C_12
REMARK    5  A    between atoms: C_12  and  N_13
REMARK                            x       y       z     vdW  Elec       q    Type
REMARK                         _______ _______ _______ _____ _____    ______ ____
ROOT
ATOM      1  C   UNL     1      -8.390  -1.392 125.630  0.00  0.00    +0.000 A 
ATOM      2  C   UNL     1      -8.914  -2.403 124.853  0.00  0.00    +0.000 A 
ATOM      3  C   UNL     1      -9.239  -2.404 123.432  0.00  0.00    +0.000 C 
ATOM      4  N   UNL     1      -9.138  -3.498 125.631  0.00  0.00    +0.000 N 
ATOM      5  C   UNL     1      -8.719  -3.164 126.866  0.00  0.00    +0.000 A 
ATOM      6  C   UNL     1      -8.151  -1.915 126.887  0.00  0.00    +0.000 A 
ATOM      7  C   UNL     1      -7.559  -1.216 128.032  0.00  0.00    +0.000 C 
ATOM      8  O   UNL     1      -7.088  -0.099 128.013  0.00  0.00    +0.000 OA
ATOM      9  C   UNL     1      -7.692  -1.919 129.321  0.00  0.00    +0.000 C 
ATOM     10  C   UNL     1      -8.391  -3.223 129.119  0.00  0.00    +0.000 C 
ATOM     11  C   UNL     1      -8.892  -4.037 127.975  0.00  0.00    +0.000 C 
ATOM     12  H   UNL     1      -9.559  -4.384 125.371  0.00  0.00    +0.000 HD
ENDROOT
BRANCH   1  14
ATOM     13  C   UNL     1      -9.464   0.799 125.514  0.00  0.00    +0.000 C 
ATOM     14  C   UNL     1      -8.150   0.033 125.350  0.00  0.00    +0.000 C 
ENDBRANCH   1  14
BRANCH   9  15
ATOM     15  C   UNL     1      -6.359  -2.187 130.055  0.00  0.00    +0.000 C 
BRANCH  15  16
ATOM     16  N   UNL     1      -6.082  -1.443 131.331  0.00  0.00    +0.000 NA
ATOM     17  C   UNL     1      -7.045  -0.385 131.777  0.00  0.00    +0.000 C 
ATOM     18  C   UNL     1      -6.850   1.074 131.216  0.00  0.00    +0.000 C 
ATOM     19  O   UNL     1      -5.483   1.461 131.022  0.00  0.00    +0.000 OA
ATOM     20  C   UNL     1      -4.590   0.423 130.565  0.00  0.00    +0.000 C 
ATOM     21  C   UNL     1      -4.737  -0.858 131.388  0.00  0.00    +0.000 C 
ENDBRANCH  15  16
ENDBRANCH   9  15
TORSDOF 3
ENDMDL
MODEL 9
REMARK VINA RESULT:      -5.8      4.408      7.315
REMARK  Name = Molindone
REMARK  5 active torsions:
REMARK  status: ('A' for Active; 'I' for Inactive)
REMARK    1  A    between atoms: C_1  and  C_2
REMARK    2  A    between atoms: C_2  and  C_3
REMARK    3  A    between atoms: C_4  and  C_5
REMARK    4  A    between atoms: C_11  and  C_12
REMARK    5  A    between atoms: C_12  and  N_13
REMARK                            x       y       z     vdW  Elec       q    Type
REMARK                         _______ _______ _______ _____ _____    ______ ____
ROOT
ATOM      1  C   UNL     1      -3.598   4.152 127.632  0.00  0.00    +0.000 A 
ATOM      2  C   UNL     1      -2.927   3.090 127.065  0.00  0.00    +0.000 A 
ATOM      3  C   UNL     1      -1.562   3.022 126.558  0.00  0.00    +0.000 C 
ATOM      4  N   UNL     1      -3.759   2.015 127.002  0.00  0.00    +0.000 N 
ATOM      5  C   UNL     1      -4.918   2.412 127.561  0.00  0.00    +0.000 A 
ATOM      6  C   UNL     1      -4.827   3.687 128.060  0.00  0.00    +0.000 A 
ATOM      7  C   UNL     1      -5.863   4.454 128.759  0.00  0.00    +0.000 C 
ATOM      8  O   UNL     1      -5.749   5.592 129.164  0.00  0.00    +0.000 OA
ATOM      9  C   UNL     1      -7.178   3.793 128.833  0.00  0.00    +0.000 C 
ATOM     10  C   UNL     1      -7.109   2.451 128.182  0.00  0.00    +0.000 C 
ATOM     11  C   UNL     1      -6.065   1.572 127.581  0.00  0.00    +0.000 C 
ATOM     12  H   UNL     1      -3.583   1.100 126.598  0.00  0.00    +0.000 HD
ENDROOT
BRANCH   1  14
ATOM     13  C   UNL     1      -2.340   5.758 128.977  0.00  0.00    +0.000 C 
ATOM     14  C   UNL     1      -3.247   5.576 127.759  0.00  0.00    +0.000 C 
ENDBRANCH   1  14
BRANCH   9  15
ATOM     15  C   UNL     1      -7.737   3.616 130.262  0.00  0.00    +0.000 C 
BRANCH  15  16
ATOM     16  N   UNL     1      -9.119   4.126 130.559  0.00  0.00    +0.000 NA
ATOM     17  C   UNL     1      -9.552   5.433 129.969  0.00  0.00    +0.000 C 
ATOM     18  C   UNL     1      -9.203   6.751 130.759  0.00  0.00    +0.000 C 
ATOM     19  O   UNL     1      -9.248   6.620 132.187  0.00  0.00    +0.000 OA
ATOM     20  C   UNL     1      -8.798   5.356 132.721  0.00  0.00    +0.000 C 
ATOM     21  C   UNL     1      -9.432   4.171 131.992  0.00  0.00    +0.000 C 
ENDBRANCH  15  16
ENDBRANCH   9  15
TORSDOF 3
ENDMDL
