MODEL 1
REMARK VINA RESULT:      -5.9      0.000      0.000
REMARK  Name = Molsidomine
REMARK  6 active torsions:
REMARK  status: ('A' for Active; 'I' for Inactive)
REMARK    1  A    between atoms: C_1  and  C_2
REMARK    2  A    between atoms: C_2  and  O_3
REMARK    3  A    between atoms: O_3  and  C_4
REMARK    4  A    between atoms: C_4  and  N_6
REMARK    5  A    between atoms: N_6  and  C_7
REMARK    6  A    between atoms: N_9  and  N_12
REMARK                            x       y       z     vdW  Elec       q    Type
REMARK                         _______ _______ _______ _____ _____    ______ ____
ROOT
ATOM      1  C   UNL     1      -9.248   1.801 122.732  0.00  0.00    +0.000 A 
ATOM      2  C   UNL     1      -8.642   0.928 123.619  0.00  0.00    +0.000 A 
ATOM      3  N   UNL     1      -9.284  -0.287 123.452  0.00  0.00    +0.000 N 
ATOM      4  N   UNL     1     -10.202  -0.267 122.504  0.00  0.00    +0.000 NA
ATOM      5  O   UNL     1     -10.217   1.081 122.050  0.00  0.00    +0.000 OA
ENDROOT
BRANCH   3   6
ATOM      6  N   UNL     1      -9.083  -1.464 124.266  0.00  0.00    +0.000 N 
ATOM      7  C   UNL     1      -9.012  -1.419 125.720  0.00  0.00    +0.000 C 
ATOM      8  C   UNL     1      -7.822  -2.250 126.230  0.00  0.00    +0.000 C 
ATOM      9  O   UNL     1      -7.859  -3.577 125.687  0.00  0.00    +0.000 OA
ATOM     10  C   UNL     1      -7.816  -3.540 124.254  0.00  0.00    +0.000 C 
ATOM     11  C   UNL     1      -9.045  -2.798 123.695  0.00  0.00    +0.000 C 
ENDBRANCH   3   6
BRANCH   1  12
ATOM     12  N   UNL     1      -8.895   3.108 122.543  0.00  0.00    +0.000 NA
BRANCH  12  13
ATOM     13  C   UNL     1      -8.481   3.487 121.318  0.00  0.00    +0.000 C 
ATOM     14  O   UNL     1      -9.182   3.799 120.355  0.00  0.00    +0.000 OA
BRANCH  13  15
ATOM     15  O   UNL     1      -7.094   3.572 121.255  0.00  0.00    +0.000 OA
BRANCH  15  17
ATOM     16  C   UNL     1      -5.423   4.987 120.072  0.00  0.00    +0.000 C 
ATOM     17  C   UNL     1      -6.526   3.927 119.963  0.00  0.00    +0.000 C 
ENDBRANCH  15  17
ENDBRANCH  13  15
ENDBRANCH  12  13
ENDBRANCH   1  12
TORSDOF 5
ENDMDL
MODEL 2
REMARK VINA RESULT:      -5.8      8.356      9.003
REMARK  Name = Molsidomine
REMARK  6 active torsions:
REMARK  status: ('A' for Active; 'I' for Inactive)
REMARK    1  A    between atoms: C_1  and  C_2
REMARK    2  A    between atoms: C_2  and  O_3
REMARK    3  A    between atoms: O_3  and  C_4
REMARK    4  A    between atoms: C_4  and  N_6
REMARK    5  A    between atoms: N_6  and  C_7
REMARK    6  A    between atoms: N_9  and  N_12
REMARK                            x       y       z     vdW  Elec       q    Type
REMARK                         _______ _______ _______ _____ _____    ______ ____
ROOT
ATOM      1  C   UNL     1     -10.135   5.996 129.385  0.00  0.00    +0.000 A 
ATOM      2  C   UNL     1      -9.283   5.313 130.234  0.00  0.00    +0.000 A 
ATOM      3  N   UNL     1     -10.022   4.263 130.749  0.00  0.00    +0.000 N 
ATOM      4  N   UNL     1     -11.246   4.196 130.259  0.00  0.00    +0.000 NA
ATOM      5  O   UNL     1     -11.348   5.325 129.401  0.00  0.00    +0.000 OA
ENDROOT
BRANCH   3   6
ATOM      6  N   UNL     1      -9.589   3.360 131.792  0.00  0.00    +0.000 N 
ATOM      7  C   UNL     1      -9.111   3.817 133.089  0.00  0.00    +0.000 C 
ATOM      8  C   UNL     1      -7.818   3.081 133.480  0.00  0.00    +0.000 C 
ATOM      9  O   UNL     1      -7.995   1.661 133.390  0.00  0.00    +0.000 OA
ATOM     10  C   UNL     1      -8.358   1.279 132.056  0.00  0.00    +0.000 C 
ATOM     11  C   UNL     1      -9.702   1.919 131.657  0.00  0.00    +0.000 C 
ENDBRANCH   3   6
BRANCH   1  12
ATOM     12  N   UNL     1      -9.798   7.087 128.634  0.00  0.00    +0.000 NA
BRANCH  12  13
ATOM     13  C   UNL     1     -10.500   7.333 127.511  0.00  0.00    +0.000 C 
ATOM     14  O   UNL     1     -10.596   6.612 126.517  0.00  0.00    +0.000 OA
BRANCH  13  15
ATOM     15  O   UNL     1     -11.214   8.523 127.609  0.00  0.00    +0.000 OA
BRANCH  15  17
ATOM     16  C   UNL     1     -12.715   8.988 129.539  0.00  0.00    +0.000 C 
ATOM     17  C   UNL     1     -12.573   8.420 128.121  0.00  0.00    +0.000 C 
ENDBRANCH  15  17
ENDBRANCH  13  15
ENDBRANCH  12  13
ENDBRANCH   1  12
TORSDOF 5
ENDMDL
MODEL 3
REMARK VINA RESULT:      -5.7      9.231      9.931
REMARK  Name = Molsidomine
REMARK  6 active torsions:
REMARK  status: ('A' for Active; 'I' for Inactive)
REMARK    1  A    between atoms: C_1  and  C_2
REMARK    2  A    between atoms: C_2  and  O_3
REMARK    3  A    between atoms: O_3  and  C_4
REMARK    4  A    between atoms: C_4  and  N_6
REMARK    5  A    between atoms: N_6  and  C_7
REMARK    6  A    between atoms: N_9  and  N_12
REMARK                            x       y       z     vdW  Elec       q    Type
REMARK                         _______ _______ _______ _____ _____    ______ ____
ROOT
ATOM      1  C   UNL     1     -10.943   5.744 130.609  0.00  0.00    +0.000 A 
ATOM      2  C   UNL     1     -10.226   5.195 131.658  0.00  0.00    +0.000 A 
ATOM      3  N   UNL     1     -10.020   3.869 131.322  0.00  0.00    +0.000 N 
ATOM      4  N   UNL     1     -10.497   3.550 130.134  0.00  0.00    +0.000 NA
ATOM      5  O   UNL     1     -11.125   4.739 129.672  0.00  0.00    +0.000 OA
ENDROOT
BRANCH   3   6
ATOM      6  N   UNL     1      -9.437   2.863 132.182  0.00  0.00    +0.000 N 
ATOM      7  C   UNL     1      -8.727   3.187 133.412  0.00  0.00    +0.000 C 
ATOM      8  C   UNL     1      -7.406   2.402 133.497  0.00  0.00    +0.000 C 
ATOM      9  O   UNL     1      -7.636   1.000 133.306  0.00  0.00    +0.000 OA
ATOM     10  C   UNL     1      -8.237   0.753 132.028  0.00  0.00    +0.000 C 
ATOM     11  C   UNL     1      -9.612   1.444 131.935  0.00  0.00    +0.000 C 
ENDBRANCH   3   6
BRANCH   1  12
ATOM     12  N   UNL     1     -11.330   7.051 130.514  0.00  0.00    +0.000 NA
BRANCH  12  13
ATOM     13  C   UNL     1     -12.642   7.339 130.622  0.00  0.00    +0.000 C 
ATOM     14  O   UNL     1     -13.326   7.336 131.646  0.00  0.00    +0.000 OA
BRANCH  13  15
ATOM     15  O   UNL     1     -13.176   7.740 129.401  0.00  0.00    +0.000 OA
BRANCH  15  17
ATOM     16  C   UNL     1     -13.252  10.217 129.631  0.00  0.00    +0.000 C 
ATOM     17  C   UNL     1     -12.695   9.007 128.871  0.00  0.00    +0.000 C 
ENDBRANCH  15  17
ENDBRANCH  13  15
ENDBRANCH  12  13
ENDBRANCH   1  12
TORSDOF 5
ENDMDL
MODEL 4
REMARK VINA RESULT:      -5.7      8.533      9.385
REMARK  Name = Molsidomine
REMARK  6 active torsions:
REMARK  status: ('A' for Active; 'I' for Inactive)
REMARK    1  A    between atoms: C_1  and  C_2
REMARK    2  A    between atoms: C_2  and  O_3
REMARK    3  A    between atoms: O_3  and  C_4
REMARK    4  A    between atoms: C_4  and  N_6
REMARK    5  A    between atoms: N_6  and  C_7
REMARK    6  A    between atoms: N_9  and  N_12
REMARK                            x       y       z     vdW  Elec       q    Type
REMARK                         _______ _______ _______ _____ _____    ______ ____
ROOT
ATOM      1  C   UNL     1     -10.272   6.785 128.561  0.00  0.00    +0.000 A 
ATOM      2  C   UNL     1     -10.199   6.224 129.824  0.00  0.00    +0.000 A 
ATOM      3  N   UNL     1      -9.303   5.175 129.722  0.00  0.00    +0.000 N 
ATOM      4  N   UNL     1      -8.768   5.059 128.521  0.00  0.00    +0.000 NA
ATOM      5  O   UNL     1      -9.405   6.069 127.749  0.00  0.00    +0.000 OA
ENDROOT
BRANCH   3   6
ATOM      6  N   UNL     1      -9.016   4.209 130.759  0.00  0.00    +0.000 N 
ATOM      7  C   UNL     1      -9.219   2.778 130.587  0.00  0.00    +0.000 C 
ATOM      8  C   UNL     1      -9.942   2.182 131.807  0.00  0.00    +0.000 C 
ATOM      9  O   UNL     1      -9.264   2.535 133.021  0.00  0.00    +0.000 OA
ATOM     10  C   UNL     1      -9.201   3.960 133.171  0.00  0.00    +0.000 C 
ATOM     11  C   UNL     1      -8.399   4.591 132.016  0.00  0.00    +0.000 C 
ENDBRANCH   3   6
BRANCH   1  12
ATOM     12  N   UNL     1     -11.018   7.877 128.221  0.00  0.00    +0.000 NA
BRANCH  12  13
ATOM     13  C   UNL     1     -12.238   7.677 127.684  0.00  0.00    +0.000 C 
ATOM     14  O   UNL     1     -12.566   6.807 126.877  0.00  0.00    +0.000 OA
BRANCH  13  15
ATOM     15  O   UNL     1     -13.176   8.557 128.215  0.00  0.00    +0.000 OA
BRANCH  15  17
ATOM     16  C   UNL     1     -13.488  10.636 129.547  0.00  0.00    +0.000 C 
ATOM     17  C   UNL     1     -12.776   9.285 129.410  0.00  0.00    +0.000 C 
ENDBRANCH  15  17
ENDBRANCH  13  15
ENDBRANCH  12  13
ENDBRANCH   1  12
TORSDOF 5
ENDMDL
MODEL 5
REMARK VINA RESULT:      -5.7      8.772      9.571
REMARK  Name = Molsidomine
REMARK  6 active torsions:
REMARK  status: ('A' for Active; 'I' for Inactive)
REMARK    1  A    between atoms: C_1  and  C_2
REMARK    2  A    between atoms: C_2  and  O_3
REMARK    3  A    between atoms: O_3  and  C_4
REMARK    4  A    between atoms: C_4  and  N_6
REMARK    5  A    between atoms: N_6  and  C_7
REMARK    6  A    between atoms: N_9  and  N_12
REMARK                            x       y       z     vdW  Elec       q    Type
REMARK                         _______ _______ _______ _____ _____    ______ ____
ROOT
ATOM      1  C   UNL     1     -10.767   7.383 128.364  0.00  0.00    +0.000 A 
ATOM      2  C   UNL     1     -10.670   6.779 129.605  0.00  0.00    +0.000 A 
ATOM      3  N   UNL     1      -9.762   5.746 129.454  0.00  0.00    +0.000 N 
ATOM      4  N   UNL     1      -9.242   5.681 128.242  0.00  0.00    +0.000 NA
ATOM      5  O   UNL     1      -9.902   6.709 127.515  0.00  0.00    +0.000 OA
ENDROOT
BRANCH   3   6
ATOM      6  N   UNL     1      -9.447   4.748 130.451  0.00  0.00    +0.000 N 
ATOM      7  C   UNL     1      -8.563   5.006 131.579  0.00  0.00    +0.000 C 
ATOM      8  C   UNL     1      -7.553   3.858 131.749  0.00  0.00    +0.000 C 
ATOM      9  O   UNL     1      -8.227   2.594 131.811  0.00  0.00    +0.000 OA
ATOM     10  C   UNL     1      -8.988   2.366 130.618  0.00  0.00    +0.000 C 
ATOM     11  C   UNL     1     -10.080   3.442 130.459  0.00  0.00    +0.000 C 
ENDBRANCH   3   6
BRANCH   1  12
ATOM     12  N   UNL     1     -11.533   8.477 128.074  0.00  0.00    +0.000 NA
BRANCH  12  13
ATOM     13  C   UNL     1     -12.873   8.335 128.060  0.00  0.00    +0.000 C 
ATOM     14  O   UNL     1     -13.515   7.325 127.769  0.00  0.00    +0.000 OA
BRANCH  13  15
ATOM     15  O   UNL     1     -13.510   9.489 128.505  0.00  0.00    +0.000 OA
BRANCH  15  17
ATOM     16  C   UNL     1     -13.650  11.396 130.097  0.00  0.00    +0.000 C 
ATOM     17  C   UNL     1     -13.091   9.999 129.802  0.00  0.00    +0.000 C 
ENDBRANCH  15  17
ENDBRANCH  13  15
ENDBRANCH  12  13
ENDBRANCH   1  12
TORSDOF 5
ENDMDL
MODEL 6
REMARK VINA RESULT:      -5.7      9.065      9.704
REMARK  Name = Molsidomine
REMARK  6 active torsions:
REMARK  status: ('A' for Active; 'I' for Inactive)
REMARK    1  A    between atoms: C_1  and  C_2
REMARK    2  A    between atoms: C_2  and  O_3
REMARK    3  A    between atoms: O_3  and  C_4
REMARK    4  A    between atoms: C_4  and  N_6
REMARK    5  A    between atoms: N_6  and  C_7
REMARK    6  A    between atoms: N_9  and  N_12
REMARK                            x       y       z     vdW  Elec       q    Type
REMARK                         _______ _______ _______ _____ _____    ______ ____
ROOT
ATOM      1  C   UNL     1     -11.972   6.464 130.396  0.00  0.00    +0.000 A 
ATOM      2  C   UNL     1     -10.935   6.175 131.267  0.00  0.00    +0.000 A 
ATOM      3  N   UNL     1     -10.506   4.902 130.937  0.00  0.00    +0.000 N 
ATOM      4  N   UNL     1     -11.147   4.386 129.904  0.00  0.00    +0.000 NA
ATOM      5  O   UNL     1     -12.118   5.366 129.562  0.00  0.00    +0.000 OA
ENDROOT
BRANCH   3   6
ATOM      6  N   UNL     1      -9.533   4.125 131.670  0.00  0.00    +0.000 N 
ATOM      7  C   UNL     1      -9.130   2.782 131.275  0.00  0.00    +0.000 C 
ATOM      8  C   UNL     1      -9.121   1.840 132.490  0.00  0.00    +0.000 C 
ATOM      9  O   UNL     1      -8.340   2.394 133.557  0.00  0.00    +0.000 OA
ATOM     10  C   UNL     1      -8.864   3.666 133.963  0.00  0.00    +0.000 C 
ATOM     11  C   UNL     1      -8.802   4.673 132.798  0.00  0.00    +0.000 C 
ENDBRANCH   3   6
BRANCH   1  12
ATOM     12  N   UNL     1     -12.662   7.642 130.350  0.00  0.00    +0.000 NA
BRANCH  12  13
ATOM     13  C   UNL     1     -12.319   8.548 129.414  0.00  0.00    +0.000 C 
ATOM     14  O   UNL     1     -12.949   9.552 129.079  0.00  0.00    +0.000 OA
BRANCH  13  15
ATOM     15  O   UNL     1     -11.068   8.270 128.872  0.00  0.00    +0.000 OA
BRANCH  15  17
ATOM     16  C   UNL     1     -11.781   7.280 126.703  0.00  0.00    +0.000 C 
ATOM     17  C   UNL     1     -10.958   8.354 127.423  0.00  0.00    +0.000 C 
ENDBRANCH  15  17
ENDBRANCH  13  15
ENDBRANCH  12  13
ENDBRANCH   1  12
TORSDOF 5
ENDMDL
MODEL 7
REMARK VINA RESULT:      -5.6      2.045      6.187
REMARK  Name = Molsidomine
REMARK  6 active torsions:
REMARK  status: ('A' for Active; 'I' for Inactive)
REMARK    1  A    between atoms: C_1  and  C_2
REMARK    2  A    between atoms: C_2  and  O_3
REMARK    3  A    between atoms: O_3  and  C_4
REMARK    4  A    between atoms: C_4  and  N_6
REMARK    5  A    between atoms: N_6  and  C_7
REMARK    6  A    between atoms: N_9  and  N_12
REMARK                            x       y       z     vdW  Elec       q    Type
REMARK                         _______ _______ _______ _____ _____    ______ ____
ROOT
ATOM      1  C   UNL     1      -9.112  -0.889 123.009  0.00  0.00    +0.000 A 
ATOM      2  C   UNL     1      -8.158   0.045 123.373  0.00  0.00    +0.000 A 
ATOM      3  N   UNL     1      -8.727   1.282 123.129  0.00  0.00    +0.000 N 
ATOM      4  N   UNL     1      -9.971   1.209 122.693  0.00  0.00    +0.000 NA
ATOM      5  O   UNL     1     -10.226  -0.185 122.578  0.00  0.00    +0.000 OA
ENDROOT
BRANCH   3   6
ATOM      6  N   UNL     1      -8.049   2.555 123.227  0.00  0.00    +0.000 N 
ATOM      7  C   UNL     1      -7.445   3.222 122.082  0.00  0.00    +0.000 C 
ATOM      8  C   UNL     1      -6.034   3.725 122.430  0.00  0.00    +0.000 C 
ATOM      9  O   UNL     1      -6.059   4.520 123.624  0.00  0.00    +0.000 OA
ATOM     10  C   UNL     1      -6.564   3.761 124.729  0.00  0.00    +0.000 C 
ATOM     11  C   UNL     1      -8.016   3.316 124.462  0.00  0.00    +0.000 C 
ENDBRANCH   3   6
BRANCH   1  12
ATOM     12  N   UNL     1      -8.977  -2.244 123.122  0.00  0.00    +0.000 NA
BRANCH  12  13
ATOM     13  C   UNL     1      -8.960  -2.785 124.356  0.00  0.00    +0.000 C 
ATOM     14  O   UNL     1      -9.814  -2.667 125.235  0.00  0.00    +0.000 OA
BRANCH  13  15
ATOM     15  O   UNL     1      -7.851  -3.605 124.535  0.00  0.00    +0.000 OA
BRANCH  15  17
ATOM     16  C   UNL     1      -5.494  -3.229 123.830  0.00  0.00    +0.000 C 
ATOM     17  C   UNL     1      -6.598  -2.937 124.854  0.00  0.00    +0.000 C 
ENDBRANCH  15  17
ENDBRANCH  13  15
ENDBRANCH  12  13
ENDBRANCH   1  12
TORSDOF 5
ENDMDL
MODEL 8
REMARK VINA RESULT:      -5.4      1.600      6.501
REMARK  Name = Molsidomine
REMARK  6 active torsions:
REMARK  status: ('A' for Active; 'I' for Inactive)
REMARK    1  A    between atoms: C_1  and  C_2
REMARK    2  A    between atoms: C_2  and  O_3
REMARK    3  A    between atoms: O_3  and  C_4
REMARK    4  A    between atoms: C_4  and  N_6
REMARK    5  A    between atoms: N_6  and  C_7
REMARK    6  A    between atoms: N_9  and  N_12
REMARK                            x       y       z     vdW  Elec       q    Type
REMARK                         _______ _______ _______ _____ _____    ______ ____
ROOT
ATOM      1  C   UNL     1      -9.597   0.620 124.231  0.00  0.00    +0.000 A 
ATOM      2  C   UNL     1      -8.731   1.687 124.064  0.00  0.00    +0.000 A 
ATOM      3  N   UNL     1      -8.901   2.112 122.758  0.00  0.00    +0.000 N 
ATOM      4  N   UNL     1      -9.833   1.440 122.107  0.00  0.00    +0.000 NA
ATOM      5  O   UNL     1     -10.271   0.452 123.031  0.00  0.00    +0.000 OA
ENDROOT
BRANCH   3   6
ATOM      6  N   UNL     1      -8.103   3.113 122.088  0.00  0.00    +0.000 N 
ATOM      7  C   UNL     1      -8.591   3.889 120.956  0.00  0.00    +0.000 C 
ATOM      8  C   UNL     1      -7.540   3.930 119.833  0.00  0.00    +0.000 C 
ATOM      9  O   UNL     1      -6.273   4.370 120.341  0.00  0.00    +0.000 OA
ATOM     10  C   UNL     1      -5.809   3.494 121.376  0.00  0.00    +0.000 C 
ATOM     11  C   UNL     1      -6.787   3.496 122.566  0.00  0.00    +0.000 C 
ENDBRANCH   3   6
BRANCH   1  12
ATOM     12  N   UNL     1      -9.778  -0.078 125.391  0.00  0.00    +0.000 NA
BRANCH  12  13
ATOM     13  C   UNL     1      -8.704  -0.655 125.965  0.00  0.00    +0.000 C 
ATOM     14  O   UNL     1      -8.157  -0.333 127.020  0.00  0.00    +0.000 OA
BRANCH  13  15
ATOM     15  O   UNL     1      -8.284  -1.771 125.248  0.00  0.00    +0.000 OA
BRANCH  15  17
ATOM     16  C   UNL     1      -9.430  -3.313 123.667  0.00  0.00    +0.000 C 
ATOM     17  C   UNL     1      -9.246  -2.855 125.119  0.00  0.00    +0.000 C 
ENDBRANCH  15  17
ENDBRANCH  13  15
ENDBRANCH  12  13
ENDBRANCH   1  12
TORSDOF 5
ENDMDL
MODEL 9
REMARK VINA RESULT:      -5.4      9.740     11.398
REMARK  Name = Molsidomine
REMARK  6 active torsions:
REMARK  status: ('A' for Active; 'I' for Inactive)
REMARK    1  A    between atoms: C_1  and  C_2
REMARK    2  A    between atoms: C_2  and  O_3
REMARK    3  A    between atoms: O_3  and  C_4
REMARK    4  A    between atoms: C_4  and  N_6
REMARK    5  A    between atoms: N_6  and  C_7
REMARK    6  A    between atoms: N_9  and  N_12
REMARK                            x       y       z     vdW  Elec       q    Type
REMARK                         _______ _______ _______ _____ _____    ______ ____
ROOT
ATOM      1  C   UNL     1      -8.944   6.410 131.603  0.00  0.00    +0.000 A 
ATOM      2  C   UNL     1      -9.642   6.869 130.500  0.00  0.00    +0.000 A 
ATOM      3  N   UNL     1     -10.957   6.999 130.911  0.00  0.00    +0.000 N 
ATOM      4  N   UNL     1     -11.137   6.712 132.186  0.00  0.00    +0.000 NA
ATOM      5  O   UNL     1      -9.855   6.298 132.642  0.00  0.00    +0.000 OA
ENDROOT
BRANCH   3   6
ATOM      6  N   UNL     1     -12.079   7.315 130.056  0.00  0.00    +0.000 N 
ATOM      7  C   UNL     1     -12.680   6.350 129.146  0.00  0.00    +0.000 C 
ATOM      8  C   UNL     1     -12.901   6.977 127.759  0.00  0.00    +0.000 C 
ATOM      9  O   UNL     1     -13.628   8.208 127.869  0.00  0.00    +0.000 OA
ATOM     10  C   UNL     1     -12.919   9.145 128.691  0.00  0.00    +0.000 C 
ATOM     11  C   UNL     1     -12.760   8.595 130.122  0.00  0.00    +0.000 C 
ENDBRANCH   3   6
BRANCH   1  12
ATOM     12  N   UNL     1      -7.599   6.178 131.648  0.00  0.00    +0.000 NA
BRANCH  12  13
ATOM     13  C   UNL     1      -7.082   5.244 130.825  0.00  0.00    +0.000 C 
ATOM     14  O   UNL     1      -6.436   5.431 129.794  0.00  0.00    +0.000 OA
BRANCH  13  15
ATOM     15  O   UNL     1      -7.295   3.960 131.318  0.00  0.00    +0.000 OA
BRANCH  15  17
ATOM     16  C   UNL     1      -7.865   3.100 133.583  0.00  0.00    +0.000 C 
ATOM     17  C   UNL     1      -6.794   3.691 132.658  0.00  0.00    +0.000 C 
ENDBRANCH  15  17
ENDBRANCH  13  15
ENDBRANCH  12  13
ENDBRANCH   1  12
TORSDOF 5
ENDMDL
