MODEL 1
REMARK VINA RESULT:     -10.0      0.000      0.000
REMARK  Name = Mometasone furoate
REMARK  9 active torsions:
REMARK  status: ('A' for Active; 'I' for Inactive)
REMARK    1  A    between atoms: C_4  and  C_5
REMARK    2  A    between atoms: C_6  and  O_7
REMARK    3  A    between atoms: C_6  and  C_15
REMARK    4  A    between atoms: O_7  and  C_8
REMARK    5  A    between atoms: C_8  and  C_10
REMARK    6  A    between atoms: C_15  and  C_17
REMARK    7  A    between atoms: C_19  and  C_20
REMARK    8  A    between atoms: C_22  and  O_23
REMARK    9  A    between atoms: C_36  and  C_37
REMARK                            x       y       z     vdW  Elec       q    Type
REMARK                         _______ _______ _______ _____ _____    ______ ____
ROOT
ATOM      1  C   UNL     1      -8.038   1.584 130.378  0.00  0.00    +0.000 C 
ATOM      2  C   UNL     1      -7.622   1.727 131.773  0.00  0.00    +0.000 C 
ATOM      3  C   UNL     1      -6.793   2.686 130.953  0.00  0.00    +0.000 C 
ATOM      4  C   UNL     1      -5.585   3.260 132.309  0.00  0.00    +0.000 C 
ATOM      5  C   UNL     1      -7.063   2.436 128.925  0.00  0.00    +0.000 C 
ATOM      6  C   UNL     1      -6.331   1.758 129.790  0.00  0.00    +0.000 C 
ATOM      7  C   UNL     1      -5.452   0.594 129.961  0.00  0.00    +0.000 C 
ATOM      8  C   UNL     1      -5.562   3.419 129.617  0.00  0.00    +0.000 C 
ATOM      9  C   UNL     1      -6.827   4.698 129.349  0.00  0.00    +0.000 C 
ATOM     10  C   UNL     1      -8.484   4.527 129.881  0.00  0.00    +0.000 C 
ATOM     11 CL   UNL     1      -8.630   4.103 131.741  0.00  0.00    +0.000 Cl
ATOM     12  C   UNL     1      -9.184   2.953 129.780  0.00  0.00    +0.000 C 
ATOM     13  C   UNL     1     -10.574   2.948 130.613  0.00  0.00    +0.000 C 
ATOM     14  C   UNL     1     -11.272   4.304 130.362  0.00  0.00    +0.000 C 
ATOM     15  C   UNL     1     -10.473   5.507 130.895  0.00  0.00    +0.000 C 
ATOM     16  C   UNL     1     -10.806   6.399 131.843  0.00  0.00    +0.000 C 
ATOM     17  C   UNL     1     -11.909   6.884 131.121  0.00  0.00    +0.000 C 
ATOM     18  O   UNL     1     -12.995   6.777 131.645  0.00  0.00    +0.000 OA
ATOM     19  C   UNL     1     -11.265   7.710 129.944  0.00  0.00    +0.000 C 
ATOM     20  C   UNL     1      -9.927   7.307 129.578  0.00  0.00    +0.000 C 
ATOM     21  C   UNL     1      -9.171   5.986 130.311  0.00  0.00    +0.000 C 
ATOM     22  C   UNL     1      -8.196   6.473 131.743  0.00  0.00    +0.000 C 
ENDROOT
BRANCH   5  23
ATOM     23  C   UNL     1      -7.783   1.412 127.566  0.00  0.00    +0.000 C 
ATOM     24  O   UNL     1      -8.832   1.799 127.007  0.00  0.00    +0.000 OA
BRANCH  23  25
ATOM     25  C   UNL     1      -7.436   0.046 127.008  0.00  0.00    +0.000 C 
ATOM     26 CL   UNL     1      -7.868  -1.352 128.310  0.00  0.00    +0.000 Cl
ENDBRANCH  23  25
ENDBRANCH   5  23
BRANCH   9  27
ATOM     27  O   UNL     1      -6.284   5.908 129.853  0.00  0.00    +0.000 OA
ATOM     28  H   UNL     1      -7.023   6.542 129.894  0.00  0.00    +0.000 HD
ENDBRANCH   9  27
BRANCH   5  29
ATOM     29  O   UNL     1      -5.938   2.363 127.600  0.00  0.00    +0.000 OA
BRANCH  29  30
ATOM     30  C   UNL     1      -5.715   3.274 126.476  0.00  0.00    +0.000 C 
ATOM     31  O   UNL     1      -6.294   3.298 125.394  0.00  0.00    +0.000 OA
BRANCH  30  32
ATOM     32  C   UNL     1      -4.359   3.621 126.572  0.00  0.00    +0.000 A 
ATOM     33  C   UNL     1      -3.425   2.627 126.560  0.00  0.00    +0.000 A 
ATOM     34  C   UNL     1      -2.390   3.128 127.351  0.00  0.00    +0.000 A 
ATOM     35  C   UNL     1      -2.597   4.491 127.411  0.00  0.00    +0.000 A 
ATOM     36  O   UNL     1      -3.853   4.808 126.968  0.00  0.00    +0.000 OA
ENDBRANCH  30  32
ENDBRANCH  29  30
ENDBRANCH   5  29
TORSDOF 6
ENDMDL
MODEL 2
REMARK VINA RESULT:      -9.7      1.835      7.114
REMARK  Name = Mometasone furoate
REMARK  9 active torsions:
REMARK  status: ('A' for Active; 'I' for Inactive)
REMARK    1  A    between atoms: C_4  and  C_5
REMARK    2  A    between atoms: C_6  and  O_7
REMARK    3  A    between atoms: C_6  and  C_15
REMARK    4  A    between atoms: O_7  and  C_8
REMARK    5  A    between atoms: C_8  and  C_10
REMARK    6  A    between atoms: C_15  and  C_17
REMARK    7  A    between atoms: C_19  and  C_20
REMARK    8  A    between atoms: C_22  and  O_23
REMARK    9  A    between atoms: C_36  and  C_37
REMARK                            x       y       z     vdW  Elec       q    Type
REMARK                         _______ _______ _______ _____ _____    ______ ____
ROOT
ATOM      1  C   UNL     1      -6.793   3.027 131.953  0.00  0.00    +0.000 C 
ATOM      2  C   UNL     1      -6.679   1.570 131.979  0.00  0.00    +0.000 C 
ATOM      3  C   UNL     1      -7.694   1.926 130.919  0.00  0.00    +0.000 C 
ATOM      4  C   UNL     1      -8.311   0.172 130.506  0.00  0.00    +0.000 C 
ATOM      5  C   UNL     1      -8.174   3.930 130.921  0.00  0.00    +0.000 C 
ATOM      6  C   UNL     1      -8.585   2.942 131.694  0.00  0.00    +0.000 C 
ATOM      7  C   UNL     1      -9.406   2.599 132.863  0.00  0.00    +0.000 C 
ATOM      8  C   UNL     1      -9.279   2.642 130.018  0.00  0.00    +0.000 C 
ATOM      9  C   UNL     1      -8.127   3.200 128.726  0.00  0.00    +0.000 C 
ATOM     10  C   UNL     1      -6.400   3.319 128.975  0.00  0.00    +0.000 C 
ATOM     11 CL   UNL     1      -5.627   1.695 129.626  0.00  0.00    +0.000 Cl
ATOM     12  C   UNL     1      -5.864   3.839 130.531  0.00  0.00    +0.000 C 
ATOM     13  C   UNL     1      -4.271   3.566 130.649  0.00  0.00    +0.000 C 
ATOM     14  C   UNL     1      -3.639   3.897 129.278  0.00  0.00    +0.000 C 
ATOM     15  C   UNL     1      -4.134   2.983 128.143  0.00  0.00    +0.000 C 
ATOM     16  C   UNL     1      -3.441   2.123 127.376  0.00  0.00    +0.000 C 
ATOM     17  C   UNL     1      -2.641   3.133 126.816  0.00  0.00    +0.000 C 
ATOM     18  O   UNL     1      -1.447   3.049 126.996  0.00  0.00    +0.000 OA
ATOM     19  C   UNL     1      -3.617   3.902 125.847  0.00  0.00    +0.000 C 
ATOM     20  C   UNL     1      -5.017   3.806 126.190  0.00  0.00    +0.000 C 
ATOM     21  C   UNL     1      -5.531   3.004 127.585  0.00  0.00    +0.000 C 
ATOM     22  C   UNL     1      -5.908   1.273 127.270  0.00  0.00    +0.000 C 
ENDROOT
BRANCH   5  23
ATOM     23  C   UNL     1      -8.037   5.562 131.776  0.00  0.00    +0.000 C 
ATOM     24  O   UNL     1      -7.373   6.475 131.236  0.00  0.00    +0.000 OA
BRANCH  23  25
ATOM     25  C   UNL     1      -8.476   6.053 133.142  0.00  0.00    +0.000 C 
ATOM     26 CL   UNL     1      -7.252   5.401 134.526  0.00  0.00    +0.000 Cl
ENDBRANCH  23  25
ENDBRANCH   5  23
BRANCH   9  27
ATOM     27  O   UNL     1      -8.393   2.403 127.582  0.00  0.00    +0.000 OA
ATOM     28  H   UNL     1      -8.645   1.524 127.916  0.00  0.00    +0.000 HD
ENDBRANCH   9  27
BRANCH   5  29
ATOM     29  O   UNL     1      -9.698   4.764 130.821  0.00  0.00    +0.000 OA
BRANCH  29  30
ATOM     30  C   UNL     1     -10.303   5.536 129.735  0.00  0.00    +0.000 C 
ATOM     31  O   UNL     1      -9.738   6.124 128.818  0.00  0.00    +0.000 OA
BRANCH  30  32
ATOM     32  C   UNL     1     -11.493   6.036 130.283  0.00  0.00    +0.000 A 
ATOM     33  C   UNL     1     -12.466   6.485 129.438  0.00  0.00    +0.000 A 
ATOM     34  C   UNL     1     -13.096   7.501 130.159  0.00  0.00    +0.000 A 
ATOM     35  C   UNL     1     -12.744   7.290 131.477  0.00  0.00    +0.000 A 
ATOM     36  O   UNL     1     -11.703   6.405 131.563  0.00  0.00    +0.000 OA
ENDBRANCH  30  32
ENDBRANCH  29  30
ENDBRANCH   5  29
TORSDOF 6
ENDMDL
MODEL 3
REMARK VINA RESULT:      -9.6      3.493      7.147
REMARK  Name = Mometasone furoate
REMARK  9 active torsions:
REMARK  status: ('A' for Active; 'I' for Inactive)
REMARK    1  A    between atoms: C_4  and  C_5
REMARK    2  A    between atoms: C_6  and  O_7
REMARK    3  A    between atoms: C_6  and  C_15
REMARK    4  A    between atoms: O_7  and  C_8
REMARK    5  A    between atoms: C_8  and  C_10
REMARK    6  A    between atoms: C_15  and  C_17
REMARK    7  A    between atoms: C_19  and  C_20
REMARK    8  A    between atoms: C_22  and  O_23
REMARK    9  A    between atoms: C_36  and  C_37
REMARK                            x       y       z     vdW  Elec       q    Type
REMARK                         _______ _______ _______ _____ _____    ______ ____
ROOT
ATOM      1  C   UNL     1      -5.065   2.910 131.935  0.00  0.00    +0.000 C 
ATOM      2  C   UNL     1      -4.129   2.299 130.992  0.00  0.00    +0.000 C 
ATOM      3  C   UNL     1      -4.790   3.460 130.287  0.00  0.00    +0.000 C 
ATOM      4  C   UNL     1      -4.100   3.168 128.536  0.00  0.00    +0.000 C 
ATOM      5  C   UNL     1      -6.331   4.281 131.381  0.00  0.00    +0.000 C 
ATOM      6  C   UNL     1      -6.288   3.198 130.627  0.00  0.00    +0.000 C 
ATOM      7  C   UNL     1      -7.048   2.030 130.164  0.00  0.00    +0.000 C 
ATOM      8  C   UNL     1      -6.137   4.646 129.504  0.00  0.00    +0.000 C 
ATOM      9  C   UNL     1      -5.218   5.997 130.301  0.00  0.00    +0.000 C 
ATOM     10  C   UNL     1      -4.062   5.734 131.588  0.00  0.00    +0.000 C 
ATOM     11 CL   UNL     1      -2.716   4.454 131.131  0.00  0.00    +0.000 Cl
ATOM     12  C   UNL     1      -4.424   4.492 132.729  0.00  0.00    +0.000 C 
ATOM     13  C   UNL     1      -3.099   4.199 133.615  0.00  0.00    +0.000 C 
ATOM     14  C   UNL     1      -2.413   5.556 133.890  0.00  0.00    +0.000 C 
ATOM     15  C   UNL     1      -1.912   6.254 132.614  0.00  0.00    +0.000 C 
ATOM     16  C   UNL     1      -0.658   6.580 132.256  0.00  0.00    +0.000 C 
ATOM     17  C   UNL     1      -0.486   7.458 133.339  0.00  0.00    +0.000 C 
ATOM     18  O   UNL     1       0.409   7.203 134.113  0.00  0.00    +0.000 OA
ATOM     19  C   UNL     1      -1.386   8.699 132.974  0.00  0.00    +0.000 C 
ATOM     20  C   UNL     1      -2.485   8.413 132.081  0.00  0.00    +0.000 C 
ATOM     21  C   UNL     1      -2.812   6.840 131.559  0.00  0.00    +0.000 C 
ATOM     22  C   UNL     1      -1.983   6.457 130.008  0.00  0.00    +0.000 C 
ENDROOT
BRANCH   5  23
ATOM     23  C   UNL     1      -7.441   4.142 132.852  0.00  0.00    +0.000 C 
ATOM     24  O   UNL     1      -7.574   5.131 133.605  0.00  0.00    +0.000 OA
BRANCH  23  25
ATOM     25  C   UNL     1      -8.194   2.981 133.471  0.00  0.00    +0.000 C 
ATOM     26 CL   UNL     1      -9.758   2.524 132.383  0.00  0.00    +0.000 Cl
ENDBRANCH  23  25
ENDBRANCH   5  23
BRANCH   9  27
ATOM     27  O   UNL     1      -4.610   6.739 129.255  0.00  0.00    +0.000 OA
ATOM     28  H   UNL     1      -5.176   6.618 128.472  0.00  0.00    +0.000 HD
ENDBRANCH   9  27
BRANCH   5  29
ATOM     29  O   UNL     1      -7.939   4.777 130.939  0.00  0.00    +0.000 OA
BRANCH  29  30
ATOM     30  C   UNL     1      -8.509   6.107 130.721  0.00  0.00    +0.000 C 
ATOM     31  O   UNL     1      -7.944   7.194 130.792  0.00  0.00    +0.000 OA
BRANCH  30  32
ATOM     32  C   UNL     1      -9.857   5.974 131.086  0.00  0.00    +0.000 A 
ATOM     33  C   UNL     1     -10.750   5.545 130.149  0.00  0.00    +0.000 A 
ATOM     34  C   UNL     1     -11.943   6.176 130.506  0.00  0.00    +0.000 A 
ATOM     35  C   UNL     1     -11.774   6.568 131.819  0.00  0.00    +0.000 A 
ATOM     36  O   UNL     1     -10.455   6.491 132.179  0.00  0.00    +0.000 OA
ENDBRANCH  30  32
ENDBRANCH  29  30
ENDBRANCH   5  29
TORSDOF 6
ENDMDL
MODEL 4
REMARK VINA RESULT:      -9.4      2.656      3.825
REMARK  Name = Mometasone furoate
REMARK  9 active torsions:
REMARK  status: ('A' for Active; 'I' for Inactive)
REMARK    1  A    between atoms: C_4  and  C_5
REMARK    2  A    between atoms: C_6  and  O_7
REMARK    3  A    between atoms: C_6  and  C_15
REMARK    4  A    between atoms: O_7  and  C_8
REMARK    5  A    between atoms: C_8  and  C_10
REMARK    6  A    between atoms: C_15  and  C_17
REMARK    7  A    between atoms: C_19  and  C_20
REMARK    8  A    between atoms: C_22  and  O_23
REMARK    9  A    between atoms: C_36  and  C_37
REMARK                            x       y       z     vdW  Elec       q    Type
REMARK                         _______ _______ _______ _____ _____    ______ ____
ROOT
ATOM      1  C   UNL     1      -6.703   0.329 128.255  0.00  0.00    +0.000 C 
ATOM      2  C   UNL     1      -5.409   0.366 128.936  0.00  0.00    +0.000 C 
ATOM      3  C   UNL     1      -5.530   1.634 128.124  0.00  0.00    +0.000 C 
ATOM      4  C   UNL     1      -3.766   2.307 128.372  0.00  0.00    +0.000 C 
ATOM      5  C   UNL     1      -7.183   1.633 126.892  0.00  0.00    +0.000 C 
ATOM      6  C   UNL     1      -6.000   1.062 126.753  0.00  0.00    +0.000 C 
ATOM      7  C   UNL     1      -5.189   0.179 125.904  0.00  0.00    +0.000 C 
ATOM      8  C   UNL     1      -5.742   2.878 126.627  0.00  0.00    +0.000 C 
ATOM      9  C   UNL     1      -6.892   3.777 127.711  0.00  0.00    +0.000 C 
ATOM     10  C   UNL     1      -7.604   3.068 129.143  0.00  0.00    +0.000 C 
ATOM     11 CL   UNL     1      -6.301   2.339 130.340  0.00  0.00    +0.000 Cl
ATOM     12  C   UNL     1      -8.023   1.396 129.068  0.00  0.00    +0.000 C 
ATOM     13  C   UNL     1      -8.347   0.874 130.568  0.00  0.00    +0.000 C 
ATOM     14  C   UNL     1      -9.110   2.002 131.299  0.00  0.00    +0.000 C 
ATOM     15  C   UNL     1      -8.276   3.283 131.477  0.00  0.00    +0.000 C 
ATOM     16  C   UNL     1      -7.875   3.890 132.607  0.00  0.00    +0.000 C 
ATOM     17  C   UNL     1      -9.187   4.150 133.035  0.00  0.00    +0.000 C 
ATOM     18  O   UNL     1      -9.525   3.664 134.091  0.00  0.00    +0.000 OA
ATOM     19  C   UNL     1      -9.684   5.295 132.074  0.00  0.00    +0.000 C 
ATOM     20  C   UNL     1      -9.020   5.345 130.792  0.00  0.00    +0.000 C 
ATOM     21  C   UNL     1      -7.867   4.192 130.349  0.00  0.00    +0.000 C 
ATOM     22  C   UNL     1      -6.197   4.706 130.779  0.00  0.00    +0.000 C 
ENDROOT
BRANCH   5  23
ATOM     23  C   UNL     1      -8.584   0.670 126.170  0.00  0.00    +0.000 C 
ATOM     24  O   UNL     1      -9.750   1.101 126.309  0.00  0.00    +0.000 OA
BRANCH  23  25
ATOM     25  C   UNL     1      -8.668  -0.687 125.498  0.00  0.00    +0.000 C 
ATOM     26 CL   UNL     1      -8.391  -0.509 123.567  0.00  0.00    +0.000 Cl
ENDBRANCH  23  25
ENDBRANCH   5  23
BRANCH   9  27
ATOM     27  O   UNL     1      -6.253   4.998 128.048  0.00  0.00    +0.000 OA
ATOM     28  H   UNL     1      -5.748   4.825 128.863  0.00  0.00    +0.000 HD
ENDBRANCH   9  27
BRANCH   5  29
ATOM     29  O   UNL     1      -7.393   2.083 125.225  0.00  0.00    +0.000 OA
BRANCH  29  30
ATOM     30  C   UNL     1      -7.959   3.289 124.618  0.00  0.00    +0.000 C 
ATOM     31  O   UNL     1      -8.871   3.993 125.041  0.00  0.00    +0.000 OA
BRANCH  30  32
ATOM     32  C   UNL     1      -7.773   3.107 123.240  0.00  0.00    +0.000 A 
ATOM     33  C   UNL     1      -6.516   2.848 122.777  0.00  0.00    +0.000 A 
ATOM     34  C   UNL     1      -6.503   3.420 121.503  0.00  0.00    +0.000 A 
ATOM     35  C   UNL     1      -7.829   3.585 121.158  0.00  0.00    +0.000 A 
ATOM     36  O   UNL     1      -8.634   3.437 122.256  0.00  0.00    +0.000 OA
ENDBRANCH  30  32
ENDBRANCH  29  30
ENDBRANCH   5  29
TORSDOF 6
ENDMDL
MODEL 5
REMARK VINA RESULT:      -9.1      2.691      7.121
REMARK  Name = Mometasone furoate
REMARK  9 active torsions:
REMARK  status: ('A' for Active; 'I' for Inactive)
REMARK    1  A    between atoms: C_4  and  C_5
REMARK    2  A    between atoms: C_6  and  O_7
REMARK    3  A    between atoms: C_6  and  C_15
REMARK    4  A    between atoms: O_7  and  C_8
REMARK    5  A    between atoms: C_8  and  C_10
REMARK    6  A    between atoms: C_15  and  C_17
REMARK    7  A    between atoms: C_19  and  C_20
REMARK    8  A    between atoms: C_22  and  O_23
REMARK    9  A    between atoms: C_36  and  C_37
REMARK                            x       y       z     vdW  Elec       q    Type
REMARK                         _______ _______ _______ _____ _____    ______ ____
ROOT
ATOM      1  C   UNL     1      -7.479   3.339 127.712  0.00  0.00    +0.000 C 
ATOM      2  C   UNL     1      -6.240   3.337 126.936  0.00  0.00    +0.000 C 
ATOM      3  C   UNL     1      -5.995   2.521 128.183  0.00  0.00    +0.000 C 
ATOM      4  C   UNL     1      -4.121   2.247 127.988  0.00  0.00    +0.000 C 
ATOM      5  C   UNL     1      -7.557   2.630 129.523  0.00  0.00    +0.000 C 
ATOM      6  C   UNL     1      -6.570   3.472 129.276  0.00  0.00    +0.000 C 
ATOM      7  C   UNL     1      -6.009   4.789 129.604  0.00  0.00    +0.000 C 
ATOM      8  C   UNL     1      -5.827   1.983 130.059  0.00  0.00    +0.000 C 
ATOM      9  C   UNL     1      -6.716   0.475 129.566  0.00  0.00    +0.000 C 
ATOM     10  C   UNL     1      -7.625   0.348 128.077  0.00  0.00    +0.000 C 
ATOM     11 CL   UNL     1      -6.596   0.813 126.533  0.00  0.00    +0.000 Cl
ATOM     12  C   UNL     1      -8.480   1.752 127.554  0.00  0.00    +0.000 C 
ATOM     13  C   UNL     1      -8.967   1.525 126.025  0.00  0.00    +0.000 C 
ATOM     14  C   UNL     1      -9.412   0.050 125.893  0.00  0.00    +0.000 C 
ATOM     15  C   UNL     1      -8.267  -0.953 126.118  0.00  0.00    +0.000 C 
ATOM     16  C   UNL     1      -7.743  -1.852 125.268  0.00  0.00    +0.000 C 
ATOM     17  C   UNL     1      -8.945  -2.569 125.149  0.00  0.00    +0.000 C 
ATOM     18  O   UNL     1      -9.426  -2.651 124.040  0.00  0.00    +0.000 OA
ATOM     19  C   UNL     1      -9.092  -3.305 126.534  0.00  0.00    +0.000 C 
ATOM     20  C   UNL     1      -8.409  -2.669 127.637  0.00  0.00    +0.000 C 
ATOM     21  C   UNL     1      -7.602  -1.198 127.445  0.00  0.00    +0.000 C 
ATOM     22  C   UNL     1      -5.865  -1.428 127.034  0.00  0.00    +0.000 C 
ENDROOT
BRANCH   5  23
ATOM     23  C   UNL     1      -9.150   3.439 129.993  0.00  0.00    +0.000 C 
ATOM     24  O   UNL     1     -10.219   2.810 129.831  0.00  0.00    +0.000 OA
BRANCH  23  25
ATOM     25  C   UNL     1      -9.501   4.840 130.454  0.00  0.00    +0.000 C 
ATOM     26 CL   UNL     1      -9.627   6.050 128.919  0.00  0.00    +0.000 Cl
ENDBRANCH  23  25
ENDBRANCH   5  23
BRANCH   9  27
ATOM     27  O   UNL     1      -5.778  -0.586 129.648  0.00  0.00    +0.000 OA
ATOM     28  H   UNL     1      -5.237  -0.411 130.438  0.00  0.00    +0.000 HD
ENDBRANCH   9  27
BRANCH   5  29
ATOM     29  O   UNL     1      -7.600   2.862 131.247  0.00  0.00    +0.000 OA
BRANCH  29  30
ATOM     30  C   UNL     1      -7.959   1.947 132.332  0.00  0.00    +0.000 C 
ATOM     31  O   UNL     1      -8.736   0.998 132.296  0.00  0.00    +0.000 OA
BRANCH  30  32
ATOM     32  C   UNL     1      -7.817   2.715 133.497  0.00  0.00    +0.000 A 
ATOM     33  C   UNL     1      -8.830   3.553 133.857  0.00  0.00    +0.000 A 
ATOM     34  C   UNL     1      -8.183   4.608 134.502  0.00  0.00    +0.000 A 
ATOM     35  C   UNL     1      -6.935   4.124 134.840  0.00  0.00    +0.000 A 
ATOM     36  O   UNL     1      -6.675   2.956 134.174  0.00  0.00    +0.000 OA
ENDBRANCH  30  32
ENDBRANCH  29  30
ENDBRANCH   5  29
TORSDOF 6
ENDMDL
MODEL 6
REMARK VINA RESULT:      -8.9      2.815      6.822
REMARK  Name = Mometasone furoate
REMARK  9 active torsions:
REMARK  status: ('A' for Active; 'I' for Inactive)
REMARK    1  A    between atoms: C_4  and  C_5
REMARK    2  A    between atoms: C_6  and  O_7
REMARK    3  A    between atoms: C_6  and  C_15
REMARK    4  A    between atoms: O_7  and  C_8
REMARK    5  A    between atoms: C_8  and  C_10
REMARK    6  A    between atoms: C_15  and  C_17
REMARK    7  A    between atoms: C_19  and  C_20
REMARK    8  A    between atoms: C_22  and  O_23
REMARK    9  A    between atoms: C_36  and  C_37
REMARK                            x       y       z     vdW  Elec       q    Type
REMARK                         _______ _______ _______ _____ _____    ______ ____
ROOT
ATOM      1  C   UNL     1      -4.616   2.711 131.402  0.00  0.00    +0.000 C 
ATOM      2  C   UNL     1      -4.603   2.398 132.831  0.00  0.00    +0.000 C 
ATOM      3  C   UNL     1      -6.039   2.649 132.435  0.00  0.00    +0.000 C 
ATOM      4  C   UNL     1      -6.829   2.615 134.167  0.00  0.00    +0.000 C 
ATOM      5  C   UNL     1      -6.219   3.358 130.508  0.00  0.00    +0.000 C 
ATOM      6  C   UNL     1      -5.896   3.975 131.629  0.00  0.00    +0.000 C 
ATOM      7  C   UNL     1      -5.465   5.253 132.212  0.00  0.00    +0.000 C 
ATOM      8  C   UNL     1      -7.668   3.504 131.763  0.00  0.00    +0.000 C 
ATOM      9  C   UNL     1      -7.988   1.925 130.919  0.00  0.00    +0.000 C 
ATOM     10  C   UNL     1      -6.754   0.713 130.663  0.00  0.00    +0.000 C 
ATOM     11 CL   UNL     1      -5.856   0.211 132.277  0.00  0.00    +0.000 Cl
ATOM     12  C   UNL     1      -5.160   1.275 130.312  0.00  0.00    +0.000 C 
ATOM     13  C   UNL     1      -4.131   0.029 130.439  0.00  0.00    +0.000 C 
ATOM     14  C   UNL     1      -4.836  -1.218 129.860  0.00  0.00    +0.000 C 
ATOM     15  C   UNL     1      -6.088  -1.632 130.653  0.00  0.00    +0.000 C 
ATOM     16  C   UNL     1      -6.334  -2.770 131.325  0.00  0.00    +0.000 C 
ATOM     17  C   UNL     1      -6.254  -3.569 130.172  0.00  0.00    +0.000 C 
ATOM     18  O   UNL     1      -5.403  -4.430 130.161  0.00  0.00    +0.000 OA
ATOM     19  C   UNL     1      -7.573  -3.231 129.378  0.00  0.00    +0.000 C 
ATOM     20  C   UNL     1      -8.136  -1.930 129.660  0.00  0.00    +0.000 C 
ATOM     21  C   UNL     1      -7.367  -0.839 130.695  0.00  0.00    +0.000 C 
ATOM     22  C   UNL     1      -7.934  -1.004 132.394  0.00  0.00    +0.000 C 
ENDROOT
BRANCH   5  23
ATOM     23  C   UNL     1      -5.366   4.011 129.004  0.00  0.00    +0.000 C 
ATOM     24  O   UNL     1      -5.288   3.285 127.989  0.00  0.00    +0.000 OA
BRANCH  23  25
ATOM     25  C   UNL     1      -4.575   5.276 128.733  0.00  0.00    +0.000 C 
ATOM     26 CL   UNL     1      -2.811   5.169 129.578  0.00  0.00    +0.000 Cl
ENDBRANCH  23  25
ENDBRANCH   5  23
BRANCH   9  27
ATOM     27  O   UNL     1      -9.105   1.342 131.572  0.00  0.00    +0.000 OA
ATOM     28  H   UNL     1      -8.796   0.491 131.931  0.00  0.00    +0.000 HD
ENDBRANCH   9  27
BRANCH   5  29
ATOM     29  O   UNL     1      -7.163   4.650 129.824  0.00  0.00    +0.000 OA
BRANCH  29  30
ATOM     30  C   UNL     1      -8.303   4.627 128.908  0.00  0.00    +0.000 C 
ATOM     31  O   UNL     1      -8.288   4.560 127.682  0.00  0.00    +0.000 OA
BRANCH  30  32
ATOM     32  C   UNL     1      -9.302   5.352 129.575  0.00  0.00    +0.000 A 
ATOM     33  C   UNL     1      -8.942   6.449 130.300  0.00  0.00    +0.000 A 
ATOM     34  C   UNL     1      -9.876   6.488 131.337  0.00  0.00    +0.000 A 
ATOM     35  C   UNL     1     -10.928   5.700 130.916  0.00  0.00    +0.000 A 
ATOM     36  O   UNL     1     -10.561   4.943 129.835  0.00  0.00    +0.000 OA
ENDBRANCH  30  32
ENDBRANCH  29  30
ENDBRANCH   5  29
TORSDOF 6
ENDMDL
MODEL 7
REMARK VINA RESULT:      -8.8      3.781      6.494
REMARK  Name = Mometasone furoate
REMARK  9 active torsions:
REMARK  status: ('A' for Active; 'I' for Inactive)
REMARK    1  A    between atoms: C_4  and  C_5
REMARK    2  A    between atoms: C_6  and  O_7
REMARK    3  A    between atoms: C_6  and  C_15
REMARK    4  A    between atoms: O_7  and  C_8
REMARK    5  A    between atoms: C_8  and  C_10
REMARK    6  A    between atoms: C_15  and  C_17
REMARK    7  A    between atoms: C_19  and  C_20
REMARK    8  A    between atoms: C_22  and  O_23
REMARK    9  A    between atoms: C_36  and  C_37
REMARK                            x       y       z     vdW  Elec       q    Type
REMARK                         _______ _______ _______ _____ _____    ______ ____
ROOT
ATOM      1  C   UNL     1      -7.859  -0.261 130.373  0.00  0.00    +0.000 C 
ATOM      2  C   UNL     1      -8.454   0.745 131.253  0.00  0.00    +0.000 C 
ATOM      3  C   UNL     1      -7.054   0.478 131.752  0.00  0.00    +0.000 C 
ATOM      4  C   UNL     1      -7.123   1.490 133.364  0.00  0.00    +0.000 C 
ATOM      5  C   UNL     1      -6.155  -1.105 130.787  0.00  0.00    +0.000 C 
ATOM      6  C   UNL     1      -7.038  -1.080 131.768  0.00  0.00    +0.000 C 
ATOM      7  C   UNL     1      -7.884  -1.906 132.639  0.00  0.00    +0.000 C 
ATOM      8  C   UNL     1      -5.460  -0.424 132.445  0.00  0.00    +0.000 C 
ATOM      9  C   UNL     1      -4.546   0.510 131.180  0.00  0.00    +0.000 C 
ATOM     10  C   UNL     1      -5.323   1.274 129.813  0.00  0.00    +0.000 C 
ATOM     11 CL   UNL     1      -6.749   2.444 130.323  0.00  0.00    +0.000 Cl
ATOM     12  C   UNL     1      -6.662   0.448 129.105  0.00  0.00    +0.000 C 
ATOM     13  C   UNL     1      -7.422   1.462 128.094  0.00  0.00    +0.000 C 
ATOM     14  C   UNL     1      -6.341   2.293 127.368  0.00  0.00    +0.000 C 
ATOM     15  C   UNL     1      -5.523   3.188 128.315  0.00  0.00    +0.000 C 
ATOM     16  C   UNL     1      -5.420   4.528 128.345  0.00  0.00    +0.000 C 
ATOM     17  C   UNL     1      -4.848   4.598 127.064  0.00  0.00    +0.000 C 
ATOM     18  O   UNL     1      -5.452   5.233 126.229  0.00  0.00    +0.000 OA
ATOM     19  C   UNL     1      -3.389   4.038 127.263  0.00  0.00    +0.000 C 
ATOM     20  C   UNL     1      -3.229   3.141 128.385  0.00  0.00    +0.000 C 
ATOM     21  C   UNL     1      -4.544   2.672 129.335  0.00  0.00    +0.000 C 
ATOM     22  C   UNL     1      -4.773   3.754 130.755  0.00  0.00    +0.000 C 
ENDROOT
BRANCH   5  23
ATOM     23  C   UNL     1      -6.344  -2.530 129.626  0.00  0.00    +0.000 C 
ATOM     24  O   UNL     1      -5.750  -2.498 128.526  0.00  0.00    +0.000 OA
BRANCH  23  25
ATOM     25  C   UNL     1      -7.214  -3.772 129.647  0.00  0.00    +0.000 C 
ATOM     26 CL   UNL     1      -8.793  -3.517 128.517  0.00  0.00    +0.000 Cl
ENDBRANCH  23  25
ENDBRANCH   5  23
BRANCH   9  27
ATOM     27  O   UNL     1      -3.758   1.462 131.878  0.00  0.00    +0.000 OA
ATOM     28  H   UNL     1      -3.247   0.960 132.538  0.00  0.00    +0.000 HD
ENDBRANCH   9  27
BRANCH   5  29
ATOM     29  O   UNL     1      -5.230  -2.456 131.375  0.00  0.00    +0.000 OA
BRANCH  29  30
ATOM     30  C   UNL     1      -3.790  -2.717 131.358  0.00  0.00    +0.000 C 
ATOM     31  O   UNL     1      -2.972  -2.394 130.500  0.00  0.00    +0.000 OA
BRANCH  30  32
ATOM     32  C   UNL     1      -3.642  -3.913 132.076  0.00  0.00    +0.000 A 
ATOM     33  C   UNL     1      -4.736  -4.707 132.257  0.00  0.00    +0.000 A 
ATOM     34  C   UNL     1      -4.505  -5.321 133.489  0.00  0.00    +0.000 A 
ATOM     35  C   UNL     1      -3.152  -5.179 133.725  0.00  0.00    +0.000 A 
ATOM     36  O   UNL     1      -2.609  -4.257 132.871  0.00  0.00    +0.000 OA
ENDBRANCH  30  32
ENDBRANCH  29  30
ENDBRANCH   5  29
TORSDOF 6
ENDMDL
MODEL 8
REMARK VINA RESULT:      -8.8      2.825      6.986
REMARK  Name = Mometasone furoate
REMARK  9 active torsions:
REMARK  status: ('A' for Active; 'I' for Inactive)
REMARK    1  A    between atoms: C_4  and  C_5
REMARK    2  A    between atoms: C_6  and  O_7
REMARK    3  A    between atoms: C_6  and  C_15
REMARK    4  A    between atoms: O_7  and  C_8
REMARK    5  A    between atoms: C_8  and  C_10
REMARK    6  A    between atoms: C_15  and  C_17
REMARK    7  A    between atoms: C_19  and  C_20
REMARK    8  A    between atoms: C_22  and  O_23
REMARK    9  A    between atoms: C_36  and  C_37
REMARK                            x       y       z     vdW  Elec       q    Type
REMARK                         _______ _______ _______ _____ _____    ______ ____
ROOT
ATOM      1  C   UNL     1      -7.192   3.160 127.307  0.00  0.00    +0.000 C 
ATOM      2  C   UNL     1      -6.259   3.398 126.207  0.00  0.00    +0.000 C 
ATOM      3  C   UNL     1      -5.586   2.455 127.176  0.00  0.00    +0.000 C 
ATOM      4  C   UNL     1      -3.852   2.418 126.389  0.00  0.00    +0.000 C 
ATOM      5  C   UNL     1      -6.656   2.211 128.920  0.00  0.00    +0.000 C 
ATOM      6  C   UNL     1      -5.852   3.182 128.528  0.00  0.00    +0.000 C 
ATOM      7  C   UNL     1      -5.302   4.498 128.881  0.00  0.00    +0.000 C 
ATOM      8  C   UNL     1      -4.808   1.694 128.804  0.00  0.00    +0.000 C 
ATOM      9  C   UNL     1      -5.708   0.176 128.364  0.00  0.00    +0.000 C 
ATOM     10  C   UNL     1      -7.026   0.149 127.214  0.00  0.00    +0.000 C 
ATOM     11 CL   UNL     1      -6.561   0.927 125.529  0.00  0.00    +0.000 Cl
ATOM     12  C   UNL     1      -8.089   1.508 127.203  0.00  0.00    +0.000 C 
ATOM     13  C   UNL     1      -9.013   1.434 125.873  0.00  0.00    +0.000 C 
ATOM     14  C   UNL     1      -9.382  -0.050 125.645  0.00  0.00    +0.000 C 
ATOM     15  C   UNL     1      -8.162  -0.942 125.353  0.00  0.00    +0.000 C 
ATOM     16  C   UNL     1      -7.872  -1.657 124.252  0.00  0.00    +0.000 C 
ATOM     17  C   UNL     1      -9.003  -2.479 124.384  0.00  0.00    +0.000 C 
ATOM     18  O   UNL     1      -9.799  -2.465 123.472  0.00  0.00    +0.000 OA
ATOM     19  C   UNL     1      -8.664  -3.405 125.613  0.00  0.00    +0.000 C 
ATOM     20  C   UNL     1      -7.714  -2.850 126.549  0.00  0.00    +0.000 C 
ATOM     21  C   UNL     1      -7.102  -1.287 126.364  0.00  0.00    +0.000 C 
ATOM     22  C   UNL     1      -5.569  -1.267 125.422  0.00  0.00    +0.000 C 
ENDROOT
BRANCH   5  23
ATOM     23  C   UNL     1      -8.072   2.770 129.968  0.00  0.00    +0.000 C 
ATOM     24  O   UNL     1      -9.043   2.000 130.134  0.00  0.00    +0.000 OA
BRANCH  23  25
ATOM     25  C   UNL     1      -8.410   4.093 130.627  0.00  0.00    +0.000 C 
ATOM     26 CL   UNL     1      -9.102   5.358 129.301  0.00  0.00    +0.000 Cl
ENDBRANCH  23  25
ENDBRANCH   5  23
BRANCH   9  27
ATOM     27  O   UNL     1      -4.725  -0.777 127.990  0.00  0.00    +0.000 OA
ATOM     28  H   UNL     1      -3.990  -0.670 128.619  0.00  0.00    +0.000 HD
ENDBRANCH   9  27
BRANCH   5  29
ATOM     29  O   UNL     1      -6.175   2.206 130.592  0.00  0.00    +0.000 OA
BRANCH  29  30
ATOM     30  C   UNL     1      -5.957   1.100 131.526  0.00  0.00    +0.000 C 
ATOM     31  O   UNL     1      -6.763   0.253 131.898  0.00  0.00    +0.000 OA
BRANCH  30  32
ATOM     32  C   UNL     1      -4.956   1.567 132.392  0.00  0.00    +0.000 A 
ATOM     33  C   UNL     1      -4.625   2.889 132.358  0.00  0.00    +0.000 A 
ATOM     34  C   UNL     1      -3.270   2.905 132.693  0.00  0.00    +0.000 A 
ATOM     35  C   UNL     1      -3.023   1.687 133.294  0.00  0.00    +0.000 A 
ATOM     36  O   UNL     1      -4.059   0.820 133.069  0.00  0.00    +0.000 OA
ENDBRANCH  30  32
ENDBRANCH  29  30
ENDBRANCH   5  29
TORSDOF 6
ENDMDL
MODEL 9
REMARK VINA RESULT:      -8.6      3.196      5.482
REMARK  Name = Mometasone furoate
REMARK  9 active torsions:
REMARK  status: ('A' for Active; 'I' for Inactive)
REMARK    1  A    between atoms: C_4  and  C_5
REMARK    2  A    between atoms: C_6  and  O_7
REMARK    3  A    between atoms: C_6  and  C_15
REMARK    4  A    between atoms: O_7  and  C_8
REMARK    5  A    between atoms: C_8  and  C_10
REMARK    6  A    between atoms: C_15  and  C_17
REMARK    7  A    between atoms: C_19  and  C_20
REMARK    8  A    between atoms: C_22  and  O_23
REMARK    9  A    between atoms: C_36  and  C_37
REMARK                            x       y       z     vdW  Elec       q    Type
REMARK                         _______ _______ _______ _____ _____    ______ ____
ROOT
ATOM      1  C   UNL     1      -4.876   2.042 129.219  0.00  0.00    +0.000 C 
ATOM      2  C   UNL     1      -3.504   1.744 128.808  0.00  0.00    +0.000 C 
ATOM      3  C   UNL     1      -4.089   2.688 127.784  0.00  0.00    +0.000 C 
ATOM      4  C   UNL     1      -2.675   2.646 126.509  0.00  0.00    +0.000 C 
ATOM      5  C   UNL     1      -6.105   3.013 128.064  0.00  0.00    +0.000 C 
ATOM      6  C   UNL     1      -5.461   2.006 127.503  0.00  0.00    +0.000 C 
ATOM      7  C   UNL     1      -5.615   0.682 126.886  0.00  0.00    +0.000 C 
ATOM      8  C   UNL     1      -5.242   3.464 126.405  0.00  0.00    +0.000 C 
ATOM      9  C   UNL     1      -5.140   5.000 127.374  0.00  0.00    +0.000 C 
ATOM     10  C   UNL     1      -4.611   5.042 129.041  0.00  0.00    +0.000 C 
ATOM     11 CL   UNL     1      -2.910   4.205 129.304  0.00  0.00    +0.000 Cl
ATOM     12  C   UNL     1      -5.075   3.720 130.048  0.00  0.00    +0.000 C 
ATOM     13  C   UNL     1      -4.222   3.791 131.424  0.00  0.00    +0.000 C 
ATOM     14  C   UNL     1      -4.104   5.280 131.823  0.00  0.00    +0.000 C 
ATOM     15  C   UNL     1      -3.317   6.122 130.803  0.00  0.00    +0.000 C 
ATOM     16  C   UNL     1      -2.166   6.798 130.962  0.00  0.00    +0.000 C 
ATOM     17  C   UNL     1      -2.707   7.661 131.929  0.00  0.00    +0.000 C 
ATOM     18  O   UNL     1      -2.189   7.650 133.023  0.00  0.00    +0.000 OA
ATOM     19  C   UNL     1      -3.663   8.607 131.108  0.00  0.00    +0.000 C 
ATOM     20  C   UNL     1      -4.163   8.044 129.874  0.00  0.00    +0.000 C 
ATOM     21  C   UNL     1      -3.808   6.457 129.420  0.00  0.00    +0.000 C 
ATOM     22  C   UNL     1      -2.335   6.361 128.392  0.00  0.00    +0.000 C 
ENDROOT
BRANCH   5  23
ATOM     23  C   UNL     1      -7.650   2.530 128.954  0.00  0.00    +0.000 C 
ATOM     24  O   UNL     1      -8.260   3.396 129.620  0.00  0.00    +0.000 OA
BRANCH  23  25
ATOM     25  C   UNL     1      -8.339   1.199 129.181  0.00  0.00    +0.000 C 
ATOM     26 CL   UNL     1      -7.512   0.251 130.682  0.00  0.00    +0.000 Cl
ENDBRANCH  23  25
ENDBRANCH   5  23
BRANCH   9  27
ATOM     27  O   UNL     1      -4.370   5.909 126.603  0.00  0.00    +0.000 OA
ATOM     28  H   UNL     1      -3.638   5.391 126.223  0.00  0.00    +0.000 HD
ENDBRANCH   9  27
BRANCH   5  29
ATOM     29  O   UNL     1      -7.445   3.046 126.954  0.00  0.00    +0.000 OA
BRANCH  29  30
ATOM     30  C   UNL     1      -8.006   4.137 126.156  0.00  0.00    +0.000 C 
ATOM     31  O   UNL     1      -8.552   5.162 126.553  0.00  0.00    +0.000 OA
BRANCH  30  32
ATOM     32  C   UNL     1      -8.414   3.523 124.963  0.00  0.00    +0.000 A 
ATOM     33  C   UNL     1      -8.904   2.252 125.015  0.00  0.00    +0.000 A 
ATOM     34  C   UNL     1      -8.535   1.698 123.788  0.00  0.00    +0.000 A 
ATOM     35  C   UNL     1      -8.246   2.771 122.970  0.00  0.00    +0.000 A 
ATOM     36  O   UNL     1      -8.120   3.918 123.707  0.00  0.00    +0.000 OA
ENDBRANCH  30  32
ENDBRANCH  29  30
ENDBRANCH   5  29
TORSDOF 6
ENDMDL
