MODEL 1
REMARK VINA RESULT:      -4.7      0.000      0.000
REMARK  Name = Monomethyl fumarate
REMARK  5 active torsions:
REMARK  status: ('A' for Active; 'I' for Inactive)
REMARK    1  A    between atoms: C_1  and  O_2
REMARK    2  A    between atoms: O_2  and  C_3
REMARK    3  A    between atoms: C_3  and  C_5
REMARK    4  A    between atoms: C_6  and  C_7
REMARK    5  A    between atoms: C_7  and  O_8
REMARK                            x       y       z     vdW  Elec       q    Type
REMARK                         _______ _______ _______ _____ _____    ______ ____
ROOT
ATOM      1  C   UNL     1     -11.486   8.539 128.500  0.00  0.00    +0.000 C 
ATOM      2  C   UNL     1     -11.787   7.923 127.345  0.00  0.00    +0.000 C 
ENDROOT
BRANCH   1   3
ATOM      3  C   UNL     1     -12.572   8.910 129.443  0.00  0.00    +0.000 C 
ATOM      4  O   UNL     1     -12.760   8.377 130.526  0.00  0.00    +0.000 OA
BRANCH   3   6
ATOM      5  C   UNL     1     -13.571  11.002 129.820  0.00  0.00    +0.000 C 
ATOM      6  O   UNL     1     -13.307   9.920 128.911  0.00  0.00    +0.000 OA
ENDBRANCH   3   6
ENDBRANCH   1   3
BRANCH   2   7
ATOM      7  C   UNL     1     -10.866   7.473 126.280  0.00  0.00    +0.000 C 
ATOM      8  O   UNL     1     -10.147   6.498 126.439  0.00  0.00    +0.000 OA
BRANCH   7   9
ATOM      9  O   UNL     1     -10.861   8.183 125.139  0.00  0.00    +0.000 OA
ATOM     10  H   UNL     1     -10.835   9.149 125.204  0.00  0.00    +0.000 HD
ENDBRANCH   7   9
ENDBRANCH   2   7
TORSDOF 4
ENDMDL
MODEL 2
REMARK VINA RESULT:      -4.6      0.949      1.682
REMARK  Name = Monomethyl fumarate
REMARK  5 active torsions:
REMARK  status: ('A' for Active; 'I' for Inactive)
REMARK    1  A    between atoms: C_1  and  O_2
REMARK    2  A    between atoms: O_2  and  C_3
REMARK    3  A    between atoms: C_3  and  C_5
REMARK    4  A    between atoms: C_6  and  C_7
REMARK    5  A    between atoms: C_7  and  O_8
REMARK                            x       y       z     vdW  Elec       q    Type
REMARK                         _______ _______ _______ _____ _____    ______ ____
ROOT
ATOM      1  C   UNL     1     -11.567   8.669 128.323  0.00  0.00    +0.000 C 
ATOM      2  C   UNL     1     -11.698   7.701 127.401  0.00  0.00    +0.000 C 
ENDROOT
BRANCH   1   3
ATOM      3  C   UNL     1     -12.610   8.840 129.366  0.00  0.00    +0.000 C 
ATOM      4  O   UNL     1     -12.993   9.919 129.792  0.00  0.00    +0.000 OA
BRANCH   3   6
ATOM      5  C   UNL     1     -12.727   7.282 131.120  0.00  0.00    +0.000 C 
ATOM      6  O   UNL     1     -13.057   7.620 129.763  0.00  0.00    +0.000 OA
ENDBRANCH   3   6
ENDBRANCH   1   3
BRANCH   2   7
ATOM      7  C   UNL     1     -10.784   7.365 126.289  0.00  0.00    +0.000 C 
ATOM      8  O   UNL     1     -10.032   6.404 126.360  0.00  0.00    +0.000 OA
BRANCH   7   9
ATOM      9  O   UNL     1     -10.820   8.162 125.208  0.00  0.00    +0.000 OA
ATOM     10  H   UNL     1     -11.673   8.543 124.951  0.00  0.00    +0.000 HD
ENDBRANCH   7   9
ENDBRANCH   2   7
TORSDOF 4
ENDMDL
MODEL 3
REMARK VINA RESULT:      -4.5      1.646      4.345
REMARK  Name = Monomethyl fumarate
REMARK  5 active torsions:
REMARK  status: ('A' for Active; 'I' for Inactive)
REMARK    1  A    between atoms: C_1  and  O_2
REMARK    2  A    between atoms: O_2  and  C_3
REMARK    3  A    between atoms: C_3  and  C_5
REMARK    4  A    between atoms: C_6  and  C_7
REMARK    5  A    between atoms: C_7  and  O_8
REMARK                            x       y       z     vdW  Elec       q    Type
REMARK                         _______ _______ _______ _____ _____    ______ ____
ROOT
ATOM      1  C   UNL     1     -13.301   8.107 128.451  0.00  0.00    +0.000 C 
ATOM      2  C   UNL     1     -12.742   9.100 129.161  0.00  0.00    +0.000 C 
ENDROOT
BRANCH   1   3
ATOM      3  C   UNL     1     -12.525   6.871 128.173  0.00  0.00    +0.000 C 
ATOM      4  O   UNL     1     -12.163   6.074 129.025  0.00  0.00    +0.000 OA
BRANCH   3   6
ATOM      5  C   UNL     1     -11.094   7.445 126.401  0.00  0.00    +0.000 C 
ATOM      6  O   UNL     1     -12.289   6.777 126.838  0.00  0.00    +0.000 OA
ENDBRANCH   3   6
ENDBRANCH   1   3
BRANCH   2   7
ATOM      7  C   UNL     1     -13.335  10.398 129.545  0.00  0.00    +0.000 C 
ATOM      8  O   UNL     1     -13.346  10.765 130.711  0.00  0.00    +0.000 OA
BRANCH   7   9
ATOM      9  O   UNL     1     -13.856  11.145 128.558  0.00  0.00    +0.000 OA
ATOM     10  H   UNL     1     -14.177  12.032 128.779  0.00  0.00    +0.000 HD
ENDBRANCH   7   9
ENDBRANCH   2   7
TORSDOF 4
ENDMDL
MODEL 4
REMARK VINA RESULT:      -4.3      2.435      4.466
REMARK  Name = Monomethyl fumarate
REMARK  5 active torsions:
REMARK  status: ('A' for Active; 'I' for Inactive)
REMARK    1  A    between atoms: C_1  and  O_2
REMARK    2  A    between atoms: O_2  and  C_3
REMARK    3  A    between atoms: C_3  and  C_5
REMARK    4  A    between atoms: C_6  and  C_7
REMARK    5  A    between atoms: C_7  and  O_8
REMARK                            x       y       z     vdW  Elec       q    Type
REMARK                         _______ _______ _______ _____ _____    ______ ____
ROOT
ATOM      1  C   UNL     1     -13.046   8.219 129.132  0.00  0.00    +0.000 C 
ATOM      2  C   UNL     1     -12.910   9.284 129.939  0.00  0.00    +0.000 C 
ENDROOT
BRANCH   1   3
ATOM      3  C   UNL     1     -12.457   6.914 129.527  0.00  0.00    +0.000 C 
ATOM      4  O   UNL     1     -11.937   6.126 128.752  0.00  0.00    +0.000 OA
BRANCH   3   6
ATOM      5  C   UNL     1     -11.392   6.321 131.535  0.00  0.00    +0.000 C 
ATOM      6  O   UNL     1     -12.592   6.745 130.868  0.00  0.00    +0.000 OA
ENDBRANCH   3   6
ENDBRANCH   1   3
BRANCH   2   7
ATOM      7  C   UNL     1     -13.415  10.658 129.735  0.00  0.00    +0.000 C 
ATOM      8  O   UNL     1     -13.417  11.471 130.648  0.00  0.00    +0.000 OA
BRANCH   7   9
ATOM      9  O   UNL     1     -13.867  10.965 128.507  0.00  0.00    +0.000 OA
ATOM     10  H   UNL     1     -13.237  11.325 127.866  0.00  0.00    +0.000 HD
ENDBRANCH   7   9
ENDBRANCH   2   7
TORSDOF 4
ENDMDL
MODEL 5
REMARK VINA RESULT:      -4.2      2.299      3.183
REMARK  Name = Monomethyl fumarate
REMARK  5 active torsions:
REMARK  status: ('A' for Active; 'I' for Inactive)
REMARK    1  A    between atoms: C_1  and  O_2
REMARK    2  A    between atoms: O_2  and  C_3
REMARK    3  A    between atoms: C_3  and  C_5
REMARK    4  A    between atoms: C_6  and  C_7
REMARK    5  A    between atoms: C_7  and  O_8
REMARK                            x       y       z     vdW  Elec       q    Type
REMARK                         _______ _______ _______ _____ _____    ______ ____
ROOT
ATOM      1  C   UNL     1     -11.430   7.292 129.820  0.00  0.00    +0.000 C 
ATOM      2  C   UNL     1     -12.059   7.129 128.644  0.00  0.00    +0.000 C 
ENDROOT
BRANCH   1   3
ATOM      3  C   UNL     1     -12.111   6.905 131.082  0.00  0.00    +0.000 C 
ATOM      4  O   UNL     1     -13.254   7.221 131.376  0.00  0.00    +0.000 OA
BRANCH   3   6
ATOM      5  C   UNL     1      -9.875   6.360 131.549  0.00  0.00    +0.000 C 
ATOM      6  O   UNL     1     -11.268   6.157 131.839  0.00  0.00    +0.000 OA
ENDBRANCH   3   6
ENDBRANCH   1   3
BRANCH   2   7
ATOM      7  C   UNL     1     -11.563   7.445 127.289  0.00  0.00    +0.000 C 
ATOM      8  O   UNL     1     -10.885   8.441 127.082  0.00  0.00    +0.000 OA
BRANCH   7   9
ATOM      9  O   UNL     1     -11.893   6.592 126.304  0.00  0.00    +0.000 OA
ATOM     10  H   UNL     1     -11.451   6.691 125.448  0.00  0.00    +0.000 HD
ENDBRANCH   7   9
ENDBRANCH   2   7
TORSDOF 4
ENDMDL
MODEL 6
REMARK VINA RESULT:      -4.1      2.437      4.169
REMARK  Name = Monomethyl fumarate
REMARK  5 active torsions:
REMARK  status: ('A' for Active; 'I' for Inactive)
REMARK    1  A    between atoms: C_1  and  O_2
REMARK    2  A    between atoms: O_2  and  C_3
REMARK    3  A    between atoms: C_3  and  C_5
REMARK    4  A    between atoms: C_6  and  C_7
REMARK    5  A    between atoms: C_7  and  O_8
REMARK                            x       y       z     vdW  Elec       q    Type
REMARK                         _______ _______ _______ _____ _____    ______ ____
ROOT
ATOM      1  C   UNL     1     -12.005   7.814 129.675  0.00  0.00    +0.000 C 
ATOM      2  C   UNL     1     -12.188   7.316 130.909  0.00  0.00    +0.000 C 
ENDROOT
BRANCH   1   3
ATOM      3  C   UNL     1     -12.929   8.855 129.155  0.00  0.00    +0.000 C 
ATOM      4  O   UNL     1     -13.046   9.975 129.628  0.00  0.00    +0.000 OA
BRANCH   3   6
ATOM      5  C   UNL     1     -12.923   7.317 127.380  0.00  0.00    +0.000 C 
ATOM      6  O   UNL     1     -13.609   8.363 128.088  0.00  0.00    +0.000 OA
ENDBRANCH   3   6
ENDBRANCH   1   3
BRANCH   2   7
ATOM      7  C   UNL     1     -11.392   6.287 131.609  0.00  0.00    +0.000 C 
ATOM      8  O   UNL     1     -10.718   6.569 132.588  0.00  0.00    +0.000 OA
BRANCH   7   9
ATOM      9  O   UNL     1     -11.445   5.037 131.118  0.00  0.00    +0.000 OA
ATOM     10  H   UNL     1     -12.161   4.459 131.420  0.00  0.00    +0.000 HD
ENDBRANCH   7   9
ENDBRANCH   2   7
TORSDOF 4
ENDMDL
MODEL 7
REMARK VINA RESULT:      -4.1      2.697      3.547
REMARK  Name = Monomethyl fumarate
REMARK  5 active torsions:
REMARK  status: ('A' for Active; 'I' for Inactive)
REMARK    1  A    between atoms: C_1  and  O_2
REMARK    2  A    between atoms: O_2  and  C_3
REMARK    3  A    between atoms: C_3  and  C_5
REMARK    4  A    between atoms: C_6  and  C_7
REMARK    5  A    between atoms: C_7  and  O_8
REMARK                            x       y       z     vdW  Elec       q    Type
REMARK                         _______ _______ _______ _____ _____    ______ ____
ROOT
ATOM      1  C   UNL     1     -10.981   6.772 129.433  0.00  0.00    +0.000 C 
ATOM      2  C   UNL     1     -11.205   7.397 128.265  0.00  0.00    +0.000 C 
ENDROOT
BRANCH   1   3
ATOM      3  C   UNL     1      -9.798   7.139 130.252  0.00  0.00    +0.000 C 
ATOM      4  O   UNL     1      -8.806   7.706 129.820  0.00  0.00    +0.000 OA
BRANCH   3   6
ATOM      5  C   UNL     1     -11.348   6.356 131.832  0.00  0.00    +0.000 C 
ATOM      6  O   UNL     1      -9.998   6.747 131.536  0.00  0.00    +0.000 OA
ENDBRANCH   3   6
ENDBRANCH   1   3
BRANCH   2   7
ATOM      7  C   UNL     1     -12.312   7.184 127.310  0.00  0.00    +0.000 C 
ATOM      8  O   UNL     1     -13.466   7.452 127.612  0.00  0.00    +0.000 OA
BRANCH   7   9
ATOM      9  O   UNL     1     -11.989   6.686 126.104  0.00  0.00    +0.000 OA
ATOM     10  H   UNL     1     -11.225   6.093 126.046  0.00  0.00    +0.000 HD
ENDBRANCH   7   9
ENDBRANCH   2   7
TORSDOF 4
ENDMDL
MODEL 8
REMARK VINA RESULT:      -4.0      9.403     10.770
REMARK  Name = Monomethyl fumarate
REMARK  5 active torsions:
REMARK  status: ('A' for Active; 'I' for Inactive)
REMARK    1  A    between atoms: C_1  and  O_2
REMARK    2  A    between atoms: O_2  and  C_3
REMARK    3  A    between atoms: C_3  and  C_5
REMARK    4  A    between atoms: C_6  and  C_7
REMARK    5  A    between atoms: C_7  and  O_8
REMARK                            x       y       z     vdW  Elec       q    Type
REMARK                         _______ _______ _______ _____ _____    ______ ____
ROOT
ATOM      1  C   UNL     1      -5.879   4.135 120.792  0.00  0.00    +0.000 C 
ATOM      2  C   UNL     1      -5.790   4.117 122.132  0.00  0.00    +0.000 C 
ENDROOT
BRANCH   1   3
ATOM      3  C   UNL     1      -5.353   5.299 120.033  0.00  0.00    +0.000 C 
ATOM      4  O   UNL     1      -4.565   6.118 120.480  0.00  0.00    +0.000 OA
BRANCH   3   6
ATOM      5  C   UNL     1      -7.154   4.633 118.680  0.00  0.00    +0.000 C 
ATOM      6  O   UNL     1      -5.886   5.301 118.784  0.00  0.00    +0.000 OA
ENDBRANCH   3   6
ENDBRANCH   1   3
BRANCH   2   7
ATOM      7  C   UNL     1      -6.245   3.066 123.066  0.00  0.00    +0.000 C 
ATOM      8  O   UNL     1      -6.814   2.064 122.659  0.00  0.00    +0.000 OA
BRANCH   7   9
ATOM      9  O   UNL     1      -6.005   3.267 124.373  0.00  0.00    +0.000 OA
ATOM     10  H   UNL     1      -5.117   3.071 124.709  0.00  0.00    +0.000 HD
ENDBRANCH   7   9
ENDBRANCH   2   7
TORSDOF 4
ENDMDL
MODEL 9
REMARK VINA RESULT:      -4.0      2.605      4.168
REMARK  Name = Monomethyl fumarate
REMARK  5 active torsions:
REMARK  status: ('A' for Active; 'I' for Inactive)
REMARK    1  A    between atoms: C_1  and  O_2
REMARK    2  A    between atoms: O_2  and  C_3
REMARK    3  A    between atoms: C_3  and  C_5
REMARK    4  A    between atoms: C_6  and  C_7
REMARK    5  A    between atoms: C_7  and  O_8
REMARK                            x       y       z     vdW  Elec       q    Type
REMARK                         _______ _______ _______ _____ _____    ______ ____
ROOT
ATOM      1  C   UNL     1     -10.725   7.917 129.113  0.00  0.00    +0.000 C 
ATOM      2  C   UNL     1     -11.945   8.300 129.522  0.00  0.00    +0.000 C 
ENDROOT
BRANCH   1   3
ATOM      3  C   UNL     1      -9.817   7.214 130.056  0.00  0.00    +0.000 C 
ATOM      4  O   UNL     1      -8.632   7.475 130.201  0.00  0.00    +0.000 OA
BRANCH   3   6
ATOM      5  C   UNL     1     -10.137   6.096 132.097  0.00  0.00    +0.000 C 
ATOM      6  O   UNL     1     -10.510   6.251 130.717  0.00  0.00    +0.000 OA
ENDBRANCH   3   6
ENDBRANCH   1   3
BRANCH   2   7
ATOM      7  C   UNL     1     -12.990   9.003 128.750  0.00  0.00    +0.000 C 
ATOM      8  O   UNL     1     -13.728   8.395 127.989  0.00  0.00    +0.000 OA
BRANCH   7   9
ATOM      9  O   UNL     1     -13.087  10.332 128.925  0.00  0.00    +0.000 OA
ATOM     10  H   UNL     1     -12.316  10.803 129.273  0.00  0.00    +0.000 HD
ENDBRANCH   7   9
ENDBRANCH   2   7
TORSDOF 4
ENDMDL
