MODEL 1
REMARK VINA RESULT:      -6.3      0.000      0.000
REMARK  Name = Monobenzone
REMARK  4 active torsions:
REMARK  status: ('A' for Active; 'I' for Inactive)
REMARK    1  A    between atoms: O_1  and  C_2
REMARK    2  A    between atoms: C_5  and  O_6
REMARK    3  A    between atoms: O_6  and  C_7
REMARK    4  A    between atoms: C_7  and  C_8
REMARK                            x       y       z     vdW  Elec       q    Type
REMARK                         _______ _______ _______ _____ _____    ______ ____
ROOT
ATOM      1  C   UNL     1      -7.769  -2.945 128.965  0.00  0.00    +0.000 A 
ATOM      2  C   UNL     1      -8.635  -3.881 128.408  0.00  0.00    +0.000 A 
ATOM      3  C   UNL     1      -9.218  -3.612 127.168  0.00  0.00    +0.000 A 
ATOM      4  C   UNL     1      -8.939  -2.420 126.491  0.00  0.00    +0.000 A 
ATOM      5  C   UNL     1      -8.057  -1.500 127.059  0.00  0.00    +0.000 A 
ATOM      6  C   UNL     1      -7.473  -1.765 128.298  0.00  0.00    +0.000 A 
ENDROOT
BRANCH   1   7
ATOM      7  O   UNL     1      -7.186  -3.148 130.179  0.00  0.00    +0.000 OA
ATOM      8  H   UNL     1      -6.875  -2.294 130.520  0.00  0.00    +0.000 HD
ENDBRANCH   1   7
BRANCH   4   9
ATOM      9  O   UNL     1      -9.587  -2.267 125.300  0.00  0.00    +0.000 OA
BRANCH   9  10
ATOM     10  C   UNL     1      -9.283  -3.208 124.269  0.00  0.00    +0.000 C 
BRANCH  10  11
ATOM     11  C   UNL     1      -7.845  -3.072 123.818  0.00  0.00    +0.000 A 
ATOM     12  C   UNL     1      -6.829  -3.894 124.326  0.00  0.00    +0.000 A 
ATOM     13  C   UNL     1      -5.497  -3.666 123.986  0.00  0.00    +0.000 A 
ATOM     14  C   UNL     1      -5.169  -2.654 123.090  0.00  0.00    +0.000 A 
ATOM     15  C   UNL     1      -6.172  -1.859 122.538  0.00  0.00    +0.000 A 
ATOM     16  C   UNL     1      -7.503  -2.062 122.905  0.00  0.00    +0.000 A 
ENDBRANCH  10  11
ENDBRANCH   9  10
ENDBRANCH   4   9
TORSDOF 4
ENDMDL
MODEL 2
REMARK VINA RESULT:      -6.2      9.397     11.113
REMARK  Name = Monobenzone
REMARK  4 active torsions:
REMARK  status: ('A' for Active; 'I' for Inactive)
REMARK    1  A    between atoms: O_1  and  C_2
REMARK    2  A    between atoms: C_5  and  O_6
REMARK    3  A    between atoms: O_6  and  C_7
REMARK    4  A    between atoms: C_7  and  C_8
REMARK                            x       y       z     vdW  Elec       q    Type
REMARK                         _______ _______ _______ _____ _____    ______ ____
ROOT
ATOM      1  C   UNL     1      -8.755   4.874 131.212  0.00  0.00    +0.000 A 
ATOM      2  C   UNL     1      -9.065   5.915 132.081  0.00  0.00    +0.000 A 
ATOM      3  C   UNL     1     -10.374   6.400 132.121  0.00  0.00    +0.000 A 
ATOM      4  C   UNL     1     -11.363   5.850 131.300  0.00  0.00    +0.000 A 
ATOM      5  C   UNL     1     -11.038   4.797 130.444  0.00  0.00    +0.000 A 
ATOM      6  C   UNL     1      -9.732   4.310 130.402  0.00  0.00    +0.000 A 
ENDROOT
BRANCH   1   7
ATOM      7  O   UNL     1      -7.492   4.373 131.121  0.00  0.00    +0.000 OA
ATOM      8  H   UNL     1      -7.243   4.003 131.983  0.00  0.00    +0.000 HD
ENDBRANCH   1   7
BRANCH   4   9
ATOM      9  O   UNL     1     -12.596   6.426 131.416  0.00  0.00    +0.000 OA
BRANCH   9  10
ATOM     10  C   UNL     1     -12.762   7.726 130.847  0.00  0.00    +0.000 C 
BRANCH  10  11
ATOM     11  C   UNL     1     -12.419   7.720 129.373  0.00  0.00    +0.000 A 
ATOM     12  C   UNL     1     -13.246   7.104 128.424  0.00  0.00    +0.000 A 
ATOM     13  C   UNL     1     -12.846   7.007 127.092  0.00  0.00    +0.000 A 
ATOM     14  C   UNL     1     -11.645   7.576 126.681  0.00  0.00    +0.000 A 
ATOM     15  C   UNL     1     -10.833   8.234 127.605  0.00  0.00    +0.000 A 
ATOM     16  C   UNL     1     -11.216   8.301 128.945  0.00  0.00    +0.000 A 
ENDBRANCH  10  11
ENDBRANCH   9  10
ENDBRANCH   4   9
TORSDOF 4
ENDMDL
MODEL 3
REMARK VINA RESULT:      -6.0      4.920      7.352
REMARK  Name = Monobenzone
REMARK  4 active torsions:
REMARK  status: ('A' for Active; 'I' for Inactive)
REMARK    1  A    between atoms: O_1  and  C_2
REMARK    2  A    between atoms: C_5  and  O_6
REMARK    3  A    between atoms: O_6  and  C_7
REMARK    4  A    between atoms: C_7  and  C_8
REMARK                            x       y       z     vdW  Elec       q    Type
REMARK                         _______ _______ _______ _____ _____    ______ ____
ROOT
ATOM      1  C   UNL     1      -7.220   4.164 119.934  0.00  0.00    +0.000 A 
ATOM      2  C   UNL     1      -8.423   3.846 120.554  0.00  0.00    +0.000 A 
ATOM      3  C   UNL     1      -8.399   3.217 121.800  0.00  0.00    +0.000 A 
ATOM      4  C   UNL     1      -7.184   2.907 122.420  0.00  0.00    +0.000 A 
ATOM      5  C   UNL     1      -5.986   3.246 121.790  0.00  0.00    +0.000 A 
ATOM      6  C   UNL     1      -6.007   3.876 120.545  0.00  0.00    +0.000 A 
ENDROOT
BRANCH   1   7
ATOM      7  O   UNL     1      -7.184   4.764 118.711  0.00  0.00    +0.000 OA
ATOM      8  H   UNL     1      -6.394   5.325 118.665  0.00  0.00    +0.000 HD
ENDBRANCH   1   7
BRANCH   4   9
ATOM      9  O   UNL     1      -7.295   2.273 123.624  0.00  0.00    +0.000 OA
BRANCH   9  10
ATOM     10  C   UNL     1      -7.984   1.021 123.638  0.00  0.00    +0.000 C 
BRANCH  10  11
ATOM     11  C   UNL     1      -7.015  -0.128 123.812  0.00  0.00    +0.000 A 
ATOM     12  C   UNL     1      -6.843  -1.106 122.821  0.00  0.00    +0.000 A 
ATOM     13  C   UNL     1      -6.036  -2.218 123.057  0.00  0.00    +0.000 A 
ATOM     14  C   UNL     1      -5.347  -2.337 124.259  0.00  0.00    +0.000 A 
ATOM     15  C   UNL     1      -5.470  -1.349 125.236  0.00  0.00    +0.000 A 
ATOM     16  C   UNL     1      -6.305  -0.253 125.015  0.00  0.00    +0.000 A 
ENDBRANCH  10  11
ENDBRANCH   9  10
ENDBRANCH   4   9
TORSDOF 4
ENDMDL
MODEL 4
REMARK VINA RESULT:      -6.0      5.398      7.990
REMARK  Name = Monobenzone
REMARK  4 active torsions:
REMARK  status: ('A' for Active; 'I' for Inactive)
REMARK    1  A    between atoms: O_1  and  C_2
REMARK    2  A    between atoms: C_5  and  O_6
REMARK    3  A    between atoms: O_6  and  C_7
REMARK    4  A    between atoms: C_7  and  C_8
REMARK                            x       y       z     vdW  Elec       q    Type
REMARK                         _______ _______ _______ _____ _____    ______ ____
ROOT
ATOM      1  C   UNL     1      -6.066   4.763 119.682  0.00  0.00    +0.000 A 
ATOM      2  C   UNL     1      -5.368   4.432 120.838  0.00  0.00    +0.000 A 
ATOM      3  C   UNL     1      -6.032   3.755 121.863  0.00  0.00    +0.000 A 
ATOM      4  C   UNL     1      -7.382   3.413 121.733  0.00  0.00    +0.000 A 
ATOM      5  C   UNL     1      -8.063   3.740 120.560  0.00  0.00    +0.000 A 
ATOM      6  C   UNL     1      -7.402   4.416 119.535  0.00  0.00    +0.000 A 
ENDROOT
BRANCH   1   7
ATOM      7  O   UNL     1      -5.471   5.437 118.658  0.00  0.00    +0.000 OA
ATOM      8  H   UNL     1      -4.752   5.979 119.022  0.00  0.00    +0.000 HD
ENDBRANCH   1   7
BRANCH   4   9
ATOM      9  O   UNL     1      -7.922   2.773 122.812  0.00  0.00    +0.000 OA
BRANCH   9  10
ATOM     10  C   UNL     1      -7.080   1.854 123.510  0.00  0.00    +0.000 C 
BRANCH  10  11
ATOM     11  C   UNL     1      -7.544   0.428 123.302  0.00  0.00    +0.000 A 
ATOM     12  C   UNL     1      -6.638  -0.625 123.122  0.00  0.00    +0.000 A 
ATOM     13  C   UNL     1      -7.093  -1.906 122.810  0.00  0.00    +0.000 A 
ATOM     14  C   UNL     1      -8.458  -2.161 122.734  0.00  0.00    +0.000 A 
ATOM     15  C   UNL     1      -9.374  -1.134 122.958  0.00  0.00    +0.000 A 
ATOM     16  C   UNL     1      -8.919   0.156 123.235  0.00  0.00    +0.000 A 
ENDBRANCH  10  11
ENDBRANCH   9  10
ENDBRANCH   4   9
TORSDOF 4
ENDMDL
MODEL 5
REMARK VINA RESULT:      -6.0      9.512     11.836
REMARK  Name = Monobenzone
REMARK  4 active torsions:
REMARK  status: ('A' for Active; 'I' for Inactive)
REMARK    1  A    between atoms: O_1  and  C_2
REMARK    2  A    between atoms: C_5  and  O_6
REMARK    3  A    between atoms: O_6  and  C_7
REMARK    4  A    between atoms: C_7  and  C_8
REMARK                            x       y       z     vdW  Elec       q    Type
REMARK                         _______ _______ _______ _____ _____    ______ ____
ROOT
ATOM      1  C   UNL     1     -12.559   9.031 129.200  0.00  0.00    +0.000 A 
ATOM      2  C   UNL     1     -12.795   8.375 130.404  0.00  0.00    +0.000 A 
ATOM      3  C   UNL     1     -12.297   7.083 130.583  0.00  0.00    +0.000 A 
ATOM      4  C   UNL     1     -11.571   6.452 129.568  0.00  0.00    +0.000 A 
ATOM      5  C   UNL     1     -11.331   7.130 128.372  0.00  0.00    +0.000 A 
ATOM      6  C   UNL     1     -11.827   8.421 128.190  0.00  0.00    +0.000 A 
ENDROOT
BRANCH   1   7
ATOM      7  O   UNL     1     -13.036  10.286 128.966  0.00  0.00    +0.000 OA
ATOM      8  H   UNL     1     -12.648  10.614 128.139  0.00  0.00    +0.000 HD
ENDBRANCH   1   7
BRANCH   4   9
ATOM      9  O   UNL     1     -11.158   5.184 129.857  0.00  0.00    +0.000 OA
BRANCH   9  10
ATOM     10  C   UNL     1      -9.755   4.983 130.044  0.00  0.00    +0.000 C 
BRANCH  10  11
ATOM     11  C   UNL     1      -9.428   4.771 131.506  0.00  0.00    +0.000 A 
ATOM     12  C   UNL     1      -8.978   5.818 132.322  0.00  0.00    +0.000 A 
ATOM     13  C   UNL     1      -8.568   5.569 133.631  0.00  0.00    +0.000 A 
ATOM     14  C   UNL     1      -8.659   4.285 134.158  0.00  0.00    +0.000 A 
ATOM     15  C   UNL     1      -9.151   3.242 133.374  0.00  0.00    +0.000 A 
ATOM     16  C   UNL     1      -9.528   3.482 132.052  0.00  0.00    +0.000 A 
ENDBRANCH  10  11
ENDBRANCH   9  10
ENDBRANCH   4   9
TORSDOF 4
ENDMDL
MODEL 6
REMARK VINA RESULT:      -6.0      6.218      8.923
REMARK  Name = Monobenzone
REMARK  4 active torsions:
REMARK  status: ('A' for Active; 'I' for Inactive)
REMARK    1  A    between atoms: O_1  and  C_2
REMARK    2  A    between atoms: C_5  and  O_6
REMARK    3  A    between atoms: O_6  and  C_7
REMARK    4  A    between atoms: C_7  and  C_8
REMARK                            x       y       z     vdW  Elec       q    Type
REMARK                         _______ _______ _______ _____ _____    ______ ____
ROOT
ATOM      1  C   UNL     1      -6.032   5.357 118.861  0.00  0.00    +0.000 A 
ATOM      2  C   UNL     1      -7.230   4.663 118.994  0.00  0.00    +0.000 A 
ATOM      3  C   UNL     1      -7.453   3.906 120.145  0.00  0.00    +0.000 A 
ATOM      4  C   UNL     1      -6.487   3.842 121.155  0.00  0.00    +0.000 A 
ATOM      5  C   UNL     1      -5.296   4.556 121.011  0.00  0.00    +0.000 A 
ATOM      6  C   UNL     1      -5.071   5.313 119.861  0.00  0.00    +0.000 A 
ENDROOT
BRANCH   1   7
ATOM      7  O   UNL     1      -5.756   6.098 117.751  0.00  0.00    +0.000 OA
ATOM      8  H   UNL     1      -5.946   7.030 117.947  0.00  0.00    +0.000 HD
ENDBRANCH   1   7
BRANCH   4   9
ATOM      9  O   UNL     1      -6.814   3.052 122.218  0.00  0.00    +0.000 OA
BRANCH   9  10
ATOM     10  C   UNL     1      -8.205   2.894 122.507  0.00  0.00    +0.000 C 
BRANCH  10  11
ATOM     11  C   UNL     1      -8.427   1.790 123.517  0.00  0.00    +0.000 A 
ATOM     12  C   UNL     1      -7.611   0.651 123.558  0.00  0.00    +0.000 A 
ATOM     13  C   UNL     1      -7.912  -0.406 124.417  0.00  0.00    +0.000 A 
ATOM     14  C   UNL     1      -8.994  -0.312 125.285  0.00  0.00    +0.000 A 
ATOM     15  C   UNL     1      -9.788   0.835 125.290  0.00  0.00    +0.000 A 
ATOM     16  C   UNL     1      -9.509   1.878 124.406  0.00  0.00    +0.000 A 
ENDBRANCH  10  11
ENDBRANCH   9  10
ENDBRANCH   4   9
TORSDOF 4
ENDMDL
MODEL 7
REMARK VINA RESULT:      -5.9      3.034      4.413
REMARK  Name = Monobenzone
REMARK  4 active torsions:
REMARK  status: ('A' for Active; 'I' for Inactive)
REMARK    1  A    between atoms: O_1  and  C_2
REMARK    2  A    between atoms: C_5  and  O_6
REMARK    3  A    between atoms: O_6  and  C_7
REMARK    4  A    between atoms: C_7  and  C_8
REMARK                            x       y       z     vdW  Elec       q    Type
REMARK                         _______ _______ _______ _____ _____    ______ ____
ROOT
ATOM      1  C   UNL     1      -8.584   2.706 124.221  0.00  0.00    +0.000 A 
ATOM      2  C   UNL     1      -8.240   1.983 125.358  0.00  0.00    +0.000 A 
ATOM      3  C   UNL     1      -8.570   0.628 125.427  0.00  0.00    +0.000 A 
ATOM      4  C   UNL     1      -9.238   0.002 124.370  0.00  0.00    +0.000 A 
ATOM      5  C   UNL     1      -9.562   0.739 123.230  0.00  0.00    +0.000 A 
ATOM      6  C   UNL     1      -9.234   2.093 123.159  0.00  0.00    +0.000 A 
ENDROOT
BRANCH   1   7
ATOM      7  O   UNL     1      -8.301   4.034 124.108  0.00  0.00    +0.000 OA
ATOM      8  H   UNL     1      -7.336   4.143 124.078  0.00  0.00    +0.000 HD
ENDBRANCH   1   7
BRANCH   4   9
ATOM      9  O   UNL     1      -9.523  -1.319 124.568  0.00  0.00    +0.000 OA
BRANCH   9  10
ATOM     10  C   UNL     1      -9.252  -2.211 123.485  0.00  0.00    +0.000 C 
BRANCH  10  11
ATOM     11  C   UNL     1      -7.782  -2.568 123.432  0.00  0.00    +0.000 A 
ATOM     12  C   UNL     1      -7.212  -3.490 124.321  0.00  0.00    +0.000 A 
ATOM     13  C   UNL     1      -5.835  -3.708 124.330  0.00  0.00    +0.000 A 
ATOM     14  C   UNL     1      -5.020  -3.053 123.413  0.00  0.00    +0.000 A 
ATOM     15  C   UNL     1      -5.577  -2.168 122.490  0.00  0.00    +0.000 A 
ATOM     16  C   UNL     1      -6.951  -1.922 122.504  0.00  0.00    +0.000 A 
ENDBRANCH  10  11
ENDBRANCH   9  10
ENDBRANCH   4   9
TORSDOF 4
ENDMDL
MODEL 8
REMARK VINA RESULT:      -5.9      9.336     11.490
REMARK  Name = Monobenzone
REMARK  4 active torsions:
REMARK  status: ('A' for Active; 'I' for Inactive)
REMARK    1  A    between atoms: O_1  and  C_2
REMARK    2  A    between atoms: C_5  and  O_6
REMARK    3  A    between atoms: O_6  and  C_7
REMARK    4  A    between atoms: C_7  and  C_8
REMARK                            x       y       z     vdW  Elec       q    Type
REMARK                         _______ _______ _______ _____ _____    ______ ____
ROOT
ATOM      1  C   UNL     1     -12.242   7.318 126.750  0.00  0.00    +0.000 A 
ATOM      2  C   UNL     1     -13.264   6.869 127.578  0.00  0.00    +0.000 A 
ATOM      3  C   UNL     1     -13.149   7.049 128.958  0.00  0.00    +0.000 A 
ATOM      4  C   UNL     1     -12.022   7.671 129.505  0.00  0.00    +0.000 A 
ATOM      5  C   UNL     1     -11.012   8.128 128.657  0.00  0.00    +0.000 A 
ATOM      6  C   UNL     1     -11.124   7.950 127.278  0.00  0.00    +0.000 A 
ENDROOT
BRANCH   1   7
ATOM      7  O   UNL     1     -12.295   7.154 125.398  0.00  0.00    +0.000 OA
ATOM      8  H   UNL     1     -12.405   6.209 125.205  0.00  0.00    +0.000 HD
ENDBRANCH   1   7
BRANCH   4   9
ATOM      9  O   UNL     1     -12.019   7.766 130.866  0.00  0.00    +0.000 OA
BRANCH   9  10
ATOM     10  C   UNL     1     -11.904   6.547 131.603  0.00  0.00    +0.000 C 
BRANCH  10  11
ATOM     11  C   UNL     1     -10.586   5.861 131.313  0.00  0.00    +0.000 A 
ATOM     12  C   UNL     1      -9.358   6.452 131.640  0.00  0.00    +0.000 A 
ATOM     13  C   UNL     1      -8.159   5.855 131.252  0.00  0.00    +0.000 A 
ATOM     14  C   UNL     1      -8.172   4.633 130.587  0.00  0.00    +0.000 A 
ATOM     15  C   UNL     1      -9.385   4.009 130.297  0.00  0.00    +0.000 A 
ATOM     16  C   UNL     1     -10.587   4.623 130.653  0.00  0.00    +0.000 A 
ENDBRANCH  10  11
ENDBRANCH   9  10
ENDBRANCH   4   9
TORSDOF 4
ENDMDL
MODEL 9
REMARK VINA RESULT:      -5.9     11.031     12.111
REMARK  Name = Monobenzone
REMARK  4 active torsions:
REMARK  status: ('A' for Active; 'I' for Inactive)
REMARK    1  A    between atoms: O_1  and  C_2
REMARK    2  A    between atoms: C_5  and  O_6
REMARK    3  A    between atoms: O_6  and  C_7
REMARK    4  A    between atoms: C_7  and  C_8
REMARK                            x       y       z     vdW  Elec       q    Type
REMARK                         _______ _______ _______ _____ _____    ______ ____
ROOT
ATOM      1  C   UNL     1     -12.395   8.901 129.088  0.00  0.00    +0.000 A 
ATOM      2  C   UNL     1     -11.200   8.522 128.486  0.00  0.00    +0.000 A 
ATOM      3  C   UNL     1     -10.439   7.506 129.067  0.00  0.00    +0.000 A 
ATOM      4  C   UNL     1     -10.868   6.874 130.238  0.00  0.00    +0.000 A 
ATOM      5  C   UNL     1     -12.077   7.256 130.820  0.00  0.00    +0.000 A 
ATOM      6  C   UNL     1     -12.840   8.271 130.242  0.00  0.00    +0.000 A 
ENDROOT
BRANCH   1   7
ATOM      7  O   UNL     1     -13.169   9.897 128.573  0.00  0.00    +0.000 OA
ATOM      8  H   UNL     1     -13.844  10.134 129.229  0.00  0.00    +0.000 HD
ENDBRANCH   1   7
BRANCH   4   9
ATOM      9  O   UNL     1     -10.026   5.913 130.718  0.00  0.00    +0.000 OA
BRANCH   9  10
ATOM     10  C   UNL     1      -9.529   6.088 132.046  0.00  0.00    +0.000 C 
BRANCH  10  11
ATOM     11  C   UNL     1      -8.017   6.149 132.056  0.00  0.00    +0.000 A 
ATOM     12  C   UNL     1      -7.261   5.567 133.083  0.00  0.00    +0.000 A 
ATOM     13  C   UNL     1      -5.878   5.743 133.131  0.00  0.00    +0.000 A 
ATOM     14  C   UNL     1      -5.230   6.450 132.124  0.00  0.00    +0.000 A 
ATOM     15  C   UNL     1      -5.963   6.995 131.070  0.00  0.00    +0.000 A 
ATOM     16  C   UNL     1      -7.351   6.850 131.040  0.00  0.00    +0.000 A 
ENDBRANCH  10  11
ENDBRANCH   9  10
ENDBRANCH   4   9
TORSDOF 4
ENDMDL
