MODEL 1
REMARK VINA RESULT:      -8.8      0.000      0.000
REMARK  Name = Montelukast
REMARK  16 active torsions:
REMARK  status: ('A' for Active; 'I' for Inactive)
REMARK    1  A    between atoms: O_1  and  C_2
REMARK    2  A    between atoms: C_2  and  C_4
REMARK    3  A    between atoms: C_4  and  C_5
REMARK    4  A    between atoms: C_5  and  C_8
REMARK    5  A    between atoms: C_8  and  S_9
REMARK    6  A    between atoms: S_9  and  C_10
REMARK    7  A    between atoms: C_10  and  C_11
REMARK    8  A    between atoms: C_10  and  C_23
REMARK    9  A    between atoms: C_11  and  C_12
REMARK   10  A    between atoms: C_12  and  C_13
REMARK   11  A    between atoms: C_18  and  C_19
REMARK   12  A    between atoms: C_19  and  O_20
REMARK   13  A    between atoms: C_19  and  C_21
REMARK   14  A    between atoms: C_19  and  C_22
REMARK   15  A    between atoms: C_27  and  C_28
REMARK   16  A    between atoms: C_29  and  C_30
REMARK                            x       y       z     vdW  Elec       q    Type
REMARK                         _______ _______ _______ _____ _____    ______ ____
ROOT
ATOM      1  C   UNL     1      -9.823   5.494 131.713  0.00  0.00    +0.000 C 
ENDROOT
BRANCH   1   2
ATOM      2  C   UNL     1      -9.532   4.051 131.372  0.00  0.00    +0.000 A 
ATOM      3  C   UNL     1      -9.683   3.027 132.297  0.00  0.00    +0.000 A 
ATOM      4  C   UNL     1      -9.301   1.740 131.950  0.00  0.00    +0.000 A 
ATOM      5  C   UNL     1      -8.896   1.438 130.630  0.00  0.00    +0.000 A 
ATOM      6  C   UNL     1      -8.832   2.429 129.630  0.00  0.00    +0.000 A 
ATOM      7  C   UNL     1      -9.176   3.728 130.038  0.00  0.00    +0.000 A 
BRANCH   6   8
ATOM      8  C   UNL     1      -8.317   2.143 128.237  0.00  0.00    +0.000 C 
ATOM      9  C   UNL     1      -7.768   0.963 127.850  0.00  0.00    +0.000 C 
BRANCH   9  10
ATOM     10  C   UNL     1      -7.312   0.409 126.549  0.00  0.00    +0.000 A 
ATOM     11  N   UNL     1      -7.824  -0.765 126.162  0.00  0.00    +0.000 NA
ATOM     12  C   UNL     1      -7.308  -1.279 125.023  0.00  0.00    +0.000 A 
ATOM     13  C   UNL     1      -7.140  -0.549 123.875  0.00  0.00    +0.000 A 
ATOM     14  C   UNL     1      -6.763  -1.207 122.655  0.00  0.00    +0.000 A 
ATOM     15  C   UNL     1      -5.967  -2.348 122.769  0.00  0.00    +0.000 A 
ATOM     16  C   UNL     1      -5.688  -2.800 124.051  0.00  0.00    +0.000 A 
ATOM     17 CL   UNL     1      -4.505  -4.005 124.344  0.00  0.00    +0.000 Cl
ATOM     18  C   UNL     1      -6.380  -2.277 125.142  0.00  0.00    +0.000 A 
ATOM     19  C   UNL     1      -6.828   0.773 124.251  0.00  0.00    +0.000 A 
ATOM     20  C   UNL     1      -6.512   1.062 125.632  0.00  0.00    +0.000 A 
ENDBRANCH   9  10
ENDBRANCH   6   8
ENDBRANCH   1   2
BRANCH   1  21
ATOM     21  S   UNL     1     -11.514   6.166 131.331  0.00  0.00    +0.000 S 
BRANCH  21  22
ATOM     22  C   UNL     1     -11.679   6.226 129.591  0.00  0.00    +0.000 C 
BRANCH  22  23
ATOM     23  C   UNL     1     -11.887   7.642 129.036  0.00  0.00    +0.000 C 
ATOM     24  C   UNL     1     -12.615   8.791 129.746  0.00  0.00    +0.000 C 
ATOM     25  C   UNL     1     -13.255   8.146 128.554  0.00  0.00    +0.000 C 
BRANCH  23  26
ATOM     26  C   UNL     1     -10.680   7.986 128.194  0.00  0.00    +0.000 C 
BRANCH  26  27
ATOM     27  C   UNL     1     -10.395   6.881 127.202  0.00  0.00    +0.000 C 
ATOM     28  O   UNL     1      -9.410   6.118 127.253  0.00  0.00    +0.000 OA
BRANCH  27  29
ATOM     29  O   UNL     1     -11.287   6.794 126.206  0.00  0.00    +0.000 OA
ATOM     30  H   UNL     1     -11.146   7.451 125.498  0.00  0.00    +0.000 HD
ENDBRANCH  27  29
ENDBRANCH  26  27
ENDBRANCH  23  26
ENDBRANCH  22  23
ENDBRANCH  21  22
ENDBRANCH   1  21
BRANCH   1  31
ATOM     31  C   UNL     1      -8.745   6.358 131.011  0.00  0.00    +0.000 C 
BRANCH  31  32
ATOM     32  C   UNL     1      -7.470   6.519 131.848  0.00  0.00    +0.000 C 
BRANCH  32  33
ATOM     33  C   UNL     1      -6.555   5.363 131.688  0.00  0.00    +0.000 A 
ATOM     34  C   UNL     1      -6.139   5.167 130.365  0.00  0.00    +0.000 A 
ATOM     35  C   UNL     1      -5.474   4.015 130.010  0.00  0.00    +0.000 A 
ATOM     36  C   UNL     1      -5.138   3.101 130.997  0.00  0.00    +0.000 A 
ATOM     37  C   UNL     1      -5.477   3.335 132.337  0.00  0.00    +0.000 A 
ATOM     38  C   UNL     1      -6.187   4.485 132.738  0.00  0.00    +0.000 A 
BRANCH  38  39
ATOM     39  C   UNL     1      -6.458   4.696 134.250  0.00  0.00    +0.000 C 
ATOM     40  C   UNL     1      -5.643   5.892 134.762  0.00  0.00    +0.000 C 
ATOM     41  C   UNL     1      -7.875   5.003 134.733  0.00  0.00    +0.000 C 
BRANCH  39  42
ATOM     42  O   UNL     1      -6.079   3.518 134.971  0.00  0.00    +0.000 OA
ATOM     43  H   UNL     1      -5.488   2.995 134.411  0.00  0.00    +0.000 HD
ENDBRANCH  39  42
ENDBRANCH  38  39
ENDBRANCH  32  33
ENDBRANCH  31  32
ENDBRANCH   1  31
TORSDOF 14
ENDMDL
MODEL 2
REMARK VINA RESULT:      -8.7      4.158      9.311
REMARK  Name = Montelukast
REMARK  16 active torsions:
REMARK  status: ('A' for Active; 'I' for Inactive)
REMARK    1  A    between atoms: O_1  and  C_2
REMARK    2  A    between atoms: C_2  and  C_4
REMARK    3  A    between atoms: C_4  and  C_5
REMARK    4  A    between atoms: C_5  and  C_8
REMARK    5  A    between atoms: C_8  and  S_9
REMARK    6  A    between atoms: S_9  and  C_10
REMARK    7  A    between atoms: C_10  and  C_11
REMARK    8  A    between atoms: C_10  and  C_23
REMARK    9  A    between atoms: C_11  and  C_12
REMARK   10  A    between atoms: C_12  and  C_13
REMARK   11  A    between atoms: C_18  and  C_19
REMARK   12  A    between atoms: C_19  and  O_20
REMARK   13  A    between atoms: C_19  and  C_21
REMARK   14  A    between atoms: C_19  and  C_22
REMARK   15  A    between atoms: C_27  and  C_28
REMARK   16  A    between atoms: C_29  and  C_30
REMARK                            x       y       z     vdW  Elec       q    Type
REMARK                         _______ _______ _______ _____ _____    ______ ____
ROOT
ATOM      1  C   UNL     1      -5.126   0.015 129.245  0.00  0.00    +0.000 C 
ENDROOT
BRANCH   1   2
ATOM      2  C   UNL     1      -6.140  -0.093 130.360  0.00  0.00    +0.000 A 
ATOM      3  C   UNL     1      -6.147  -1.155 131.252  0.00  0.00    +0.000 A 
ATOM      4  C   UNL     1      -7.167  -1.246 132.188  0.00  0.00    +0.000 A 
ATOM      5  C   UNL     1      -8.110  -0.204 132.331  0.00  0.00    +0.000 A 
ATOM      6  C   UNL     1      -8.074   0.945 131.516  0.00  0.00    +0.000 A 
ATOM      7  C   UNL     1      -7.058   0.971 130.547  0.00  0.00    +0.000 A 
BRANCH   6   8
ATOM      8  C   UNL     1      -9.127   2.029 131.595  0.00  0.00    +0.000 C 
ATOM      9  C   UNL     1      -8.896   3.343 131.344  0.00  0.00    +0.000 C 
BRANCH   9  10
ATOM     10  C   UNL     1      -9.760   4.546 131.239  0.00  0.00    +0.000 A 
ATOM     11  N   UNL     1     -10.773   4.507 130.366  0.00  0.00    +0.000 NA
ATOM     12  C   UNL     1     -11.471   5.657 130.232  0.00  0.00    +0.000 A 
ATOM     13  C   UNL     1     -11.925   6.392 131.296  0.00  0.00    +0.000 A 
ATOM     14  C   UNL     1     -12.817   7.496 131.077  0.00  0.00    +0.000 A 
ATOM     15  C   UNL     1     -12.683   8.191 129.873  0.00  0.00    +0.000 A 
ATOM     16  C   UNL     1     -11.766   7.698 128.956  0.00  0.00    +0.000 A 
ATOM     17 CL   UNL     1     -11.298   8.600 127.576  0.00  0.00    +0.000 Cl
ATOM     18  C   UNL     1     -11.203   6.437 129.140  0.00  0.00    +0.000 A 
ATOM     19  C   UNL     1     -10.984   6.262 132.336  0.00  0.00    +0.000 A 
ATOM     20  C   UNL     1      -9.702   5.654 132.062  0.00  0.00    +0.000 A 
ENDBRANCH   9  10
ENDBRANCH   6   8
ENDBRANCH   1   2
BRANCH   1  21
ATOM     21  S   UNL     1      -4.978   1.634 128.341  0.00  0.00    +0.000 S 
BRANCH  21  22
ATOM     22  C   UNL     1      -3.479   2.384 128.840  0.00  0.00    +0.000 C 
BRANCH  22  23
ATOM     23  C   UNL     1      -2.956   3.438 127.855  0.00  0.00    +0.000 C 
ATOM     24  C   UNL     1      -3.197   3.455 126.340  0.00  0.00    +0.000 C 
ATOM     25  C   UNL     1      -1.825   3.145 126.859  0.00  0.00    +0.000 C 
BRANCH  23  26
ATOM     26  C   UNL     1      -2.922   4.765 128.579  0.00  0.00    +0.000 C 
BRANCH  26  27
ATOM     27  C   UNL     1      -4.172   5.562 128.280  0.00  0.00    +0.000 C 
ATOM     28  O   UNL     1      -5.335   5.161 128.484  0.00  0.00    +0.000 OA
BRANCH  27  29
ATOM     29  O   UNL     1      -3.941   6.761 127.729  0.00  0.00    +0.000 OA
ATOM     30  H   UNL     1      -4.294   7.505 128.253  0.00  0.00    +0.000 HD
ENDBRANCH  27  29
ENDBRANCH  26  27
ENDBRANCH  23  26
ENDBRANCH  22  23
ENDBRANCH  21  22
ENDBRANCH   1  21
BRANCH   1  31
ATOM     31  C   UNL     1      -5.430  -1.122 128.235  0.00  0.00    +0.000 C 
BRANCH  31  32
ATOM     32  C   UNL     1      -6.623  -0.807 127.323  0.00  0.00    +0.000 C 
BRANCH  32  33
ATOM     33  C   UNL     1      -7.641  -1.884 127.355  0.00  0.00    +0.000 A 
ATOM     34  C   UNL     1      -7.879  -2.382 128.643  0.00  0.00    +0.000 A 
ATOM     35  C   UNL     1      -8.623  -3.526 128.818  0.00  0.00    +0.000 A 
ATOM     36  C   UNL     1      -9.213  -4.121 127.714  0.00  0.00    +0.000 A 
ATOM     37  C   UNL     1      -9.049  -3.576 126.433  0.00  0.00    +0.000 A 
ATOM     38  C   UNL     1      -8.267  -2.425 126.205  0.00  0.00    +0.000 A 
BRANCH  38  39
ATOM     39  C   UNL     1      -8.198  -1.852 124.766  0.00  0.00    +0.000 C 
ATOM     40  C   UNL     1      -9.078  -2.691 123.830  0.00  0.00    +0.000 C 
ATOM     41  C   UNL     1      -8.659  -0.421 124.494  0.00  0.00    +0.000 C 
BRANCH  39  42
ATOM     42  O   UNL     1      -6.842  -1.887 124.304  0.00  0.00    +0.000 OA
ATOM     43  H   UNL     1      -6.738  -1.215 123.616  0.00  0.00    +0.000 HD
ENDBRANCH  39  42
ENDBRANCH  38  39
ENDBRANCH  32  33
ENDBRANCH  31  32
ENDBRANCH   1  31
TORSDOF 14
ENDMDL
MODEL 3
REMARK VINA RESULT:      -8.6      3.847      9.410
REMARK  Name = Montelukast
REMARK  16 active torsions:
REMARK  status: ('A' for Active; 'I' for Inactive)
REMARK    1  A    between atoms: O_1  and  C_2
REMARK    2  A    between atoms: C_2  and  C_4
REMARK    3  A    between atoms: C_4  and  C_5
REMARK    4  A    between atoms: C_5  and  C_8
REMARK    5  A    between atoms: C_8  and  S_9
REMARK    6  A    between atoms: S_9  and  C_10
REMARK    7  A    between atoms: C_10  and  C_11
REMARK    8  A    between atoms: C_10  and  C_23
REMARK    9  A    between atoms: C_11  and  C_12
REMARK   10  A    between atoms: C_12  and  C_13
REMARK   11  A    between atoms: C_18  and  C_19
REMARK   12  A    between atoms: C_19  and  O_20
REMARK   13  A    between atoms: C_19  and  C_21
REMARK   14  A    between atoms: C_19  and  C_22
REMARK   15  A    between atoms: C_27  and  C_28
REMARK   16  A    between atoms: C_29  and  C_30
REMARK                            x       y       z     vdW  Elec       q    Type
REMARK                         _______ _______ _______ _____ _____    ______ ____
ROOT
ATOM      1  C   UNL     1      -5.445  -0.127 128.518  0.00  0.00    +0.000 C 
ENDROOT
BRANCH   1   2
ATOM      2  C   UNL     1      -6.481  -0.342 129.597  0.00  0.00    +0.000 A 
ATOM      3  C   UNL     1      -6.609  -1.550 130.268  0.00  0.00    +0.000 A 
ATOM      4  C   UNL     1      -7.646  -1.714 131.174  0.00  0.00    +0.000 A 
ATOM      5  C   UNL     1      -8.480  -0.627 131.521  0.00  0.00    +0.000 A 
ATOM      6  C   UNL     1      -8.315   0.647 130.941  0.00  0.00    +0.000 A 
ATOM      7  C   UNL     1      -7.288   0.755 129.991  0.00  0.00    +0.000 A 
BRANCH   6   8
ATOM      8  C   UNL     1      -9.253   1.798 131.234  0.00  0.00    +0.000 C 
ATOM      9  C   UNL     1      -9.007   3.092 130.902  0.00  0.00    +0.000 C 
BRANCH   9  10
ATOM     10  C   UNL     1      -9.798   4.347 130.969  0.00  0.00    +0.000 A 
ATOM     11  N   UNL     1     -10.931   4.403 130.261  0.00  0.00    +0.000 NA
ATOM     12  C   UNL     1     -11.566   5.597 130.271  0.00  0.00    +0.000 A 
ATOM     13  C   UNL     1     -11.805   6.315 131.415  0.00  0.00    +0.000 A 
ATOM     14  C   UNL     1     -12.646   7.478 131.370  0.00  0.00    +0.000 A 
ATOM     15  C   UNL     1     -12.651   8.212 130.183  0.00  0.00    +0.000 A 
ATOM     16  C   UNL     1     -11.917   7.703 129.120  0.00  0.00    +0.000 A 
ATOM     17 CL   UNL     1     -11.606   8.631 127.713  0.00  0.00    +0.000 Cl
ATOM     18  C   UNL     1     -11.415   6.404 129.177  0.00  0.00    +0.000 A 
ATOM     19  C   UNL     1     -10.728   6.087 132.294  0.00  0.00    +0.000 A 
ATOM     20  C   UNL     1      -9.544   5.415 131.807  0.00  0.00    +0.000 A 
ENDBRANCH   9  10
ENDBRANCH   6   8
ENDBRANCH   1   2
BRANCH   1  21
ATOM     21  S   UNL     1      -5.224   1.589 127.837  0.00  0.00    +0.000 S 
BRANCH  21  22
ATOM     22  C   UNL     1      -3.845   2.305 128.641  0.00  0.00    +0.000 C 
BRANCH  22  23
ATOM     23  C   UNL     1      -3.152   3.403 127.824  0.00  0.00    +0.000 C 
ATOM     24  C   UNL     1      -3.218   3.571 126.300  0.00  0.00    +0.000 C 
ATOM     25  C   UNL     1      -1.934   3.123 126.932  0.00  0.00    +0.000 C 
BRANCH  23  26
ATOM     26  C   UNL     1      -3.124   4.655 128.670  0.00  0.00    +0.000 C 
BRANCH  26  27
ATOM     27  C   UNL     1      -4.310   5.537 128.350  0.00  0.00    +0.000 C 
ATOM     28  O   UNL     1      -5.495   5.257 128.618  0.00  0.00    +0.000 OA
BRANCH  27  29
ATOM     29  O   UNL     1      -3.995   6.668 127.704  0.00  0.00    +0.000 OA
ATOM     30  H   UNL     1      -4.647   6.922 127.024  0.00  0.00    +0.000 HD
ENDBRANCH  27  29
ENDBRANCH  26  27
ENDBRANCH  23  26
ENDBRANCH  22  23
ENDBRANCH  21  22
ENDBRANCH   1  21
BRANCH   1  31
ATOM     31  C   UNL     1      -5.773  -1.109 127.364  0.00  0.00    +0.000 C 
BRANCH  31  32
ATOM     32  C   UNL     1      -6.654  -0.481 126.277  0.00  0.00    +0.000 C 
BRANCH  32  33
ATOM     33  C   UNL     1      -6.555  -1.216 124.993  0.00  0.00    +0.000 A 
ATOM     34  C   UNL     1      -5.471  -2.103 124.946  0.00  0.00    +0.000 A 
ATOM     35  C   UNL     1      -5.108  -2.692 123.757  0.00  0.00    +0.000 A 
ATOM     36  C   UNL     1      -5.886  -2.471 122.631  0.00  0.00    +0.000 A 
ATOM     37  C   UNL     1      -7.022  -1.653 122.694  0.00  0.00    +0.000 A 
ATOM     38  C   UNL     1      -7.410  -1.004 123.884  0.00  0.00    +0.000 A 
BRANCH  38  39
ATOM     39  C   UNL     1      -8.720  -0.174 123.880  0.00  0.00    +0.000 C 
ATOM     40  C   UNL     1      -8.388   1.321 123.969  0.00  0.00    +0.000 C 
ATOM     41  C   UNL     1      -9.668  -0.253 122.684  0.00  0.00    +0.000 C 
BRANCH  39  42
ATOM     42  O   UNL     1      -9.526  -0.550 125.003  0.00  0.00    +0.000 OA
ATOM     43  H   UNL     1     -10.456  -0.426 124.765  0.00  0.00    +0.000 HD
ENDBRANCH  39  42
ENDBRANCH  38  39
ENDBRANCH  32  33
ENDBRANCH  31  32
ENDBRANCH   1  31
TORSDOF 14
ENDMDL
MODEL 4
REMARK VINA RESULT:      -8.4      4.119      9.008
REMARK  Name = Montelukast
REMARK  16 active torsions:
REMARK  status: ('A' for Active; 'I' for Inactive)
REMARK    1  A    between atoms: O_1  and  C_2
REMARK    2  A    between atoms: C_2  and  C_4
REMARK    3  A    between atoms: C_4  and  C_5
REMARK    4  A    between atoms: C_5  and  C_8
REMARK    5  A    between atoms: C_8  and  S_9
REMARK    6  A    between atoms: S_9  and  C_10
REMARK    7  A    between atoms: C_10  and  C_11
REMARK    8  A    between atoms: C_10  and  C_23
REMARK    9  A    between atoms: C_11  and  C_12
REMARK   10  A    between atoms: C_12  and  C_13
REMARK   11  A    between atoms: C_18  and  C_19
REMARK   12  A    between atoms: C_19  and  O_20
REMARK   13  A    between atoms: C_19  and  C_21
REMARK   14  A    between atoms: C_19  and  C_22
REMARK   15  A    between atoms: C_27  and  C_28
REMARK   16  A    between atoms: C_29  and  C_30
REMARK                            x       y       z     vdW  Elec       q    Type
REMARK                         _______ _______ _______ _____ _____    ______ ____
ROOT
ATOM      1  C   UNL     1      -7.128  -0.776 127.776  0.00  0.00    +0.000 C 
ENDROOT
BRANCH   1   2
ATOM      2  C   UNL     1      -7.525  -0.663 129.229  0.00  0.00    +0.000 A 
ATOM      3  C   UNL     1      -7.226  -1.653 130.155  0.00  0.00    +0.000 A 
ATOM      4  C   UNL     1      -7.708  -1.535 131.451  0.00  0.00    +0.000 A 
ATOM      5  C   UNL     1      -8.375  -0.362 131.868  0.00  0.00    +0.000 A 
ATOM      6  C   UNL     1      -8.604   0.714 130.987  0.00  0.00    +0.000 A 
ATOM      7  C   UNL     1      -8.147   0.531 129.673  0.00  0.00    +0.000 A 
BRANCH   6   8
ATOM      8  C   UNL     1      -9.393   1.940 131.392  0.00  0.00    +0.000 C 
ATOM      9  C   UNL     1      -9.319   3.142 130.765  0.00  0.00    +0.000 C 
BRANCH   9  10
ATOM     10  C   UNL     1     -10.058   4.424 130.891  0.00  0.00    +0.000 A 
ATOM     11  N   UNL     1     -11.250   4.513 130.292  0.00  0.00    +0.000 NA
ATOM     12  C   UNL     1     -11.841   5.728 130.348  0.00  0.00    +0.000 A 
ATOM     13  C   UNL     1     -11.947   6.463 131.501  0.00  0.00    +0.000 A 
ATOM     14  C   UNL     1     -12.750   7.653 131.521  0.00  0.00    +0.000 A 
ATOM     15  C   UNL     1     -12.842   8.377 130.332  0.00  0.00    +0.000 A 
ATOM     16  C   UNL     1     -12.229   7.835 129.211  0.00  0.00    +0.000 A 
ATOM     17 CL   UNL     1     -12.020   8.741 127.771  0.00  0.00    +0.000 Cl
ATOM     18  C   UNL     1     -11.767   6.520 129.235  0.00  0.00    +0.000 A 
ATOM     19  C   UNL     1     -10.801   6.205 132.278  0.00  0.00    +0.000 A 
ATOM     20  C   UNL     1      -9.691   5.489 131.690  0.00  0.00    +0.000 A 
ENDBRANCH   9  10
ENDBRANCH   6   8
ENDBRANCH   1   2
BRANCH   1  21
ATOM     21  S   UNL     1      -7.757  -2.229 126.800  0.00  0.00    +0.000 S 
BRANCH  21  22
ATOM     22  C   UNL     1      -8.117  -1.665 125.184  0.00  0.00    +0.000 C 
BRANCH  22  23
ATOM     23  C   UNL     1      -7.179  -2.228 124.108  0.00  0.00    +0.000 C 
ATOM     24  C   UNL     1      -6.196  -3.393 124.288  0.00  0.00    +0.000 C 
ATOM     25  C   UNL     1      -5.660  -2.001 124.137  0.00  0.00    +0.000 C 
BRANCH  23  26
ATOM     26  C   UNL     1      -7.878  -2.096 122.775  0.00  0.00    +0.000 C 
BRANCH  26  27
ATOM     27  C   UNL     1      -9.372  -2.260 122.942  0.00  0.00    +0.000 C 
ATOM     28  O   UNL     1      -9.942  -3.338 123.205  0.00  0.00    +0.000 OA
BRANCH  27  29
ATOM     29  O   UNL     1     -10.074  -1.135 122.750  0.00  0.00    +0.000 OA
ATOM     30  H   UNL     1     -10.949  -1.287 122.345  0.00  0.00    +0.000 HD
ENDBRANCH  27  29
ENDBRANCH  26  27
ENDBRANCH  23  26
ENDBRANCH  22  23
ENDBRANCH  21  22
ENDBRANCH   1  21
BRANCH   1  31
ATOM     31  C   UNL     1      -5.579  -0.738 127.718  0.00  0.00    +0.000 C 
BRANCH  31  32
ATOM     32  C   UNL     1      -5.033   0.590 127.180  0.00  0.00    +0.000 C 
BRANCH  32  33
ATOM     33  C   UNL     1      -5.132   1.676 128.185  0.00  0.00    +0.000 A 
ATOM     34  C   UNL     1      -4.478   1.376 129.387  0.00  0.00    +0.000 A 
ATOM     35  C   UNL     1      -4.661   2.174 130.494  0.00  0.00    +0.000 A 
ATOM     36  C   UNL     1      -5.421   3.327 130.374  0.00  0.00    +0.000 A 
ATOM     37  C   UNL     1      -6.006   3.676 129.149  0.00  0.00    +0.000 A 
ATOM     38  C   UNL     1      -5.871   2.870 128.001  0.00  0.00    +0.000 A 
BRANCH  38  39
ATOM     39  C   UNL     1      -6.493   3.369 126.671  0.00  0.00    +0.000 C 
ATOM     40  C   UNL     1      -5.392   3.545 125.616  0.00  0.00    +0.000 C 
ATOM     41  C   UNL     1      -7.536   2.516 125.951  0.00  0.00    +0.000 C 
BRANCH  39  42
ATOM     42  O   UNL     1      -7.146   4.625 126.892  0.00  0.00    +0.000 OA
ATOM     43  H   UNL     1      -7.828   4.737 126.214  0.00  0.00    +0.000 HD
ENDBRANCH  39  42
ENDBRANCH  38  39
ENDBRANCH  32  33
ENDBRANCH  31  32
ENDBRANCH   1  31
TORSDOF 14
ENDMDL
MODEL 5
REMARK VINA RESULT:      -8.4      4.503      9.086
REMARK  Name = Montelukast
REMARK  16 active torsions:
REMARK  status: ('A' for Active; 'I' for Inactive)
REMARK    1  A    between atoms: O_1  and  C_2
REMARK    2  A    between atoms: C_2  and  C_4
REMARK    3  A    between atoms: C_4  and  C_5
REMARK    4  A    between atoms: C_5  and  C_8
REMARK    5  A    between atoms: C_8  and  S_9
REMARK    6  A    between atoms: S_9  and  C_10
REMARK    7  A    between atoms: C_10  and  C_11
REMARK    8  A    between atoms: C_10  and  C_23
REMARK    9  A    between atoms: C_11  and  C_12
REMARK   10  A    between atoms: C_12  and  C_13
REMARK   11  A    between atoms: C_18  and  C_19
REMARK   12  A    between atoms: C_19  and  O_20
REMARK   13  A    between atoms: C_19  and  C_21
REMARK   14  A    between atoms: C_19  and  C_22
REMARK   15  A    between atoms: C_27  and  C_28
REMARK   16  A    between atoms: C_29  and  C_30
REMARK                            x       y       z     vdW  Elec       q    Type
REMARK                         _______ _______ _______ _____ _____    ______ ____
ROOT
ATOM      1  C   UNL     1      -5.987   0.087 127.433  0.00  0.00    +0.000 C 
ENDROOT
BRANCH   1   2
ATOM      2  C   UNL     1      -5.611   0.741 128.743  0.00  0.00    +0.000 A 
ATOM      3  C   UNL     1      -4.523   0.321 129.494  0.00  0.00    +0.000 A 
ATOM      4  C   UNL     1      -4.294   0.896 130.735  0.00  0.00    +0.000 A 
ATOM      5  C   UNL     1      -5.069   1.993 131.175  0.00  0.00    +0.000 A 
ATOM      6  C   UNL     1      -6.116   2.521 130.394  0.00  0.00    +0.000 A 
ATOM      7  C   UNL     1      -6.347   1.876 129.170  0.00  0.00    +0.000 A 
BRANCH   6   8
ATOM      8  C   UNL     1      -7.011   3.637 130.887  0.00  0.00    +0.000 C 
ATOM      9  C   UNL     1      -8.112   4.085 130.230  0.00  0.00    +0.000 C 
BRANCH   9  10
ATOM     10  C   UNL     1      -9.190   5.054 130.554  0.00  0.00    +0.000 A 
ATOM     11  N   UNL     1     -10.392   4.849 130.006  0.00  0.00    +0.000 NA
ATOM     12  C   UNL     1     -11.314   5.808 130.248  0.00  0.00    +0.000 A 
ATOM     13  C   UNL     1     -11.557   6.324 131.494  0.00  0.00    +0.000 A 
ATOM     14  C   UNL     1     -12.675   7.200 131.703  0.00  0.00    +0.000 A 
ATOM     15  C   UNL     1     -13.061   8.004 130.629  0.00  0.00    +0.000 A 
ATOM     16  C   UNL     1     -12.392   7.820 129.427  0.00  0.00    +0.000 A 
ATOM     17 CL   UNL     1     -12.563   8.918 128.122  0.00  0.00    +0.000 Cl
ATOM     18  C   UNL     1     -11.557   6.717 129.254  0.00  0.00    +0.000 A 
ATOM     19  C   UNL     1     -10.335   6.335 132.196  0.00  0.00    +0.000 A 
ATOM     20  C   UNL     1      -9.105   6.072 131.484  0.00  0.00    +0.000 A 
ENDBRANCH   9  10
ENDBRANCH   6   8
ENDBRANCH   1   2
BRANCH   1  21
ATOM     21  S   UNL     1      -6.277  -1.750 127.418  0.00  0.00    +0.000 S 
BRANCH  21  22
ATOM     22  C   UNL     1      -8.006  -2.014 127.457  0.00  0.00    +0.000 C 
BRANCH  22  23
ATOM     23  C   UNL     1      -8.714  -1.679 126.138  0.00  0.00    +0.000 C 
ATOM     24  C   UNL     1      -8.142  -0.825 124.998  0.00  0.00    +0.000 C 
ATOM     25  C   UNL     1      -9.264  -0.279 125.829  0.00  0.00    +0.000 C 
BRANCH  23  26
ATOM     26  C   UNL     1      -9.575  -2.864 125.766  0.00  0.00    +0.000 C 
BRANCH  26  27
ATOM     27  C   UNL     1      -9.123  -3.454 124.449  0.00  0.00    +0.000 C 
ATOM     28  O   UNL     1      -8.014  -3.990 124.256  0.00  0.00    +0.000 OA
BRANCH  27  29
ATOM     29  O   UNL     1     -10.014  -3.330 123.456  0.00  0.00    +0.000 OA
ATOM     30  H   UNL     1     -10.459  -2.461 123.440  0.00  0.00    +0.000 HD
ENDBRANCH  27  29
ENDBRANCH  26  27
ENDBRANCH  23  26
ENDBRANCH  22  23
ENDBRANCH  21  22
ENDBRANCH   1  21
BRANCH   1  31
ATOM     31  C   UNL     1      -4.885   0.451 126.405  0.00  0.00    +0.000 C 
BRANCH  31  32
ATOM     32  C   UNL     1      -5.227   1.698 125.580  0.00  0.00    +0.000 C 
BRANCH  32  33
ATOM     33  C   UNL     1      -4.614   2.922 126.149  0.00  0.00    +0.000 A 
ATOM     34  C   UNL     1      -3.458   2.664 126.897  0.00  0.00    +0.000 A 
ATOM     35  C   UNL     1      -2.898   3.654 127.672  0.00  0.00    +0.000 A 
ATOM     36  C   UNL     1      -3.436   4.930 127.626  0.00  0.00    +0.000 A 
ATOM     37  C   UNL     1      -4.541   5.214 126.812  0.00  0.00    +0.000 A 
ATOM     38  C   UNL     1      -5.165   4.222 126.028  0.00  0.00    +0.000 A 
BRANCH  38  39
ATOM     39  C   UNL     1      -6.338   4.640 125.104  0.00  0.00    +0.000 C 
ATOM     40  C   UNL     1      -6.119   4.067 123.696  0.00  0.00    +0.000 C 
ATOM     41  C   UNL     1      -7.764   4.209 125.441  0.00  0.00    +0.000 C 
BRANCH  39  42
ATOM     42  O   UNL     1      -6.401   6.069 125.031  0.00  0.00    +0.000 OA
ATOM     43  H   UNL     1      -6.909   6.389 125.790  0.00  0.00    +0.000 HD
ENDBRANCH  39  42
ENDBRANCH  38  39
ENDBRANCH  32  33
ENDBRANCH  31  32
ENDBRANCH   1  31
TORSDOF 14
ENDMDL
MODEL 6
REMARK VINA RESULT:      -8.2      4.216      8.903
REMARK  Name = Montelukast
REMARK  16 active torsions:
REMARK  status: ('A' for Active; 'I' for Inactive)
REMARK    1  A    between atoms: O_1  and  C_2
REMARK    2  A    between atoms: C_2  and  C_4
REMARK    3  A    between atoms: C_4  and  C_5
REMARK    4  A    between atoms: C_5  and  C_8
REMARK    5  A    between atoms: C_8  and  S_9
REMARK    6  A    between atoms: S_9  and  C_10
REMARK    7  A    between atoms: C_10  and  C_11
REMARK    8  A    between atoms: C_10  and  C_23
REMARK    9  A    between atoms: C_11  and  C_12
REMARK   10  A    between atoms: C_12  and  C_13
REMARK   11  A    between atoms: C_18  and  C_19
REMARK   12  A    between atoms: C_19  and  O_20
REMARK   13  A    between atoms: C_19  and  C_21
REMARK   14  A    between atoms: C_19  and  C_22
REMARK   15  A    between atoms: C_27  and  C_28
REMARK   16  A    between atoms: C_29  and  C_30
REMARK                            x       y       z     vdW  Elec       q    Type
REMARK                         _______ _______ _______ _____ _____    ______ ____
ROOT
ATOM      1  C   UNL     1      -6.306  -0.766 128.553  0.00  0.00    +0.000 C 
ENDROOT
BRANCH   1   2
ATOM      2  C   UNL     1      -6.021   0.610 127.996  0.00  0.00    +0.000 A 
ATOM      3  C   UNL     1      -4.902   0.876 127.221  0.00  0.00    +0.000 A 
ATOM      4  C   UNL     1      -4.647   2.182 126.827  0.00  0.00    +0.000 A 
ATOM      5  C   UNL     1      -5.580   3.209 127.087  0.00  0.00    +0.000 A 
ATOM      6  C   UNL     1      -6.782   2.960 127.779  0.00  0.00    +0.000 A 
ATOM      7  C   UNL     1      -6.976   1.637 128.205  0.00  0.00    +0.000 A 
BRANCH   6   8
ATOM      8  C   UNL     1      -7.751   4.064 128.143  0.00  0.00    +0.000 C 
ATOM      9  C   UNL     1      -8.540   4.058 129.249  0.00  0.00    +0.000 C 
BRANCH   9  10
ATOM     10  C   UNL     1      -9.457   5.046 129.873  0.00  0.00    +0.000 A 
ATOM     11  N   UNL     1     -10.764   4.922 129.623  0.00  0.00    +0.000 NA
ATOM     12  C   UNL     1     -11.550   5.900 130.128  0.00  0.00    +0.000 A 
ATOM     13  C   UNL     1     -11.459   6.347 131.421  0.00  0.00    +0.000 A 
ATOM     14  C   UNL     1     -12.447   7.252 131.938  0.00  0.00    +0.000 A 
ATOM     15  C   UNL     1     -13.036   8.135 131.032  0.00  0.00    +0.000 A 
ATOM     16  C   UNL     1     -12.684   8.000 129.697  0.00  0.00    +0.000 A 
ATOM     17 CL   UNL     1     -13.105   9.183 128.530  0.00  0.00    +0.000 Cl
ATOM     18  C   UNL     1     -11.975   6.878 129.271  0.00  0.00    +0.000 A 
ATOM     19  C   UNL     1     -10.106   6.267 131.806  0.00  0.00    +0.000 A 
ATOM     20  C   UNL     1      -9.098   6.000 130.805  0.00  0.00    +0.000 A 
ENDBRANCH   9  10
ENDBRANCH   6   8
ENDBRANCH   1   2
BRANCH   1  21
ATOM     21  S   UNL     1      -6.458  -2.185 127.360  0.00  0.00    +0.000 S 
BRANCH  21  22
ATOM     22  C   UNL     1      -6.968  -1.531 125.821  0.00  0.00    +0.000 C 
BRANCH  22  23
ATOM     23  C   UNL     1      -6.860  -2.526 124.658  0.00  0.00    +0.000 C 
ATOM     24  C   UNL     1      -5.570  -2.926 123.929  0.00  0.00    +0.000 C 
ATOM     25  C   UNL     1      -6.582  -2.081 123.215  0.00  0.00    +0.000 C 
BRANCH  23  26
ATOM     26  C   UNL     1      -7.910  -3.592 124.869  0.00  0.00    +0.000 C 
BRANCH  26  27
ATOM     27  C   UNL     1      -9.297  -3.004 124.730  0.00  0.00    +0.000 C 
ATOM     28  O   UNL     1      -9.821  -2.222 125.547  0.00  0.00    +0.000 OA
BRANCH  27  29
ATOM     29  O   UNL     1      -9.964  -3.421 123.646  0.00  0.00    +0.000 OA
ATOM     30  H   UNL     1      -9.788  -2.885 122.850  0.00  0.00    +0.000 HD
ENDBRANCH  27  29
ENDBRANCH  26  27
ENDBRANCH  23  26
ENDBRANCH  22  23
ENDBRANCH  21  22
ENDBRANCH   1  21
BRANCH   1  31
ATOM     31  C   UNL     1      -7.596  -0.659 129.406  0.00  0.00    +0.000 C 
BRANCH  31  32
ATOM     32  C   UNL     1      -7.326  -0.762 130.912  0.00  0.00    +0.000 C 
BRANCH  32  33
ATOM     33  C   UNL     1      -7.874   0.400 131.652  0.00  0.00    +0.000 A 
ATOM     34  C   UNL     1      -9.271   0.490 131.582  0.00  0.00    +0.000 A 
ATOM     35  C   UNL     1      -9.916   1.624 132.022  0.00  0.00    +0.000 A 
ATOM     36  C   UNL     1      -9.174   2.630 132.622  0.00  0.00    +0.000 A 
ATOM     37  C   UNL     1      -7.786   2.505 132.772  0.00  0.00    +0.000 A 
ATOM     38  C   UNL     1      -7.083   1.376 132.306  0.00  0.00    +0.000 A 
BRANCH  38  39
ATOM     39  C   UNL     1      -5.558   1.291 132.577  0.00  0.00    +0.000 C 
ATOM     40  C   UNL     1      -4.783   1.641 131.300  0.00  0.00    +0.000 C 
ATOM     41  C   UNL     1      -4.921   2.193 133.633  0.00  0.00    +0.000 C 
BRANCH  39  42
ATOM     42  O   UNL     1      -5.221  -0.039 132.989  0.00  0.00    +0.000 OA
ATOM     43  H   UNL     1      -5.934  -0.633 132.714  0.00  0.00    +0.000 HD
ENDBRANCH  39  42
ENDBRANCH  38  39
ENDBRANCH  32  33
ENDBRANCH  31  32
ENDBRANCH   1  31
TORSDOF 14
ENDMDL
MODEL 7
REMARK VINA RESULT:      -8.2      4.614      9.105
REMARK  Name = Montelukast
REMARK  16 active torsions:
REMARK  status: ('A' for Active; 'I' for Inactive)
REMARK    1  A    between atoms: O_1  and  C_2
REMARK    2  A    between atoms: C_2  and  C_4
REMARK    3  A    between atoms: C_4  and  C_5
REMARK    4  A    between atoms: C_5  and  C_8
REMARK    5  A    between atoms: C_8  and  S_9
REMARK    6  A    between atoms: S_9  and  C_10
REMARK    7  A    between atoms: C_10  and  C_11
REMARK    8  A    between atoms: C_10  and  C_23
REMARK    9  A    between atoms: C_11  and  C_12
REMARK   10  A    between atoms: C_12  and  C_13
REMARK   11  A    between atoms: C_18  and  C_19
REMARK   12  A    between atoms: C_19  and  O_20
REMARK   13  A    between atoms: C_19  and  C_21
REMARK   14  A    between atoms: C_19  and  C_22
REMARK   15  A    between atoms: C_27  and  C_28
REMARK   16  A    between atoms: C_29  and  C_30
REMARK                            x       y       z     vdW  Elec       q    Type
REMARK                         _______ _______ _______ _____ _____    ______ ____
ROOT
ATOM      1  C   UNL     1      -5.730  -0.726 127.932  0.00  0.00    +0.000 C 
ENDROOT
BRANCH   1   2
ATOM      2  C   UNL     1      -5.386   0.258 129.026  0.00  0.00    +0.000 A 
ATOM      3  C   UNL     1      -4.351   0.035 129.922  0.00  0.00    +0.000 A 
ATOM      4  C   UNL     1      -4.153   0.928 130.965  0.00  0.00    +0.000 A 
ATOM      5  C   UNL     1      -4.900   2.126 131.040  0.00  0.00    +0.000 A 
ATOM      6  C   UNL     1      -5.888   2.443 130.087  0.00  0.00    +0.000 A 
ATOM      7  C   UNL     1      -6.092   1.487 129.080  0.00  0.00    +0.000 A 
BRANCH   6   8
ATOM      8  C   UNL     1      -6.757   3.677 130.201  0.00  0.00    +0.000 C 
ATOM      9  C   UNL     1      -8.100   3.654 130.404  0.00  0.00    +0.000 C 
BRANCH   9  10
ATOM     10  C   UNL     1      -9.126   4.694 130.665  0.00  0.00    +0.000 A 
ATOM     11  N   UNL     1     -10.310   4.562 130.057  0.00  0.00    +0.000 NA
ATOM     12  C   UNL     1     -11.178   5.582 130.243  0.00  0.00    +0.000 A 
ATOM     13  C   UNL     1     -11.449   6.128 131.472  0.00  0.00    +0.000 A 
ATOM     14  C   UNL     1     -12.516   7.078 131.615  0.00  0.00    +0.000 A 
ATOM     15  C   UNL     1     -12.793   7.892 130.517  0.00  0.00    +0.000 A 
ATOM     16  C   UNL     1     -12.077   7.651 129.353  0.00  0.00    +0.000 A 
ATOM     17 CL   UNL     1     -12.109   8.743 128.032  0.00  0.00    +0.000 Cl
ATOM     18  C   UNL     1     -11.310   6.494 129.232  0.00  0.00    +0.000 A 
ATOM     19  C   UNL     1     -10.267   6.066 132.235  0.00  0.00    +0.000 A 
ATOM     20  C   UNL     1      -9.022   5.715 131.590  0.00  0.00    +0.000 A 
ENDBRANCH   9  10
ENDBRANCH   6   8
ENDBRANCH   1   2
BRANCH   1  21
ATOM     21  S   UNL     1      -5.526  -0.186 126.164  0.00  0.00    +0.000 S 
BRANCH  21  22
ATOM     22  C   UNL     1      -5.751  -1.594 125.151  0.00  0.00    +0.000 C 
BRANCH  22  23
ATOM     23  C   UNL     1      -6.783  -1.395 124.034  0.00  0.00    +0.000 C 
ATOM     24  C   UNL     1      -7.545  -2.507 123.301  0.00  0.00    +0.000 C 
ATOM     25  C   UNL     1      -6.487  -1.740 122.567  0.00  0.00    +0.000 C 
BRANCH  23  26
ATOM     26  C   UNL     1      -7.517  -0.103 124.312  0.00  0.00    +0.000 C 
BRANCH  26  27
ATOM     27  C   UNL     1      -8.985  -0.371 124.558  0.00  0.00    +0.000 C 
ATOM     28  O   UNL     1      -9.443  -0.933 125.573  0.00  0.00    +0.000 OA
BRANCH  27  29
ATOM     29  O   UNL     1      -9.789   0.020 123.561  0.00  0.00    +0.000 OA
ATOM     30  H   UNL     1      -9.531  -0.337 122.690  0.00  0.00    +0.000 HD
ENDBRANCH  27  29
ENDBRANCH  26  27
ENDBRANCH  23  26
ENDBRANCH  22  23
ENDBRANCH  21  22
ENDBRANCH   1  21
BRANCH   1  31
ATOM     31  C   UNL     1      -7.191  -1.188 128.173  0.00  0.00    +0.000 C 
BRANCH  31  32
ATOM     32  C   UNL     1      -7.285  -2.431 129.066  0.00  0.00    +0.000 C 
BRANCH  32  33
ATOM     33  C   UNL     1      -7.159  -2.089 130.503  0.00  0.00    +0.000 A 
ATOM     34  C   UNL     1      -8.101  -1.144 130.930  0.00  0.00    +0.000 A 
ATOM     35  C   UNL     1      -7.982  -0.556 132.169  0.00  0.00    +0.000 A 
ATOM     36  C   UNL     1      -6.976  -0.983 133.022  0.00  0.00    +0.000 A 
ATOM     37  C   UNL     1      -6.084  -1.990 132.631  0.00  0.00    +0.000 A 
ATOM     38  C   UNL     1      -6.151  -2.595 131.360  0.00  0.00    +0.000 A 
BRANCH  38  39
ATOM     39  C   UNL     1      -5.168  -3.751 131.039  0.00  0.00    +0.000 C 
ATOM     40  C   UNL     1      -4.184  -3.934 132.202  0.00  0.00    +0.000 C 
ATOM     41  C   UNL     1      -5.703  -5.163 130.805  0.00  0.00    +0.000 C 
BRANCH  39  42
ATOM     42  O   UNL     1      -4.441  -3.440 129.845  0.00  0.00    +0.000 OA
ATOM     43  H   UNL     1      -4.130  -2.526 129.907  0.00  0.00    +0.000 HD
ENDBRANCH  39  42
ENDBRANCH  38  39
ENDBRANCH  32  33
ENDBRANCH  31  32
ENDBRANCH   1  31
TORSDOF 14
ENDMDL
MODEL 8
REMARK VINA RESULT:      -8.2      3.931      9.287
REMARK  Name = Montelukast
REMARK  16 active torsions:
REMARK  status: ('A' for Active; 'I' for Inactive)
REMARK    1  A    between atoms: O_1  and  C_2
REMARK    2  A    between atoms: C_2  and  C_4
REMARK    3  A    between atoms: C_4  and  C_5
REMARK    4  A    between atoms: C_5  and  C_8
REMARK    5  A    between atoms: C_8  and  S_9
REMARK    6  A    between atoms: S_9  and  C_10
REMARK    7  A    between atoms: C_10  and  C_11
REMARK    8  A    between atoms: C_10  and  C_23
REMARK    9  A    between atoms: C_11  and  C_12
REMARK   10  A    between atoms: C_12  and  C_13
REMARK   11  A    between atoms: C_18  and  C_19
REMARK   12  A    between atoms: C_19  and  O_20
REMARK   13  A    between atoms: C_19  and  C_21
REMARK   14  A    between atoms: C_19  and  C_22
REMARK   15  A    between atoms: C_27  and  C_28
REMARK   16  A    between atoms: C_29  and  C_30
REMARK                            x       y       z     vdW  Elec       q    Type
REMARK                         _______ _______ _______ _____ _____    ______ ____
ROOT
ATOM      1  C   UNL     1      -6.893  -0.903 128.256  0.00  0.00    +0.000 C 
ENDROOT
BRANCH   1   2
ATOM      2  C   UNL     1      -7.396  -0.757 129.673  0.00  0.00    +0.000 A 
ATOM      3  C   UNL     1      -7.185  -1.732 130.637  0.00  0.00    +0.000 A 
ATOM      4  C   UNL     1      -7.761  -1.582 131.889  0.00  0.00    +0.000 A 
ATOM      5  C   UNL     1      -8.438  -0.390 132.234  0.00  0.00    +0.000 A 
ATOM      6  C   UNL     1      -8.581   0.671 131.318  0.00  0.00    +0.000 A 
ATOM      7  C   UNL     1      -8.030   0.456 130.046  0.00  0.00    +0.000 A 
BRANCH   6   8
ATOM      8  C   UNL     1      -9.378   1.917 131.640  0.00  0.00    +0.000 C 
ATOM      9  C   UNL     1      -9.285   3.085 130.955  0.00  0.00    +0.000 C 
BRANCH   9  10
ATOM     10  C   UNL     1     -10.024   4.373 130.996  0.00  0.00    +0.000 A 
ATOM     11  N   UNL     1     -11.149   4.465 130.280  0.00  0.00    +0.000 NA
ATOM     12  C   UNL     1     -11.734   5.684 130.267  0.00  0.00    +0.000 A 
ATOM     13  C   UNL     1     -11.951   6.428 131.398  0.00  0.00    +0.000 A 
ATOM     14  C   UNL     1     -12.743   7.624 131.328  0.00  0.00    +0.000 A 
ATOM     15  C   UNL     1     -12.711   8.339 130.130  0.00  0.00    +0.000 A 
ATOM     16  C   UNL     1     -11.991   7.784 129.082  0.00  0.00    +0.000 A 
ATOM     17 CL   UNL     1     -11.632   8.677 127.663  0.00  0.00    +0.000 Cl
ATOM     18  C   UNL     1     -11.543   6.466 129.161  0.00  0.00    +0.000 A 
ATOM     19  C   UNL     1     -10.891   6.170 132.288  0.00  0.00    +0.000 A 
ATOM     20  C   UNL     1      -9.732   5.442 131.821  0.00  0.00    +0.000 A 
ENDBRANCH   9  10
ENDBRANCH   6   8
ENDBRANCH   1   2
BRANCH   1  21
ATOM     21  S   UNL     1      -5.401   0.083 127.744  0.00  0.00    +0.000 S 
BRANCH  21  22
ATOM     22  C   UNL     1      -5.591   1.700 128.383  0.00  0.00    +0.000 C 
BRANCH  22  23
ATOM     23  C   UNL     1      -5.542   2.799 127.313  0.00  0.00    +0.000 C 
ATOM     24  C   UNL     1      -5.556   2.581 125.794  0.00  0.00    +0.000 C 
ATOM     25  C   UNL     1      -4.296   3.057 126.453  0.00  0.00    +0.000 C 
BRANCH  23  26
ATOM     26  C   UNL     1      -6.274   4.004 127.859  0.00  0.00    +0.000 C 
BRANCH  26  27
ATOM     27  C   UNL     1      -7.762   3.869 127.626  0.00  0.00    +0.000 C 
ATOM     28  O   UNL     1      -8.324   2.836 127.213  0.00  0.00    +0.000 OA
BRANCH  27  29
ATOM     29  O   UNL     1      -8.459   4.986 127.871  0.00  0.00    +0.000 OA
ATOM     30  H   UNL     1      -9.208   4.851 128.482  0.00  0.00    +0.000 HD
ENDBRANCH  27  29
ENDBRANCH  26  27
ENDBRANCH  23  26
ENDBRANCH  22  23
ENDBRANCH  21  22
ENDBRANCH   1  21
BRANCH   1  31
ATOM     31  C   UNL     1      -8.080  -0.585 127.311  0.00  0.00    +0.000 C 
BRANCH  31  32
ATOM     32  C   UNL     1      -7.646  -0.381 125.854  0.00  0.00    +0.000 C 
BRANCH  32  33
ATOM     33  C   UNL     1      -8.384  -1.274 124.929  0.00  0.00    +0.000 A 
ATOM     34  C   UNL     1      -8.260  -2.631 125.254  0.00  0.00    +0.000 A 
ATOM     35  C   UNL     1      -8.694  -3.597 124.375  0.00  0.00    +0.000 A 
ATOM     36  C   UNL     1      -9.341  -3.208 123.213  0.00  0.00    +0.000 A 
ATOM     37  C   UNL     1      -9.544  -1.851 122.925  0.00  0.00    +0.000 A 
ATOM     38  C   UNL     1      -9.086  -0.830 123.781  0.00  0.00    +0.000 A 
BRANCH  38  39
ATOM     39  C   UNL     1      -9.417   0.642 123.419  0.00  0.00    +0.000 C 
ATOM     40  C   UNL     1     -10.181   1.302 124.575  0.00  0.00    +0.000 C 
ATOM     41  C   UNL     1      -8.285   1.628 123.136  0.00  0.00    +0.000 C 
BRANCH  39  42
ATOM     42  O   UNL     1     -10.224   0.671 122.236  0.00  0.00    +0.000 OA
ATOM     43  H   UNL     1     -10.859  -0.058 122.282  0.00  0.00    +0.000 HD
ENDBRANCH  39  42
ENDBRANCH  38  39
ENDBRANCH  32  33
ENDBRANCH  31  32
ENDBRANCH   1  31
TORSDOF 14
ENDMDL
MODEL 9
REMARK VINA RESULT:      -8.2      4.725      7.725
REMARK  Name = Montelukast
REMARK  16 active torsions:
REMARK  status: ('A' for Active; 'I' for Inactive)
REMARK    1  A    between atoms: O_1  and  C_2
REMARK    2  A    between atoms: C_2  and  C_4
REMARK    3  A    between atoms: C_4  and  C_5
REMARK    4  A    between atoms: C_5  and  C_8
REMARK    5  A    between atoms: C_8  and  S_9
REMARK    6  A    between atoms: S_9  and  C_10
REMARK    7  A    between atoms: C_10  and  C_11
REMARK    8  A    between atoms: C_10  and  C_23
REMARK    9  A    between atoms: C_11  and  C_12
REMARK   10  A    between atoms: C_12  and  C_13
REMARK   11  A    between atoms: C_18  and  C_19
REMARK   12  A    between atoms: C_19  and  O_20
REMARK   13  A    between atoms: C_19  and  C_21
REMARK   14  A    between atoms: C_19  and  C_22
REMARK   15  A    between atoms: C_27  and  C_28
REMARK   16  A    between atoms: C_29  and  C_30
REMARK                            x       y       z     vdW  Elec       q    Type
REMARK                         _______ _______ _______ _____ _____    ______ ____
ROOT
ATOM      1  C   UNL     1      -7.967   0.510 126.269  0.00  0.00    +0.000 C 
ENDROOT
BRANCH   1   2
ATOM      2  C   UNL     1      -8.337  -0.946 126.437  0.00  0.00    +0.000 A 
ATOM      3  C   UNL     1      -9.024  -1.651 125.459  0.00  0.00    +0.000 A 
ATOM      4  C   UNL     1      -9.422  -2.954 125.719  0.00  0.00    +0.000 A 
ATOM      5  C   UNL     1      -9.017  -3.610 126.903  0.00  0.00    +0.000 A 
ATOM      6  C   UNL     1      -8.227  -2.963 127.875  0.00  0.00    +0.000 A 
ATOM      7  C   UNL     1      -7.891  -1.629 127.597  0.00  0.00    +0.000 A 
BRANCH   6   8
ATOM      8  C   UNL     1      -7.859  -3.620 129.187  0.00  0.00    +0.000 C 
ATOM      9  C   UNL     1      -6.932  -3.135 130.054  0.00  0.00    +0.000 C 
BRANCH   9  10
ATOM     10  C   UNL     1      -6.492  -3.517 131.420  0.00  0.00    +0.000 A 
ATOM     11  N   UNL     1      -7.349  -3.317 132.427  0.00  0.00    +0.000 NA
ATOM     12  C   UNL     1      -6.871  -3.584 133.662  0.00  0.00    +0.000 A 
ATOM     13  C   UNL     1      -6.191  -4.733 133.976  0.00  0.00    +0.000 A 
ATOM     14  C   UNL     1      -5.879  -5.031 135.345  0.00  0.00    +0.000 A 
ATOM     15  C   UNL     1      -5.661  -3.947 136.198  0.00  0.00    +0.000 A 
ATOM     16  C   UNL     1      -5.856  -2.679 135.671  0.00  0.00    +0.000 A 
ATOM     17 CL   UNL     1      -5.356  -1.268 136.507  0.00  0.00    +0.000 Cl
ATOM     18  C   UNL     1      -6.478  -2.524 134.432  0.00  0.00    +0.000 A 
ATOM     19  C   UNL     1      -5.448  -5.112 132.840  0.00  0.00    +0.000 A 
ATOM     20  C   UNL     1      -5.327  -4.192 131.731  0.00  0.00    +0.000 A 
ENDBRANCH   9  10
ENDBRANCH   6   8
ENDBRANCH   1   2
BRANCH   1  21
ATOM     21  S   UNL     1      -6.748   0.961 124.939  0.00  0.00    +0.000 S 
BRANCH  21  22
ATOM     22  C   UNL     1      -5.707   2.214 125.578  0.00  0.00    +0.000 C 
BRANCH  22  23
ATOM     23  C   UNL     1      -5.975   3.604 124.986  0.00  0.00    +0.000 C 
ATOM     24  C   UNL     1      -6.245   3.919 123.508  0.00  0.00    +0.000 C 
ATOM     25  C   UNL     1      -4.945   4.345 124.122  0.00  0.00    +0.000 C 
BRANCH  23  26
ATOM     26  C   UNL     1      -6.721   4.408 126.025  0.00  0.00    +0.000 C 
BRANCH  26  27
ATOM     27  C   UNL     1      -8.153   4.634 125.593  0.00  0.00    +0.000 C 
ATOM     28  O   UNL     1      -8.961   3.726 125.314  0.00  0.00    +0.000 OA
BRANCH  27  29
ATOM     29  O   UNL     1      -8.500   5.924 125.493  0.00  0.00    +0.000 OA
ATOM     30  H   UNL     1      -7.997   6.509 126.091  0.00  0.00    +0.000 HD
ENDBRANCH  27  29
ENDBRANCH  26  27
ENDBRANCH  23  26
ENDBRANCH  22  23
ENDBRANCH  21  22
ENDBRANCH   1  21
BRANCH   1  31
ATOM     31  C   UNL     1      -7.455   1.015 127.642  0.00  0.00    +0.000 C 
BRANCH  31  32
ATOM     32  C   UNL     1      -8.401   2.030 128.296  0.00  0.00    +0.000 C 
BRANCH  32  33
ATOM     33  C   UNL     1      -8.639   1.721 129.726  0.00  0.00    +0.000 A 
ATOM     34  C   UNL     1      -8.183   0.450 130.100  0.00  0.00    +0.000 A 
ATOM     35  C   UNL     1      -8.524  -0.077 131.325  0.00  0.00    +0.000 A 
ATOM     36  C   UNL     1      -9.239   0.705 132.218  0.00  0.00    +0.000 A 
ATOM     37  C   UNL     1      -9.622   2.010 131.881  0.00  0.00    +0.000 A 
ATOM     38  C   UNL     1      -9.323   2.576 130.625  0.00  0.00    +0.000 A 
BRANCH  38  39
ATOM     39  C   UNL     1      -9.724   4.051 130.364  0.00  0.00    +0.000 C 
ATOM     40  C   UNL     1      -9.733   4.829 131.687  0.00  0.00    +0.000 C 
ATOM     41  C   UNL     1      -8.866   4.923 129.449  0.00  0.00    +0.000 C 
BRANCH  39  42
ATOM     42  O   UNL     1     -11.031   4.092 129.779  0.00  0.00    +0.000 OA
ATOM     43  H   UNL     1     -11.252   3.205 129.464  0.00  0.00    +0.000 HD
ENDBRANCH  39  42
ENDBRANCH  38  39
ENDBRANCH  32  33
ENDBRANCH  31  32
ENDBRANCH   1  31
TORSDOF 14
ENDMDL
