MODEL 1
REMARK VINA RESULT:      -7.9      0.000      0.000
REMARK  Name = Moricizine
REMARK  7 active torsions:
REMARK  status: ('A' for Active; 'I' for Inactive)
REMARK    1  A    between atoms: C_1  and  C_2
REMARK    2  A    between atoms: C_2  and  O_3
REMARK    3  A    between atoms: O_3  and  C_4
REMARK    4  A    between atoms: N_6  and  C_7
REMARK    5  A    between atoms: C_19  and  C_21
REMARK    6  A    between atoms: C_21  and  C_22
REMARK    7  A    between atoms: C_22  and  N_23
REMARK                            x       y       z     vdW  Elec       q    Type
REMARK                         _______ _______ _______ _____ _____    ______ ____
ROOT
ATOM      1  C   UNL     1     -11.137   6.592 130.459  0.00  0.00    +0.000 A 
ATOM      2  C   UNL     1      -9.837   6.712 130.965  0.00  0.00    +0.000 A 
ATOM      3  C   UNL     1      -9.019   5.590 131.200  0.00  0.00    +0.000 A 
ATOM      4  C   UNL     1      -9.535   4.317 130.931  0.00  0.00    +0.000 A 
ATOM      5  S   UNL     1      -8.544   2.859 131.188  0.00  0.00    +0.000 S 
ATOM      6  C   UNL     1      -7.635   3.451 132.601  0.00  0.00    +0.000 A 
ATOM      7  C   UNL     1      -7.253   2.534 133.589  0.00  0.00    +0.000 A 
ATOM      8  C   UNL     1      -6.556   2.959 134.721  0.00  0.00    +0.000 A 
ATOM      9  C   UNL     1      -6.254   4.303 134.879  0.00  0.00    +0.000 A 
ATOM     10  C   UNL     1      -6.653   5.219 133.908  0.00  0.00    +0.000 A 
ATOM     11  C   UNL     1      -7.306   4.810 132.733  0.00  0.00    +0.000 A 
ATOM     12  N   UNL     1      -7.700   5.769 131.746  0.00  0.00    +0.000 N 
ATOM     13  C   UNL     1      -6.870   6.776 131.228  0.00  0.00    +0.000 C 
ATOM     14  O   UNL     1      -7.223   7.562 130.344  0.00  0.00    +0.000 OA
ATOM     15  C   UNL     1     -10.836   4.184 130.430  0.00  0.00    +0.000 A 
ATOM     16  C   UNL     1     -11.645   5.314 130.218  0.00  0.00    +0.000 A 
ENDROOT
BRANCH   1  19
ATOM     17  C   UNL     1     -11.883   8.411 128.985  0.00  0.00    +0.000 C 
ATOM     18  O   UNL     1     -11.217   8.065 128.010  0.00  0.00    +0.000 OA
ATOM     19  N   UNL     1     -11.916   7.751 130.202  0.00  0.00    +0.000 N 
ATOM     20  H   UNL     1     -12.671   7.993 130.829  0.00  0.00    +0.000 HD
BRANCH  17  21
ATOM     21  O   UNL     1     -12.731   9.488 128.945  0.00  0.00    +0.000 OA
BRANCH  21  23
ATOM     22  C   UNL     1     -13.599  11.372 130.248  0.00  0.00    +0.000 C 
ATOM     23  C   UNL     1     -13.155   9.918 130.262  0.00  0.00    +0.000 C 
ENDBRANCH  21  23
ENDBRANCH  17  21
ENDBRANCH   1  19
BRANCH  13  24
ATOM     24  C   UNL     1      -5.438   6.830 131.724  0.00  0.00    +0.000 C 
BRANCH  24  25
ATOM     25  C   UNL     1      -4.469   6.977 130.566  0.00  0.00    +0.000 C 
BRANCH  25  26
ATOM     26  N   UNL     1      -3.478   5.878 130.552  0.00  0.00    +0.000 NA
ATOM     27  C   UNL     1      -2.194   6.302 129.932  0.00  0.00    +0.000 C 
ATOM     28  C   UNL     1      -2.332   6.656 128.441  0.00  0.00    +0.000 C 
ATOM     29  O   UNL     1      -2.882   5.558 127.700  0.00  0.00    +0.000 OA
ATOM     30  C   UNL     1      -4.146   5.151 128.248  0.00  0.00    +0.000 C 
ATOM     31  C   UNL     1      -4.010   4.764 129.730  0.00  0.00    +0.000 C 
ENDBRANCH  25  26
ENDBRANCH  24  25
ENDBRANCH  13  24
TORSDOF 6
ENDMDL
MODEL 2
REMARK VINA RESULT:      -7.8      4.295      6.131
REMARK  Name = Moricizine
REMARK  7 active torsions:
REMARK  status: ('A' for Active; 'I' for Inactive)
REMARK    1  A    between atoms: C_1  and  C_2
REMARK    2  A    between atoms: C_2  and  O_3
REMARK    3  A    between atoms: O_3  and  C_4
REMARK    4  A    between atoms: N_6  and  C_7
REMARK    5  A    between atoms: C_19  and  C_21
REMARK    6  A    between atoms: C_21  and  C_22
REMARK    7  A    between atoms: C_22  and  N_23
REMARK                            x       y       z     vdW  Elec       q    Type
REMARK                         _______ _______ _______ _____ _____    ______ ____
ROOT
ATOM      1  C   UNL     1      -9.221   6.352 130.234  0.00  0.00    +0.000 A 
ATOM      2  C   UNL     1      -8.856   5.284 129.405  0.00  0.00    +0.000 A 
ATOM      3  C   UNL     1      -7.591   4.671 129.488  0.00  0.00    +0.000 A 
ATOM      4  C   UNL     1      -6.670   5.160 130.422  0.00  0.00    +0.000 A 
ATOM      5  S   UNL     1      -5.061   4.414 130.591  0.00  0.00    +0.000 S 
ATOM      6  C   UNL     1      -4.834   3.976 128.879  0.00  0.00    +0.000 A 
ATOM      7  C   UNL     1      -3.541   4.005 128.342  0.00  0.00    +0.000 A 
ATOM      8  C   UNL     1      -3.322   3.688 127.001  0.00  0.00    +0.000 A 
ATOM      9  C   UNL     1      -4.396   3.359 126.187  0.00  0.00    +0.000 A 
ATOM     10  C   UNL     1      -5.684   3.352 126.714  0.00  0.00    +0.000 A 
ATOM     11  C   UNL     1      -5.925   3.613 128.074  0.00  0.00    +0.000 A 
ATOM     12  N   UNL     1      -7.259   3.593 128.595  0.00  0.00    +0.000 N 
ATOM     13  C   UNL     1      -8.194   2.570 128.372  0.00  0.00    +0.000 C 
ATOM     14  O   UNL     1      -9.323   2.558 128.870  0.00  0.00    +0.000 OA
ATOM     15  C   UNL     1      -7.021   6.231 131.253  0.00  0.00    +0.000 A 
ATOM     16  C   UNL     1      -8.281   6.844 131.143  0.00  0.00    +0.000 A 
ENDROOT
BRANCH   1  19
ATOM     17  C   UNL     1     -10.819   7.945 129.261  0.00  0.00    +0.000 C 
ATOM     18  O   UNL     1     -10.027   8.448 128.465  0.00  0.00    +0.000 OA
ATOM     19  N   UNL     1     -10.519   6.920 130.142  0.00  0.00    +0.000 N 
ATOM     20  H   UNL     1     -11.303   6.441 130.565  0.00  0.00    +0.000 HD
BRANCH  17  21
ATOM     21  O   UNL     1     -12.135   8.323 129.319  0.00  0.00    +0.000 OA
BRANCH  21  23
ATOM     22  C   UNL     1     -13.483   7.081 127.693  0.00  0.00    +0.000 C 
ATOM     23  C   UNL     1     -13.047   7.211 129.144  0.00  0.00    +0.000 C 
ENDBRANCH  21  23
ENDBRANCH  17  21
ENDBRANCH   1  19
BRANCH  13  24
ATOM     24  C   UNL     1      -7.747   1.378 127.546  0.00  0.00    +0.000 C 
BRANCH  24  25
ATOM     25  C   UNL     1      -8.730   1.098 126.425  0.00  0.00    +0.000 C 
BRANCH  25  26
ATOM     26  N   UNL     1      -8.174   1.493 125.111  0.00  0.00    +0.000 NA
ATOM     27  C   UNL     1      -9.181   2.197 124.274  0.00  0.00    +0.000 C 
ATOM     28  C   UNL     1     -10.373   1.305 123.886  0.00  0.00    +0.000 C 
ATOM     29  O   UNL     1      -9.929   0.121 123.207  0.00  0.00    +0.000 OA
ATOM     30  C   UNL     1      -8.985  -0.607 124.008  0.00  0.00    +0.000 C 
ATOM     31  C   UNL     1      -7.775   0.270 124.373  0.00  0.00    +0.000 C 
ENDBRANCH  25  26
ENDBRANCH  24  25
ENDBRANCH  13  24
TORSDOF 6
ENDMDL
MODEL 3
REMARK VINA RESULT:      -7.5      5.614      8.434
REMARK  Name = Moricizine
REMARK  7 active torsions:
REMARK  status: ('A' for Active; 'I' for Inactive)
REMARK    1  A    between atoms: C_1  and  C_2
REMARK    2  A    between atoms: C_2  and  O_3
REMARK    3  A    between atoms: O_3  and  C_4
REMARK    4  A    between atoms: N_6  and  C_7
REMARK    5  A    between atoms: C_19  and  C_21
REMARK    6  A    between atoms: C_21  and  C_22
REMARK    7  A    between atoms: C_22  and  N_23
REMARK                            x       y       z     vdW  Elec       q    Type
REMARK                         _______ _______ _______ _____ _____    ______ ____
ROOT
ATOM      1  C   UNL     1      -7.498   1.223 123.872  0.00  0.00    +0.000 A 
ATOM      2  C   UNL     1      -7.428   1.480 125.246  0.00  0.00    +0.000 A 
ATOM      3  C   UNL     1      -6.879   2.671 125.758  0.00  0.00    +0.000 A 
ATOM      4  C   UNL     1      -6.377   3.618 124.858  0.00  0.00    +0.000 A 
ATOM      5  S   UNL     1      -5.688   5.154 125.441  0.00  0.00    +0.000 S 
ATOM      6  C   UNL     1      -4.987   4.527 126.954  0.00  0.00    +0.000 A 
ATOM      7  C   UNL     1      -3.799   5.095 127.432  0.00  0.00    +0.000 A 
ATOM      8  C   UNL     1      -3.207   4.621 128.603  0.00  0.00    +0.000 A 
ATOM      9  C   UNL     1      -3.788   3.566 129.290  0.00  0.00    +0.000 A 
ATOM     10  C   UNL     1      -4.957   2.986 128.804  0.00  0.00    +0.000 A 
ATOM     11  C   UNL     1      -5.603   3.481 127.659  0.00  0.00    +0.000 A 
ATOM     12  N   UNL     1      -6.809   2.872 127.181  0.00  0.00    +0.000 N 
ATOM     13  C   UNL     1      -7.922   2.562 127.977  0.00  0.00    +0.000 C 
ATOM     14  O   UNL     1      -8.966   2.077 127.530  0.00  0.00    +0.000 OA
ATOM     15  C   UNL     1      -6.436   3.371 123.481  0.00  0.00    +0.000 A 
ATOM     16  C   UNL     1      -6.970   2.167 122.988  0.00  0.00    +0.000 A 
ENDROOT
BRANCH   1  19
ATOM     17  C   UNL     1      -9.460  -0.109 123.227  0.00  0.00    +0.000 C 
ATOM     18  O   UNL     1     -10.288   0.776 123.439  0.00  0.00    +0.000 OA
ATOM     19  N   UNL     1      -8.092   0.025 123.395  0.00  0.00    +0.000 N 
ATOM     20  H   UNL     1      -7.511  -0.683 122.966  0.00  0.00    +0.000 HD
BRANCH  17  21
ATOM     21  O   UNL     1      -9.814  -1.337 122.733  0.00  0.00    +0.000 OA
BRANCH  21  23
ATOM     22  C   UNL     1      -9.389  -3.408 123.970  0.00  0.00    +0.000 C 
ATOM     23  C   UNL     1      -8.831  -2.362 123.018  0.00  0.00    +0.000 C 
ENDBRANCH  21  23
ENDBRANCH  17  21
ENDBRANCH   1  19
BRANCH  13  24
ATOM     24  C   UNL     1      -7.860   2.931 129.447  0.00  0.00    +0.000 C 
BRANCH  24  25
ATOM     25  C   UNL     1      -8.575   4.244 129.706  0.00  0.00    +0.000 C 
BRANCH  25  26
ATOM     26  N   UNL     1      -9.715   4.061 130.632  0.00  0.00    +0.000 NA
ATOM     27  C   UNL     1     -10.735   5.131 130.469  0.00  0.00    +0.000 C 
ATOM     28  C   UNL     1     -10.210   6.527 130.846  0.00  0.00    +0.000 C 
ATOM     29  O   UNL     1      -9.710   6.543 132.190  0.00  0.00    +0.000 OA
ATOM     30  C   UNL     1      -8.691   5.547 132.371  0.00  0.00    +0.000 C 
ATOM     31  C   UNL     1      -9.218   4.144 132.026  0.00  0.00    +0.000 C 
ENDBRANCH  25  26
ENDBRANCH  24  25
ENDBRANCH  13  24
TORSDOF 6
ENDMDL
MODEL 4
REMARK VINA RESULT:      -7.5      6.368      8.322
REMARK  Name = Moricizine
REMARK  7 active torsions:
REMARK  status: ('A' for Active; 'I' for Inactive)
REMARK    1  A    between atoms: C_1  and  C_2
REMARK    2  A    between atoms: C_2  and  O_3
REMARK    3  A    between atoms: O_3  and  C_4
REMARK    4  A    between atoms: N_6  and  C_7
REMARK    5  A    between atoms: C_19  and  C_21
REMARK    6  A    between atoms: C_21  and  C_22
REMARK    7  A    between atoms: C_22  and  N_23
REMARK                            x       y       z     vdW  Elec       q    Type
REMARK                         _______ _______ _______ _____ _____    ______ ____
ROOT
ATOM      1  C   UNL     1      -7.829  -2.520 127.494  0.00  0.00    +0.000 A 
ATOM      2  C   UNL     1      -7.708  -1.129 127.593  0.00  0.00    +0.000 A 
ATOM      3  C   UNL     1      -7.647  -0.469 128.835  0.00  0.00    +0.000 A 
ATOM      4  C   UNL     1      -7.725  -1.235 130.004  0.00  0.00    +0.000 A 
ATOM      5  S   UNL     1      -7.632  -0.463 131.607  0.00  0.00    +0.000 S 
ATOM      6  C   UNL     1      -8.459   1.055 131.175  0.00  0.00    +0.000 A 
ATOM      7  C   UNL     1      -9.247   1.692 132.142  0.00  0.00    +0.000 A 
ATOM      8  C   UNL     1      -9.927   2.872 131.839  0.00  0.00    +0.000 A 
ATOM      9  C   UNL     1      -9.838   3.410 130.563  0.00  0.00    +0.000 A 
ATOM     10  C   UNL     1      -9.073   2.765 129.595  0.00  0.00    +0.000 A 
ATOM     11  C   UNL     1      -8.334   1.607 129.890  0.00  0.00    +0.000 A 
ATOM     12  N   UNL     1      -7.548   0.965 128.878  0.00  0.00    +0.000 N 
ATOM     13  C   UNL     1      -6.647   1.621 128.025  0.00  0.00    +0.000 C 
ATOM     14  O   UNL     1      -5.950   1.035 127.191  0.00  0.00    +0.000 OA
ATOM     15  C   UNL     1      -7.851  -2.627 129.920  0.00  0.00    +0.000 A 
ATOM     16  C   UNL     1      -7.930  -3.267 128.670  0.00  0.00    +0.000 A 
ENDROOT
BRANCH   1  19
ATOM     17  C   UNL     1      -9.001  -3.222 125.451  0.00  0.00    +0.000 C 
ATOM     18  O   UNL     1     -10.090  -2.742 125.759  0.00  0.00    +0.000 OA
ATOM     19  N   UNL     1      -7.852  -3.149 126.222  0.00  0.00    +0.000 N 
ATOM     20  H   UNL     1      -6.980  -3.369 125.758  0.00  0.00    +0.000 HD
BRANCH  17  21
ATOM     21  O   UNL     1      -8.792  -3.847 124.249  0.00  0.00    +0.000 OA
BRANCH  21  23
ATOM     22  C   UNL     1      -8.429  -1.980 122.705  0.00  0.00    +0.000 C 
ATOM     23  C   UNL     1      -9.348  -3.115 123.130  0.00  0.00    +0.000 C 
ENDBRANCH  21  23
ENDBRANCH  17  21
ENDBRANCH   1  19
BRANCH  13  24
ATOM     24  C   UNL     1      -6.465   3.115 128.210  0.00  0.00    +0.000 C 
BRANCH  24  25
ATOM     25  C   UNL     1      -5.854   3.743 126.971  0.00  0.00    +0.000 C 
BRANCH  25  26
ATOM     26  N   UNL     1      -6.796   4.686 126.327  0.00  0.00    +0.000 NA
ATOM     27  C   UNL     1      -7.995   3.988 125.791  0.00  0.00    +0.000 C 
ATOM     28  C   UNL     1      -7.663   3.006 124.654  0.00  0.00    +0.000 C 
ATOM     29  O   UNL     1      -6.978   3.671 123.583  0.00  0.00    +0.000 OA
ATOM     30  C   UNL     1      -5.789   4.322 124.060  0.00  0.00    +0.000 C 
ATOM     31  C   UNL     1      -6.117   5.329 125.175  0.00  0.00    +0.000 C 
ENDBRANCH  25  26
ENDBRANCH  24  25
ENDBRANCH  13  24
TORSDOF 6
ENDMDL
MODEL 5
REMARK VINA RESULT:      -7.4      6.030      8.004
REMARK  Name = Moricizine
REMARK  7 active torsions:
REMARK  status: ('A' for Active; 'I' for Inactive)
REMARK    1  A    between atoms: C_1  and  C_2
REMARK    2  A    between atoms: C_2  and  O_3
REMARK    3  A    between atoms: O_3  and  C_4
REMARK    4  A    between atoms: N_6  and  C_7
REMARK    5  A    between atoms: C_19  and  C_21
REMARK    6  A    between atoms: C_21  and  C_22
REMARK    7  A    between atoms: C_22  and  N_23
REMARK                            x       y       z     vdW  Elec       q    Type
REMARK                         _______ _______ _______ _____ _____    ______ ____
ROOT
ATOM      1  C   UNL     1      -7.744  -2.455 127.165  0.00  0.00    +0.000 A 
ATOM      2  C   UNL     1      -7.540  -1.108 127.483  0.00  0.00    +0.000 A 
ATOM      3  C   UNL     1      -7.605  -0.633 128.807  0.00  0.00    +0.000 A 
ATOM      4  C   UNL     1      -7.899  -1.542 129.830  0.00  0.00    +0.000 A 
ATOM      5  S   UNL     1      -7.975  -1.009 131.528  0.00  0.00    +0.000 S 
ATOM      6  C   UNL     1      -8.626   0.622 131.224  0.00  0.00    +0.000 A 
ATOM      7  C   UNL     1      -9.493   1.188 132.166  0.00  0.00    +0.000 A 
ATOM      8  C   UNL     1     -10.040   2.454 131.957  0.00  0.00    +0.000 A 
ATOM      9  C   UNL     1      -9.737   3.152 130.798  0.00  0.00    +0.000 A 
ATOM     10  C   UNL     1      -8.892   2.581 129.850  0.00  0.00    +0.000 A 
ATOM     11  C   UNL     1      -8.285   1.332 130.061  0.00  0.00    +0.000 A 
ATOM     12  N   UNL     1      -7.413   0.767 129.074  0.00  0.00    +0.000 N 
ATOM     13  C   UNL     1      -6.359   1.451 128.449  0.00  0.00    +0.000 C 
ATOM     14  O   UNL     1      -5.595   0.925 127.634  0.00  0.00    +0.000 OA
ATOM     15  C   UNL     1      -8.109  -2.892 129.525  0.00  0.00    +0.000 A 
ATOM     16  C   UNL     1      -8.059  -3.345 128.195  0.00  0.00    +0.000 A 
ENDROOT
BRANCH   1  19
ATOM     17  C   UNL     1      -8.704  -2.873 124.941  0.00  0.00    +0.000 C 
ATOM     18  O   UNL     1      -9.829  -2.453 125.209  0.00  0.00    +0.000 OA
ATOM     19  N   UNL     1      -7.634  -2.899 125.821  0.00  0.00    +0.000 N 
ATOM     20  H   UNL     1      -6.718  -3.042 125.416  0.00  0.00    +0.000 HD
BRANCH  17  21
ATOM     21  O   UNL     1      -8.370  -3.321 123.690  0.00  0.00    +0.000 OA
BRANCH  21  23
ATOM     22  C   UNL     1      -6.767  -1.852 122.562  0.00  0.00    +0.000 C 
ATOM     23  C   UNL     1      -8.226  -2.247 122.728  0.00  0.00    +0.000 C 
ENDBRANCH  21  23
ENDBRANCH  17  21
ENDBRANCH   1  19
BRANCH  13  24
ATOM     24  C   UNL     1      -6.099   2.883 128.875  0.00  0.00    +0.000 C 
BRANCH  24  25
ATOM     25  C   UNL     1      -4.610   3.161 128.958  0.00  0.00    +0.000 C 
BRANCH  25  26
ATOM     26  N   UNL     1      -4.277   4.484 128.381  0.00  0.00    +0.000 NA
ATOM     27  C   UNL     1      -4.814   4.635 127.002  0.00  0.00    +0.000 C 
ATOM     28  C   UNL     1      -4.180   3.656 125.999  0.00  0.00    +0.000 C 
ATOM     29  O   UNL     1      -2.752   3.795 125.975  0.00  0.00    +0.000 OA
ATOM     30  C   UNL     1      -2.197   3.613 127.288  0.00  0.00    +0.000 C 
ATOM     31  C   UNL     1      -2.803   4.609 128.290  0.00  0.00    +0.000 C 
ENDBRANCH  25  26
ENDBRANCH  24  25
ENDBRANCH  13  24
TORSDOF 6
ENDMDL
MODEL 6
REMARK VINA RESULT:      -7.3      4.076      6.043
REMARK  Name = Moricizine
REMARK  7 active torsions:
REMARK  status: ('A' for Active; 'I' for Inactive)
REMARK    1  A    between atoms: C_1  and  C_2
REMARK    2  A    between atoms: C_2  and  O_3
REMARK    3  A    between atoms: O_3  and  C_4
REMARK    4  A    between atoms: N_6  and  C_7
REMARK    5  A    between atoms: C_19  and  C_21
REMARK    6  A    between atoms: C_21  and  C_22
REMARK    7  A    between atoms: C_22  and  N_23
REMARK                            x       y       z     vdW  Elec       q    Type
REMARK                         _______ _______ _______ _____ _____    ______ ____
ROOT
ATOM      1  C   UNL     1      -8.970   6.214 130.370  0.00  0.00    +0.000 A 
ATOM      2  C   UNL     1      -8.608   5.220 129.453  0.00  0.00    +0.000 A 
ATOM      3  C   UNL     1      -7.336   4.617 129.466  0.00  0.00    +0.000 A 
ATOM      4  C   UNL     1      -6.404   5.041 130.421  0.00  0.00    +0.000 A 
ATOM      5  S   UNL     1      -4.785   4.304 130.504  0.00  0.00    +0.000 S 
ATOM      6  C   UNL     1      -4.582   4.007 128.759  0.00  0.00    +0.000 A 
ATOM      7  C   UNL     1      -3.299   4.095 128.205  0.00  0.00    +0.000 A 
ATOM      8  C   UNL     1      -3.099   3.888 126.840  0.00  0.00    +0.000 A 
ATOM      9  C   UNL     1      -4.183   3.613 126.019  0.00  0.00    +0.000 A 
ATOM     10  C   UNL     1      -5.462   3.548 126.565  0.00  0.00    +0.000 A 
ATOM     11  C   UNL     1      -5.683   3.696 127.945  0.00  0.00    +0.000 A 
ATOM     12  N   UNL     1      -7.008   3.619 128.484  0.00  0.00    +0.000 N 
ATOM     13  C   UNL     1      -7.935   2.606 128.194  0.00  0.00    +0.000 C 
ATOM     14  O   UNL     1      -9.055   2.540 128.708  0.00  0.00    +0.000 OA
ATOM     15  C   UNL     1      -6.752   6.038 131.341  0.00  0.00    +0.000 A 
ATOM     16  C   UNL     1      -8.021   6.643 131.301  0.00  0.00    +0.000 A 
ENDROOT
BRANCH   1  19
ATOM     17  C   UNL     1     -10.638   7.771 129.458  0.00  0.00    +0.000 C 
ATOM     18  O   UNL     1      -9.901   8.258 128.602  0.00  0.00    +0.000 OA
ATOM     19  N   UNL     1     -10.276   6.771 130.345  0.00  0.00    +0.000 N 
ATOM     20  H   UNL     1     -11.029   6.299 130.829  0.00  0.00    +0.000 HD
BRANCH  17  21
ATOM     21  O   UNL     1     -11.951   8.143 129.588  0.00  0.00    +0.000 OA
BRANCH  21  23
ATOM     22  C   UNL     1     -13.486   7.358 127.847  0.00  0.00    +0.000 C 
ATOM     23  C   UNL     1     -12.570   8.475 128.321  0.00  0.00    +0.000 C 
ENDBRANCH  21  23
ENDBRANCH  17  21
ENDBRANCH   1  19
BRANCH  13  24
ATOM     24  C   UNL     1      -7.489   1.489 127.268  0.00  0.00    +0.000 C 
BRANCH  24  25
ATOM     25  C   UNL     1      -7.897   0.136 127.818  0.00  0.00    +0.000 C 
BRANCH  25  26
ATOM     26  N   UNL     1      -6.729  -0.602 128.350  0.00  0.00    +0.000 NA
ATOM     27  C   UNL     1      -6.782  -2.046 127.999  0.00  0.00    +0.000 C 
ATOM     28  C   UNL     1      -7.971  -2.780 128.643  0.00  0.00    +0.000 C 
ATOM     29  O   UNL     1      -7.954  -2.634 130.070  0.00  0.00    +0.000 OA
ATOM     30  C   UNL     1      -7.945  -1.247 130.445  0.00  0.00    +0.000 C 
ATOM     31  C   UNL     1      -6.741  -0.514 129.830  0.00  0.00    +0.000 C 
ENDBRANCH  25  26
ENDBRANCH  24  25
ENDBRANCH  13  24
TORSDOF 6
ENDMDL
MODEL 7
REMARK VINA RESULT:      -7.2      6.949     10.411
REMARK  Name = Moricizine
REMARK  7 active torsions:
REMARK  status: ('A' for Active; 'I' for Inactive)
REMARK    1  A    between atoms: C_1  and  C_2
REMARK    2  A    between atoms: C_2  and  O_3
REMARK    3  A    between atoms: O_3  and  C_4
REMARK    4  A    between atoms: N_6  and  C_7
REMARK    5  A    between atoms: C_19  and  C_21
REMARK    6  A    between atoms: C_21  and  C_22
REMARK    7  A    between atoms: C_22  and  N_23
REMARK                            x       y       z     vdW  Elec       q    Type
REMARK                         _______ _______ _______ _____ _____    ______ ____
ROOT
ATOM      1  C   UNL     1      -4.563  -3.047 130.559  0.00  0.00    +0.000 A 
ATOM      2  C   UNL     1      -4.617  -2.176 129.464  0.00  0.00    +0.000 A 
ATOM      3  C   UNL     1      -5.723  -2.136 128.593  0.00  0.00    +0.000 A 
ATOM      4  C   UNL     1      -6.793  -3.008 128.829  0.00  0.00    +0.000 A 
ATOM      5  S   UNL     1      -8.230  -2.992 127.778  0.00  0.00    +0.000 S 
ATOM      6  C   UNL     1      -7.393  -2.592 126.257  0.00  0.00    +0.000 A 
ATOM      7  C   UNL     1      -7.890  -3.115 125.056  0.00  0.00    +0.000 A 
ATOM      8  C   UNL     1      -7.253  -2.842 123.845  0.00  0.00    +0.000 A 
ATOM      9  C   UNL     1      -6.107  -2.061 123.831  0.00  0.00    +0.000 A 
ATOM     10  C   UNL     1      -5.600  -1.559 125.027  0.00  0.00    +0.000 A 
ATOM     11  C   UNL     1      -6.253  -1.772 126.252  0.00  0.00    +0.000 A 
ATOM     12  N   UNL     1      -5.715  -1.240 127.468  0.00  0.00    +0.000 N 
ATOM     13  C   UNL     1      -5.289   0.086 127.645  0.00  0.00    +0.000 C 
ATOM     14  O   UNL     1      -4.871   0.529 128.719  0.00  0.00    +0.000 OA
ATOM     15  C   UNL     1      -6.749  -3.887 129.918  0.00  0.00    +0.000 A 
ATOM     16  C   UNL     1      -5.627  -3.927 130.766  0.00  0.00    +0.000 A 
ENDROOT
BRANCH   1  19
ATOM     17  C   UNL     1      -3.444  -2.323 132.623  0.00  0.00    +0.000 C 
ATOM     18  O   UNL     1      -4.391  -1.670 133.058  0.00  0.00    +0.000 OA
ATOM     19  N   UNL     1      -3.444  -3.031 131.432  0.00  0.00    +0.000 N 
ATOM     20  H   UNL     1      -2.704  -3.709 131.307  0.00  0.00    +0.000 HD
BRANCH  17  21
ATOM     21  O   UNL     1      -2.274  -2.467 133.323  0.00  0.00    +0.000 OA
BRANCH  21  23
ATOM     22  C   UNL     1      -0.284  -1.342 134.205  0.00  0.00    +0.000 C 
ATOM     23  C   UNL     1      -1.742  -1.205 133.794  0.00  0.00    +0.000 C 
ENDBRANCH  21  23
ENDBRANCH  17  21
ENDBRANCH   1  19
BRANCH  13  24
ATOM     24  C   UNL     1      -5.441   1.035 126.472  0.00  0.00    +0.000 C 
BRANCH  24  25
ATOM     25  C   UNL     1      -6.545   2.043 126.731  0.00  0.00    +0.000 C 
BRANCH  25  26
ATOM     26  N   UNL     1      -5.992   3.394 126.978  0.00  0.00    +0.000 NA
ATOM     27  C   UNL     1      -6.489   3.968 128.257  0.00  0.00    +0.000 C 
ATOM     28  C   UNL     1      -8.007   4.215 128.258  0.00  0.00    +0.000 C 
ATOM     29  O   UNL     1      -8.391   5.067 127.170  0.00  0.00    +0.000 OA
ATOM     30  C   UNL     1      -7.962   4.520 125.913  0.00  0.00    +0.000 C 
ATOM     31  C   UNL     1      -6.440   4.300 125.893  0.00  0.00    +0.000 C 
ENDBRANCH  25  26
ENDBRANCH  24  25
ENDBRANCH  13  24
TORSDOF 6
ENDMDL
MODEL 8
REMARK VINA RESULT:      -7.1      4.919      8.030
REMARK  Name = Moricizine
REMARK  7 active torsions:
REMARK  status: ('A' for Active; 'I' for Inactive)
REMARK    1  A    between atoms: C_1  and  C_2
REMARK    2  A    between atoms: C_2  and  O_3
REMARK    3  A    between atoms: O_3  and  C_4
REMARK    4  A    between atoms: N_6  and  C_7
REMARK    5  A    between atoms: C_19  and  C_21
REMARK    6  A    between atoms: C_21  and  C_22
REMARK    7  A    between atoms: C_22  and  N_23
REMARK                            x       y       z     vdW  Elec       q    Type
REMARK                         _______ _______ _______ _____ _____    ______ ____
ROOT
ATOM      1  C   UNL     1      -7.262   0.328 126.387  0.00  0.00    +0.000 A 
ATOM      2  C   UNL     1      -7.400   1.164 127.501  0.00  0.00    +0.000 A 
ATOM      3  C   UNL     1      -6.805   2.439 127.559  0.00  0.00    +0.000 A 
ATOM      4  C   UNL     1      -6.041   2.871 126.469  0.00  0.00    +0.000 A 
ATOM      5  S   UNL     1      -5.280   4.482 126.471  0.00  0.00    +0.000 S 
ATOM      6  C   UNL     1      -4.935   4.566 128.217  0.00  0.00    +0.000 A 
ATOM      7  C   UNL     1      -3.787   5.245 128.645  0.00  0.00    +0.000 A 
ATOM      8  C   UNL     1      -3.469   5.318 130.001  0.00  0.00    +0.000 A 
ATOM      9  C   UNL     1      -4.287   4.697 130.934  0.00  0.00    +0.000 A 
ATOM     10  C   UNL     1      -5.416   4.002 130.508  0.00  0.00    +0.000 A 
ATOM     11  C   UNL     1      -5.788   3.961 129.154  0.00  0.00    +0.000 A 
ATOM     12  N   UNL     1      -6.958   3.246 128.740  0.00  0.00    +0.000 N 
ATOM     13  C   UNL     1      -8.222   3.360 129.339  0.00  0.00    +0.000 C 
ATOM     14  O   UNL     1      -9.225   2.764 128.933  0.00  0.00    +0.000 OA
ATOM     15  C   UNL     1      -5.891   2.043 125.350  0.00  0.00    +0.000 A 
ATOM     16  C   UNL     1      -6.476   0.765 125.317  0.00  0.00    +0.000 A 
ENDROOT
BRANCH   1  19
ATOM     17  C   UNL     1      -9.182  -1.104 125.839  0.00  0.00    +0.000 C 
ATOM     18  O   UNL     1      -9.868  -0.212 125.343  0.00  0.00    +0.000 OA
ATOM     19  N   UNL     1      -7.907  -0.936 126.354  0.00  0.00    +0.000 N 
ATOM     20  H   UNL     1      -7.366  -1.776 126.510  0.00  0.00    +0.000 HD
BRANCH  17  21
ATOM     21  O   UNL     1      -9.601  -2.409 125.882  0.00  0.00    +0.000 OA
BRANCH  21  23
ATOM     22  C   UNL     1      -9.012  -3.922 127.716  0.00  0.00    +0.000 C 
ATOM     23  C   UNL     1      -8.586  -3.308 126.392  0.00  0.00    +0.000 C 
ENDBRANCH  21  23
ENDBRANCH  17  21
ENDBRANCH   1  19
BRANCH  13  24
ATOM     24  C   UNL     1      -8.371   4.339 130.488  0.00  0.00    +0.000 C 
BRANCH  24  25
ATOM     25  C   UNL     1      -9.804   4.819 130.608  0.00  0.00    +0.000 C 
BRANCH  25  26
ATOM     26  N   UNL     1      -9.876   6.131 131.291  0.00  0.00    +0.000 NA
ATOM     27  C   UNL     1     -11.267   6.463 131.702  0.00  0.00    +0.000 C 
ATOM     28  C   UNL     1     -12.220   6.648 130.508  0.00  0.00    +0.000 C 
ATOM     29  O   UNL     1     -11.732   7.655 129.610  0.00  0.00    +0.000 OA
ATOM     30  C   UNL     1     -10.404   7.342 129.161  0.00  0.00    +0.000 C 
ATOM     31  C   UNL     1      -9.438   7.187 130.348  0.00  0.00    +0.000 C 
ENDBRANCH  25  26
ENDBRANCH  24  25
ENDBRANCH  13  24
TORSDOF 6
ENDMDL
MODEL 9
REMARK VINA RESULT:      -7.1      5.576      6.861
REMARK  Name = Moricizine
REMARK  7 active torsions:
REMARK  status: ('A' for Active; 'I' for Inactive)
REMARK    1  A    between atoms: C_1  and  C_2
REMARK    2  A    between atoms: C_2  and  O_3
REMARK    3  A    between atoms: O_3  and  C_4
REMARK    4  A    between atoms: N_6  and  C_7
REMARK    5  A    between atoms: C_19  and  C_21
REMARK    6  A    between atoms: C_21  and  C_22
REMARK    7  A    between atoms: C_22  and  N_23
REMARK                            x       y       z     vdW  Elec       q    Type
REMARK                         _______ _______ _______ _____ _____    ______ ____
ROOT
ATOM      1  C   UNL     1      -8.415   3.805 130.342  0.00  0.00    +0.000 A 
ATOM      2  C   UNL     1      -8.110   2.859 129.356  0.00  0.00    +0.000 A 
ATOM      3  C   UNL     1      -8.093   1.477 129.625  0.00  0.00    +0.000 A 
ATOM      4  C   UNL     1      -8.376   1.044 130.925  0.00  0.00    +0.000 A 
ATOM      5  S   UNL     1      -8.390  -0.692 131.325  0.00  0.00    +0.000 S 
ATOM      6  C   UNL     1      -7.095  -1.191 130.209  0.00  0.00    +0.000 A 
ATOM      7  C   UNL     1      -6.252  -2.246 130.583  0.00  0.00    +0.000 A 
ATOM      8  C   UNL     1      -5.214  -2.656 129.746  0.00  0.00    +0.000 A 
ATOM      9  C   UNL     1      -5.001  -2.002 128.541  0.00  0.00    +0.000 A 
ATOM     10  C   UNL     1      -5.824  -0.938 128.179  0.00  0.00    +0.000 A 
ATOM     11  C   UNL     1      -6.910  -0.542 128.977  0.00  0.00    +0.000 A 
ATOM     12  N   UNL     1      -7.747   0.550 128.580  0.00  0.00    +0.000 N 
ATOM     13  C   UNL     1      -8.309   0.709 127.304  0.00  0.00    +0.000 C 
ATOM     14  O   UNL     1      -9.063   1.639 127.002  0.00  0.00    +0.000 OA
ATOM     15  C   UNL     1      -8.677   1.980 131.922  0.00  0.00    +0.000 A 
ATOM     16  C   UNL     1      -8.672   3.358 131.641  0.00  0.00    +0.000 A 
ENDROOT
BRANCH   1  19
ATOM     17  C   UNL     1      -9.622   5.821 129.621  0.00  0.00    +0.000 C 
ATOM     18  O   UNL     1     -10.723   5.281 129.526  0.00  0.00    +0.000 OA
ATOM     19  N   UNL     1      -8.457   5.187 130.021  0.00  0.00    +0.000 N 
ATOM     20  H   UNL     1      -7.684   5.784 130.285  0.00  0.00    +0.000 HD
BRANCH  17  21
ATOM     21  O   UNL     1      -9.442   7.159 129.387  0.00  0.00    +0.000 OA
BRANCH  21  23
ATOM     22  C   UNL     1     -10.783   8.356 127.722  0.00  0.00    +0.000 C 
ATOM     23  C   UNL     1     -10.688   7.862 129.157  0.00  0.00    +0.000 C 
ENDBRANCH  21  23
ENDBRANCH  17  21
ENDBRANCH   1  19
BRANCH  13  24
ATOM     24  C   UNL     1      -8.039  -0.375 126.277  0.00  0.00    +0.000 C 
BRANCH  24  25
ATOM     25  C   UNL     1      -9.058  -0.323 125.155  0.00  0.00    +0.000 C 
BRANCH  25  26
ATOM     26  N   UNL     1      -8.404  -0.411 123.830  0.00  0.00    +0.000 NA
ATOM     27  C   UNL     1      -7.554   0.778 123.554  0.00  0.00    +0.000 C 
ATOM     28  C   UNL     1      -8.361   2.084 123.450  0.00  0.00    +0.000 C 
ATOM     29  O   UNL     1      -9.381   1.981 122.446  0.00  0.00    +0.000 OA
ATOM     30  C   UNL     1     -10.247   0.864 122.707  0.00  0.00    +0.000 C 
ATOM     31  C   UNL     1      -9.451  -0.450 122.781  0.00  0.00    +0.000 C 
ENDBRANCH  25  26
ENDBRANCH  24  25
ENDBRANCH  13  24
TORSDOF 6
ENDMDL
