MODEL 1
REMARK VINA RESULT:      -6.1      0.000      0.000
REMARK  Name = Morpholinylmercaptobenzothiazole
REMARK  2 active torsions:
REMARK  status: ('A' for Active; 'I' for Inactive)
REMARK    1  A    between atoms: N_3  and  S_7
REMARK    2  A    between atoms: S_7  and  C_8
REMARK                            x       y       z     vdW  Elec       q    Type
REMARK                         _______ _______ _______ _____ _____    ______ ____
ROOT
ATOM      1  C   UNL     1      -9.410   6.449 131.315  0.00  0.00    +0.000 A 
ATOM      2  N   UNL     1      -9.188   7.155 130.239  0.00  0.00    +0.000 NA
ATOM      3  C   UNL     1     -10.384   7.516 129.660  0.00  0.00    +0.000 A 
ATOM      4  C   UNL     1     -10.512   8.245 128.469  0.00  0.00    +0.000 A 
ATOM      5  C   UNL     1     -11.782   8.496 127.950  0.00  0.00    +0.000 A 
ATOM      6  C   UNL     1     -12.918   8.031 128.609  0.00  0.00    +0.000 A 
ATOM      7  C   UNL     1     -12.818   7.328 129.814  0.00  0.00    +0.000 A 
ATOM      8  C   UNL     1     -11.533   7.094 130.330  0.00  0.00    +0.000 A 
ATOM      9  S   UNL     1     -11.056   6.332 131.791  0.00  0.00    +0.000 S 
ENDROOT
BRANCH   1  10
ATOM     10  S   UNL     1      -8.030   5.912 132.249  0.00  0.00    +0.000 S 
BRANCH  10  13
ATOM     11  C   UNL     1      -9.306   2.918 132.650  0.00  0.00    +0.000 C 
ATOM     12  C   UNL     1      -8.629   3.369 131.349  0.00  0.00    +0.000 C 
ATOM     13  N   UNL     1      -7.588   4.392 131.636  0.00  0.00    +0.000 NA
ATOM     14  C   UNL     1      -6.589   3.669 132.484  0.00  0.00    +0.000 C 
ATOM     15  C   UNL     1      -7.250   3.184 133.790  0.00  0.00    +0.000 C 
ATOM     16  O   UNL     1      -8.349   2.296 133.520  0.00  0.00    +0.000 OA
ENDBRANCH  10  13
ENDBRANCH   1  10
TORSDOF 2
ENDMDL
MODEL 2
REMARK VINA RESULT:      -6.0      2.413      2.801
REMARK  Name = Morpholinylmercaptobenzothiazole
REMARK  2 active torsions:
REMARK  status: ('A' for Active; 'I' for Inactive)
REMARK    1  A    between atoms: N_3  and  S_7
REMARK    2  A    between atoms: S_7  and  C_8
REMARK                            x       y       z     vdW  Elec       q    Type
REMARK                         _______ _______ _______ _____ _____    ______ ____
ROOT
ATOM      1  C   UNL     1      -9.056   6.653 130.958  0.00  0.00    +0.000 A 
ATOM      2  N   UNL     1      -9.079   7.432 129.908  0.00  0.00    +0.000 NA
ATOM      3  C   UNL     1     -10.379   7.649 129.514  0.00  0.00    +0.000 A 
ATOM      4  C   UNL     1     -10.764   8.407 128.398  0.00  0.00    +0.000 A 
ATOM      5  C   UNL     1     -12.115   8.503 128.065  0.00  0.00    +0.000 A 
ATOM      6  C   UNL     1     -13.079   7.856 128.835  0.00  0.00    +0.000 A 
ATOM      7  C   UNL     1     -12.723   7.120 129.970  0.00  0.00    +0.000 A 
ATOM      8  C   UNL     1     -11.360   7.043 130.299  0.00  0.00    +0.000 A 
ATOM      9  S   UNL     1     -10.592   6.289 131.635  0.00  0.00    +0.000 S 
ENDROOT
BRANCH   1  10
ATOM     10  S   UNL     1      -7.503   6.271 131.668  0.00  0.00    +0.000 S 
BRANCH  10  13
ATOM     11  C   UNL     1      -4.834   4.486 131.001  0.00  0.00    +0.000 C 
ATOM     12  C   UNL     1      -5.715   5.109 129.910  0.00  0.00    +0.000 C 
ATOM     13  N   UNL     1      -6.360   6.351 130.415  0.00  0.00    +0.000 NA
ATOM     14  C   UNL     1      -5.214   7.268 130.704  0.00  0.00    +0.000 C 
ATOM     15  C   UNL     1      -4.299   6.654 131.781  0.00  0.00    +0.000 C 
ATOM     16  O   UNL     1      -3.773   5.384 131.358  0.00  0.00    +0.000 OA
ENDBRANCH  10  13
ENDBRANCH   1  10
TORSDOF 2
ENDMDL
MODEL 3
REMARK VINA RESULT:      -5.9      1.646      2.256
REMARK  Name = Morpholinylmercaptobenzothiazole
REMARK  2 active torsions:
REMARK  status: ('A' for Active; 'I' for Inactive)
REMARK    1  A    between atoms: N_3  and  S_7
REMARK    2  A    between atoms: S_7  and  C_8
REMARK                            x       y       z     vdW  Elec       q    Type
REMARK                         _______ _______ _______ _____ _____    ______ ____
ROOT
ATOM      1  C   UNL     1      -9.915   5.594 130.243  0.00  0.00    +0.000 A 
ATOM      2  N   UNL     1     -11.068   5.241 129.739  0.00  0.00    +0.000 NA
ATOM      3  C   UNL     1     -11.745   6.354 129.293  0.00  0.00    +0.000 A 
ATOM      4  C   UNL     1     -13.030   6.341 128.733  0.00  0.00    +0.000 A 
ATOM      5  C   UNL     1     -13.636   7.545 128.375  0.00  0.00    +0.000 A 
ATOM      6  C   UNL     1     -12.971   8.754 128.568  0.00  0.00    +0.000 A 
ATOM      7  C   UNL     1     -11.677   8.791 129.097  0.00  0.00    +0.000 A 
ATOM      8  C   UNL     1     -11.076   7.569 129.441  0.00  0.00    +0.000 A 
ATOM      9  S   UNL     1      -9.502   7.249 130.046  0.00  0.00    +0.000 S 
ENDROOT
BRANCH   1  10
ATOM     10  S   UNL     1      -8.854   4.335 130.836  0.00  0.00    +0.000 S 
BRANCH  10  13
ATOM     11  C   UNL     1      -7.811   2.850 133.568  0.00  0.00    +0.000 C 
ATOM     12  C   UNL     1      -9.145   3.604 133.486  0.00  0.00    +0.000 C 
ATOM     13  N   UNL     1      -9.680   3.556 132.099  0.00  0.00    +0.000 NA
ATOM     14  C   UNL     1      -9.923   2.100 131.850  0.00  0.00    +0.000 C 
ATOM     15  C   UNL     1      -8.600   1.315 131.951  0.00  0.00    +0.000 C 
ATOM     16  O   UNL     1      -8.003   1.464 133.250  0.00  0.00    +0.000 OA
ENDBRANCH  10  13
ENDBRANCH   1  10
TORSDOF 2
ENDMDL
MODEL 4
REMARK VINA RESULT:      -5.8      1.711      2.104
REMARK  Name = Morpholinylmercaptobenzothiazole
REMARK  2 active torsions:
REMARK  status: ('A' for Active; 'I' for Inactive)
REMARK    1  A    between atoms: N_3  and  S_7
REMARK    2  A    between atoms: S_7  and  C_8
REMARK                            x       y       z     vdW  Elec       q    Type
REMARK                         _______ _______ _______ _____ _____    ______ ____
ROOT
ATOM      1  C   UNL     1     -10.535   5.479 130.229  0.00  0.00    +0.000 A 
ATOM      2  N   UNL     1     -11.660   5.263 129.600  0.00  0.00    +0.000 NA
ATOM      3  C   UNL     1     -12.161   6.449 129.115  0.00  0.00    +0.000 A 
ATOM      4  C   UNL     1     -13.373   6.586 128.424  0.00  0.00    +0.000 A 
ATOM      5  C   UNL     1     -13.804   7.854 128.036  0.00  0.00    +0.000 A 
ATOM      6  C   UNL     1     -13.036   8.980 128.327  0.00  0.00    +0.000 A 
ATOM      7  C   UNL     1     -11.809   8.866 128.987  0.00  0.00    +0.000 A 
ATOM      8  C   UNL     1     -11.383   7.581 129.361  0.00  0.00    +0.000 A 
ATOM      9  S   UNL     1      -9.927   7.081 130.118  0.00  0.00    +0.000 S 
ENDROOT
BRANCH   1  10
ATOM     10  S   UNL     1      -9.686   4.102 130.898  0.00  0.00    +0.000 S 
BRANCH  10  13
ATOM     11  C   UNL     1      -7.353   2.653 132.690  0.00  0.00    +0.000 C 
ATOM     12  C   UNL     1      -7.098   3.908 131.847  0.00  0.00    +0.000 C 
ATOM     13  N   UNL     1      -8.341   4.716 131.733  0.00  0.00    +0.000 NA
ATOM     14  C   UNL     1      -8.643   5.124 133.141  0.00  0.00    +0.000 C 
ATOM     15  C   UNL     1      -8.881   3.878 134.017  0.00  0.00    +0.000 C 
ATOM     16  O   UNL     1      -7.728   3.019 134.027  0.00  0.00    +0.000 OA
ENDBRANCH  10  13
ENDBRANCH   1  10
TORSDOF 2
ENDMDL
MODEL 5
REMARK VINA RESULT:      -5.8      0.935      1.571
REMARK  Name = Morpholinylmercaptobenzothiazole
REMARK  2 active torsions:
REMARK  status: ('A' for Active; 'I' for Inactive)
REMARK    1  A    between atoms: N_3  and  S_7
REMARK    2  A    between atoms: S_7  and  C_8
REMARK                            x       y       z     vdW  Elec       q    Type
REMARK                         _______ _______ _______ _____ _____    ______ ____
ROOT
ATOM      1  C   UNL     1      -9.940   6.417 131.513  0.00  0.00    +0.000 A 
ATOM      2  N   UNL     1      -9.484   7.047 130.464  0.00  0.00    +0.000 NA
ATOM      3  C   UNL     1     -10.532   7.463 129.674  0.00  0.00    +0.000 A 
ATOM      4  C   UNL     1     -10.398   8.135 128.451  0.00  0.00    +0.000 A 
ATOM      5  C   UNL     1     -11.538   8.450 127.711  0.00  0.00    +0.000 A 
ATOM      6  C   UNL     1     -12.803   8.103 128.182  0.00  0.00    +0.000 A 
ATOM      7  C   UNL     1     -12.964   7.460 129.413  0.00  0.00    +0.000 A 
ATOM      8  C   UNL     1     -11.807   7.161 130.152  0.00  0.00    +0.000 A 
ATOM      9  S   UNL     1     -11.647   6.444 131.703  0.00  0.00    +0.000 S 
ENDROOT
BRANCH   1  10
ATOM     10  S   UNL     1      -8.785   5.832 132.691  0.00  0.00    +0.000 S 
BRANCH  10  13
ATOM     11  C   UNL     1      -6.877   3.205 133.152  0.00  0.00    +0.000 C 
ATOM     12  C   UNL     1      -8.255   3.360 133.808  0.00  0.00    +0.000 C 
ATOM     13  N   UNL     1      -9.143   4.193 132.953  0.00  0.00    +0.000 NA
ATOM     14  C   UNL     1      -9.287   3.400 131.693  0.00  0.00    +0.000 C 
ATOM     15  C   UNL     1      -7.911   3.207 131.024  0.00  0.00    +0.000 C 
ATOM     16  O   UNL     1      -6.999   2.519 131.897  0.00  0.00    +0.000 OA
ENDBRANCH  10  13
ENDBRANCH   1  10
TORSDOF 2
ENDMDL
MODEL 6
REMARK VINA RESULT:      -5.7      3.137      6.582
REMARK  Name = Morpholinylmercaptobenzothiazole
REMARK  2 active torsions:
REMARK  status: ('A' for Active; 'I' for Inactive)
REMARK    1  A    between atoms: N_3  and  S_7
REMARK    2  A    between atoms: S_7  and  C_8
REMARK                            x       y       z     vdW  Elec       q    Type
REMARK                         _______ _______ _______ _____ _____    ______ ____
ROOT
ATOM      1  C   UNL     1     -10.038   6.042 130.910  0.00  0.00    +0.000 A 
ATOM      2  N   UNL     1      -9.332   6.569 131.874  0.00  0.00    +0.000 NA
ATOM      3  C   UNL     1      -8.850   5.577 132.699  0.00  0.00    +0.000 A 
ATOM      4  C   UNL     1      -8.087   5.794 133.855  0.00  0.00    +0.000 A 
ATOM      5  C   UNL     1      -7.710   4.708 134.644  0.00  0.00    +0.000 A 
ATOM      6  C   UNL     1      -8.084   3.414 134.287  0.00  0.00    +0.000 A 
ATOM      7  C   UNL     1      -8.819   3.169 133.122  0.00  0.00    +0.000 A 
ATOM      8  C   UNL     1      -9.180   4.272 132.333  0.00  0.00    +0.000 A 
ATOM      9  S   UNL     1     -10.015   4.327 130.835  0.00  0.00    +0.000 S 
ENDROOT
BRANCH   1  10
ATOM     10  S   UNL     1     -10.719   7.114 129.705  0.00  0.00    +0.000 S 
BRANCH  10  13
ATOM     11  C   UNL     1     -13.234   7.845 127.733  0.00  0.00    +0.000 C 
ATOM     12  C   UNL     1     -13.321   6.784 128.837  0.00  0.00    +0.000 C 
ATOM     13  N   UNL     1     -12.399   7.123 129.953  0.00  0.00    +0.000 NA
ATOM     14  C   UNL     1     -12.922   8.422 130.479  0.00  0.00    +0.000 C 
ATOM     15  C   UNL     1     -12.868   9.503 129.381  0.00  0.00    +0.000 C 
ATOM     16  O   UNL     1     -13.652   9.123 128.237  0.00  0.00    +0.000 OA
ENDBRANCH  10  13
ENDBRANCH   1  10
TORSDOF 2
ENDMDL
MODEL 7
REMARK VINA RESULT:      -5.5      9.812     11.451
REMARK  Name = Morpholinylmercaptobenzothiazole
REMARK  2 active torsions:
REMARK  status: ('A' for Active; 'I' for Inactive)
REMARK    1  A    between atoms: N_3  and  S_7
REMARK    2  A    between atoms: S_7  and  C_8
REMARK                            x       y       z     vdW  Elec       q    Type
REMARK                         _______ _______ _______ _____ _____    ______ ____
ROOT
ATOM      1  C   UNL     1      -6.802  -1.826 127.138  0.00  0.00    +0.000 A 
ATOM      2  N   UNL     1      -5.526  -2.037 127.323  0.00  0.00    +0.000 NA
ATOM      3  C   UNL     1      -5.332  -2.753 128.482  0.00  0.00    +0.000 A 
ATOM      4  C   UNL     1      -4.082  -3.117 129.002  0.00  0.00    +0.000 A 
ATOM      5  C   UNL     1      -4.014  -3.790 130.221  0.00  0.00    +0.000 A 
ATOM      6  C   UNL     1      -5.178  -4.104 130.919  0.00  0.00    +0.000 A 
ATOM      7  C   UNL     1      -6.438  -3.778 130.407  0.00  0.00    +0.000 A 
ATOM      8  C   UNL     1      -6.490  -3.111 129.173  0.00  0.00    +0.000 A 
ATOM      9  S   UNL     1      -7.846  -2.625 128.241  0.00  0.00    +0.000 S 
ENDROOT
BRANCH   1  10
ATOM     10  S   UNL     1      -7.295  -0.968 125.694  0.00  0.00    +0.000 S 
BRANCH  10  13
ATOM     11  C   UNL     1      -9.078  -1.494 122.992  0.00  0.00    +0.000 C 
ATOM     12  C   UNL     1      -7.554  -1.661 123.031  0.00  0.00    +0.000 C 
ATOM     13  N   UNL     1      -7.111  -2.049 124.397  0.00  0.00    +0.000 NA
ATOM     14  C   UNL     1      -7.756  -3.379 124.628  0.00  0.00    +0.000 C 
ATOM     15  C   UNL     1      -9.291  -3.245 124.570  0.00  0.00    +0.000 C 
ATOM     16  O   UNL     1      -9.723  -2.741 123.294  0.00  0.00    +0.000 OA
ENDBRANCH  10  13
ENDBRANCH   1  10
TORSDOF 2
ENDMDL
MODEL 8
REMARK VINA RESULT:      -5.4      2.874      6.309
REMARK  Name = Morpholinylmercaptobenzothiazole
REMARK  2 active torsions:
REMARK  status: ('A' for Active; 'I' for Inactive)
REMARK    1  A    between atoms: N_3  and  S_7
REMARK    2  A    between atoms: S_7  and  C_8
REMARK                            x       y       z     vdW  Elec       q    Type
REMARK                         _______ _______ _______ _____ _____    ______ ____
ROOT
ATOM      1  C   UNL     1      -9.584   5.404 130.190  0.00  0.00    +0.000 A 
ATOM      2  N   UNL     1      -9.281   4.335 129.501  0.00  0.00    +0.000 NA
ATOM      3  C   UNL     1      -9.152   3.255 130.345  0.00  0.00    +0.000 A 
ATOM      4  C   UNL     1      -8.795   1.961 129.943  0.00  0.00    +0.000 A 
ATOM      5  C   UNL     1      -8.636   0.962 130.903  0.00  0.00    +0.000 A 
ATOM      6  C   UNL     1      -8.834   1.244 132.253  0.00  0.00    +0.000 A 
ATOM      7  C   UNL     1      -9.220   2.519 132.676  0.00  0.00    +0.000 A 
ATOM      8  C   UNL     1      -9.388   3.511 131.696  0.00  0.00    +0.000 A 
ATOM      9  S   UNL     1      -9.906   5.138 131.855  0.00  0.00    +0.000 S 
ENDROOT
BRANCH   1  10
ATOM     10  S   UNL     1      -9.843   6.900 129.319  0.00  0.00    +0.000 S 
BRANCH  10  13
ATOM     11  C   UNL     1     -12.285   8.932 128.503  0.00  0.00    +0.000 C 
ATOM     12  C   UNL     1     -11.788   7.811 127.580  0.00  0.00    +0.000 C 
ATOM     13  N   UNL     1     -11.243   6.684 128.383  0.00  0.00    +0.000 NA
ATOM     14  C   UNL     1     -12.418   6.190 129.166  0.00  0.00    +0.000 C 
ATOM     15  C   UNL     1     -12.953   7.305 130.087  0.00  0.00    +0.000 C 
ATOM     16  O   UNL     1     -13.360   8.457 129.328  0.00  0.00    +0.000 OA
ENDBRANCH  10  13
ENDBRANCH   1  10
TORSDOF 2
ENDMDL
MODEL 9
REMARK VINA RESULT:      -5.4      9.422     10.151
REMARK  Name = Morpholinylmercaptobenzothiazole
REMARK  2 active torsions:
REMARK  status: ('A' for Active; 'I' for Inactive)
REMARK    1  A    between atoms: N_3  and  S_7
REMARK    2  A    between atoms: S_7  and  C_8
REMARK                            x       y       z     vdW  Elec       q    Type
REMARK                         _______ _______ _______ _____ _____    ______ ____
ROOT
ATOM      1  C   UNL     1      -7.788  -2.783 127.613  0.00  0.00    +0.000 A 
ATOM      2  N   UNL     1      -8.737  -3.302 126.880  0.00  0.00    +0.000 NA
ATOM      3  C   UNL     1      -8.522  -3.000 125.554  0.00  0.00    +0.000 A 
ATOM      4  C   UNL     1      -9.370  -3.368 124.499  0.00  0.00    +0.000 A 
ATOM      5  C   UNL     1      -9.076  -2.948 123.202  0.00  0.00    +0.000 A 
ATOM      6  C   UNL     1      -7.946  -2.172 122.951  0.00  0.00    +0.000 A 
ATOM      7  C   UNL     1      -7.068  -1.819 123.981  0.00  0.00    +0.000 A 
ATOM      8  C   UNL     1      -7.372  -2.260 125.279  0.00  0.00    +0.000 A 
ATOM      9  S   UNL     1      -6.496  -2.063 126.741  0.00  0.00    +0.000 S 
ENDROOT
BRANCH   1  10
ATOM     10  S   UNL     1      -7.826  -3.075 129.338  0.00  0.00    +0.000 S 
BRANCH  10  13
ATOM     11  C   UNL     1      -5.546  -4.905 130.824  0.00  0.00    +0.000 C 
ATOM     12  C   UNL     1      -5.201  -3.737 129.892  0.00  0.00    +0.000 C 
ATOM     13  N   UNL     1      -6.277  -2.711 129.930  0.00  0.00    +0.000 NA
ATOM     14  C   UNL     1      -6.273  -2.227 131.346  0.00  0.00    +0.000 C 
ATOM     15  C   UNL     1      -6.595  -3.389 132.307  0.00  0.00    +0.000 C 
ATOM     16  O   UNL     1      -5.632  -4.450 132.183  0.00  0.00    +0.000 OA
ENDBRANCH  10  13
ENDBRANCH   1  10
TORSDOF 2
ENDMDL
