MODEL 1
REMARK VINA RESULT:      -7.4      0.000      0.000
REMARK  Name = Morphine
REMARK  3 active torsions:
REMARK  status: ('A' for Active; 'I' for Inactive)
REMARK    1  A    between atoms: C_5  and  O_6
REMARK    2  A    between atoms: N_14  and  C_15
REMARK    3  A    between atoms: C_23  and  O_24
REMARK                            x       y       z     vdW  Elec       q    Type
REMARK                         _______ _______ _______ _____ _____    ______ ____
ROOT
ATOM      1  C   UNL     1      -9.249   0.126 124.486  0.00  0.00    +0.000 C 
ATOM      2  O   UNL     1      -9.515  -0.755 123.454  0.00  0.00    +0.000 OA
ATOM      3  C   UNL     1      -8.647  -1.722 123.916  0.00  0.00    +0.000 A 
ATOM      4  C   UNL     1      -8.865  -3.052 123.894  0.00  0.00    +0.000 A 
ATOM      5  C   UNL     1      -7.736  -3.793 124.209  0.00  0.00    +0.000 A 
ATOM      6  C   UNL     1      -6.455  -3.143 124.675  0.00  0.00    +0.000 A 
ATOM      7  C   UNL     1      -6.331  -1.742 124.910  0.00  0.00    +0.000 A 
ATOM      8  C   UNL     1      -7.474  -1.169 124.479  0.00  0.00    +0.000 A 
ATOM      9  C   UNL     1      -7.630   0.224 124.774  0.00  0.00    +0.000 C 
ATOM     10  C   UNL     1      -6.664   1.114 123.664  0.00  0.00    +0.000 C 
ATOM     11  C   UNL     1      -6.529   2.594 124.028  0.00  0.00    +0.000 C 
ATOM     12  N   UNL     1      -5.805   2.609 125.284  0.00  0.00    +0.000 NA
ATOM     13  C   UNL     1      -5.979   4.018 125.856  0.00  0.00    +0.000 C 
ATOM     14  C   UNL     1      -5.870   1.237 126.073  0.00  0.00    +0.000 C 
ATOM     15  C   UNL     1      -5.247  -0.502 125.529  0.00  0.00    +0.000 C 
ATOM     16  C   UNL     1      -7.172   0.542 126.302  0.00  0.00    +0.000 C 
ATOM     17  C   UNL     1      -8.265   1.147 127.153  0.00  0.00    +0.000 C 
ATOM     18  C   UNL     1      -9.339   0.972 126.474  0.00  0.00    +0.000 C 
ATOM     19  C   UNL     1      -9.400   1.520 124.819  0.00  0.00    +0.000 C 
ENDROOT
BRANCH   4  20
ATOM     20  O   UNL     1     -10.094  -3.570 123.630  0.00  0.00    +0.000 OA
ATOM     21  H   UNL     1     -10.150  -4.437 124.091  0.00  0.00    +0.000 HD
ENDBRANCH   4  20
BRANCH  19  22
ATOM     22  O   UNL     1     -10.546   2.115 124.311  0.00  0.00    +0.000 OA
ATOM     23  H   UNL     1     -10.271   2.483 123.445  0.00  0.00    +0.000 HD
ENDBRANCH  19  22
TORSDOF 2
ENDMDL
MODEL 2
REMARK VINA RESULT:      -7.4      7.463      9.556
REMARK  Name = Morphine
REMARK  3 active torsions:
REMARK  status: ('A' for Active; 'I' for Inactive)
REMARK    1  A    between atoms: C_5  and  O_6
REMARK    2  A    between atoms: N_14  and  C_15
REMARK    3  A    between atoms: C_23  and  O_24
REMARK                            x       y       z     vdW  Elec       q    Type
REMARK                         _______ _______ _______ _____ _____    ______ ____
ROOT
ATOM      1  C   UNL     1      -8.889   5.869 128.990  0.00  0.00    +0.000 C 
ATOM      2  O   UNL     1      -9.696   5.971 127.871  0.00  0.00    +0.000 OA
ATOM      3  C   UNL     1     -10.569   6.865 128.452  0.00  0.00    +0.000 A 
ATOM      4  C   UNL     1     -11.139   7.922 127.840  0.00  0.00    +0.000 A 
ATOM      5  C   UNL     1     -12.145   8.509 128.593  0.00  0.00    +0.000 A 
ATOM      6  C   UNL     1     -12.439   8.081 130.011  0.00  0.00    +0.000 A 
ATOM      7  C   UNL     1     -11.660   7.114 130.711  0.00  0.00    +0.000 A 
ATOM      8  C   UNL     1     -10.792   6.589 129.821  0.00  0.00    +0.000 A 
ATOM      9  C   UNL     1      -9.796   5.708 130.356  0.00  0.00    +0.000 C 
ATOM     10  C   UNL     1     -10.539   4.188 130.659  0.00  0.00    +0.000 C 
ATOM     11  C   UNL     1      -9.661   3.236 131.473  0.00  0.00    +0.000 C 
ATOM     12  N   UNL     1      -9.515   3.870 132.768  0.00  0.00    +0.000 NA
ATOM     13  C   UNL     1      -8.360   3.148 133.465  0.00  0.00    +0.000 C 
ATOM     14  C   UNL     1      -9.805   5.427 132.749  0.00  0.00    +0.000 C 
ATOM     15  C   UNL     1     -11.428   6.351 132.280  0.00  0.00    +0.000 C 
ATOM     16  C   UNL     1      -9.172   6.315 131.729  0.00  0.00    +0.000 C 
ATOM     17  C   UNL     1      -7.678   6.537 131.675  0.00  0.00    +0.000 C 
ATOM     18  C   UNL     1      -7.380   6.433 130.432  0.00  0.00    +0.000 C 
ATOM     19  C   UNL     1      -7.878   5.011 129.551  0.00  0.00    +0.000 C 
ENDROOT
BRANCH   4  20
ATOM     20  O   UNL     1     -10.710   8.362 126.627  0.00  0.00    +0.000 OA
ATOM     21  H   UNL     1     -11.509   8.565 126.090  0.00  0.00    +0.000 HD
ENDBRANCH   4  20
BRANCH  19  22
ATOM     22  O   UNL     1      -7.035   4.423 128.619  0.00  0.00    +0.000 OA
ATOM     23  H   UNL     1      -7.629   4.142 127.891  0.00  0.00    +0.000 HD
ENDBRANCH  19  22
TORSDOF 2
ENDMDL
MODEL 3
REMARK VINA RESULT:      -7.2      1.897      4.344
REMARK  Name = Morphine
REMARK  3 active torsions:
REMARK  status: ('A' for Active; 'I' for Inactive)
REMARK    1  A    between atoms: C_5  and  O_6
REMARK    2  A    between atoms: N_14  and  C_15
REMARK    3  A    between atoms: C_23  and  O_24
REMARK                            x       y       z     vdW  Elec       q    Type
REMARK                         _______ _______ _______ _____ _____    ______ ____
ROOT
ATOM      1  C   UNL     1      -8.297  -1.964 124.490  0.00  0.00    +0.000 C 
ATOM      2  O   UNL     1      -9.586  -1.509 124.278  0.00  0.00    +0.000 OA
ATOM      3  C   UNL     1      -9.203  -0.197 124.089  0.00  0.00    +0.000 A 
ATOM      4  C   UNL     1      -9.724   0.653 123.183  0.00  0.00    +0.000 A 
ATOM      5  C   UNL     1      -9.313   1.964 123.369  0.00  0.00    +0.000 A 
ATOM      6  C   UNL     1      -8.267   2.340 124.392  0.00  0.00    +0.000 A 
ATOM      7  C   UNL     1      -7.564   1.379 125.177  0.00  0.00    +0.000 A 
ATOM      8  C   UNL     1      -8.137   0.181 124.938  0.00  0.00    +0.000 A 
ATOM      9  C   UNL     1      -7.477  -0.958 125.503  0.00  0.00    +0.000 C 
ATOM     10  C   UNL     1      -7.854  -1.014 127.179  0.00  0.00    +0.000 C 
ATOM     11  C   UNL     1      -7.007  -2.023 127.958  0.00  0.00    +0.000 C 
ATOM     12  N   UNL     1      -5.650  -1.521 127.875  0.00  0.00    +0.000 NA
ATOM     13  C   UNL     1      -4.744  -2.675 128.309  0.00  0.00    +0.000 C 
ATOM     14  C   UNL     1      -5.417  -0.515 126.674  0.00  0.00    +0.000 C 
ATOM     15  C   UNL     1      -6.256   1.185 126.338  0.00  0.00    +0.000 C 
ATOM     16  C   UNL     1      -5.868  -0.851 125.290  0.00  0.00    +0.000 C 
ATOM     17  C   UNL     1      -5.277  -2.004 124.512  0.00  0.00    +0.000 C 
ATOM     18  C   UNL     1      -6.290  -2.603 124.001  0.00  0.00    +0.000 C 
ATOM     19  C   UNL     1      -7.601  -3.099 125.041  0.00  0.00    +0.000 C 
ENDROOT
BRANCH   4  20
ATOM     20  O   UNL     1     -10.532   0.221 122.178  0.00  0.00    +0.000 OA
ATOM     21  H   UNL     1     -11.290   0.845 122.123  0.00  0.00    +0.000 HD
ENDBRANCH   4  20
BRANCH  19  22
ATOM     22  O   UNL     1      -8.237  -4.317 124.848  0.00  0.00    +0.000 OA
ATOM     23  H   UNL     1      -8.997  -4.300 125.467  0.00  0.00    +0.000 HD
ENDBRANCH  19  22
TORSDOF 2
ENDMDL
MODEL 4
REMARK VINA RESULT:      -6.8      1.992      4.721
REMARK  Name = Morphine
REMARK  3 active torsions:
REMARK  status: ('A' for Active; 'I' for Inactive)
REMARK    1  A    between atoms: C_5  and  O_6
REMARK    2  A    between atoms: N_14  and  C_15
REMARK    3  A    between atoms: C_23  and  O_24
REMARK                            x       y       z     vdW  Elec       q    Type
REMARK                         _______ _______ _______ _____ _____    ______ ____
ROOT
ATOM      1  C   UNL     1      -7.981   0.527 123.414  0.00  0.00    +0.000 C 
ATOM      2  O   UNL     1      -8.493   1.760 123.053  0.00  0.00    +0.000 OA
ATOM      3  C   UNL     1      -7.354   2.453 123.405  0.00  0.00    +0.000 A 
ATOM      4  C   UNL     1      -6.823   3.491 122.730  0.00  0.00    +0.000 A 
ATOM      5  C   UNL     1      -5.815   4.137 123.430  0.00  0.00    +0.000 A 
ATOM      6  C   UNL     1      -5.286   3.610 124.743  0.00  0.00    +0.000 A 
ATOM      7  C   UNL     1      -5.712   2.375 125.316  0.00  0.00    +0.000 A 
ATOM      8  C   UNL     1      -6.740   1.927 124.565  0.00  0.00    +0.000 A 
ATOM      9  C   UNL     1      -7.215   0.610 124.869  0.00  0.00    +0.000 C 
ATOM     10  C   UNL     1      -8.182   0.709 126.287  0.00  0.00    +0.000 C 
ATOM     11  C   UNL     1      -8.538  -0.659 126.875  0.00  0.00    +0.000 C 
ATOM     12  N   UNL     1      -7.273  -1.229 127.296  0.00  0.00    +0.000 NA
ATOM     13  C   UNL     1      -7.540  -2.717 127.536  0.00  0.00    +0.000 C 
ATOM     14  C   UNL     1      -6.015  -0.579 126.588  0.00  0.00    +0.000 C 
ATOM     15  C   UNL     1      -5.409   1.248 126.633  0.00  0.00    +0.000 C 
ATOM     16  C   UNL     1      -5.970  -0.409 125.105  0.00  0.00    +0.000 C 
ATOM     17  C   UNL     1      -5.961  -1.590 124.161  0.00  0.00    +0.000 C 
ATOM     18  C   UNL     1      -6.810  -1.284 123.251  0.00  0.00    +0.000 C 
ATOM     19  C   UNL     1      -8.425  -0.810 123.715  0.00  0.00    +0.000 C 
ENDROOT
BRANCH   4  20
ATOM     20  O   UNL     1      -7.232   3.811 121.473  0.00  0.00    +0.000 OA
ATOM     21  H   UNL     1      -8.086   4.291 121.557  0.00  0.00    +0.000 HD
ENDBRANCH   4  20
BRANCH  19  22
ATOM     22  O   UNL     1      -9.526  -1.234 122.984  0.00  0.00    +0.000 OA
ATOM     23  H   UNL     1     -10.083  -0.432 122.889  0.00  0.00    +0.000 HD
ENDBRANCH  19  22
TORSDOF 2
ENDMDL
MODEL 5
REMARK VINA RESULT:      -6.8      3.619      4.969
REMARK  Name = Morphine
REMARK  3 active torsions:
REMARK  status: ('A' for Active; 'I' for Inactive)
REMARK    1  A    between atoms: C_5  and  O_6
REMARK    2  A    between atoms: N_14  and  C_15
REMARK    3  A    between atoms: C_23  and  O_24
REMARK                            x       y       z     vdW  Elec       q    Type
REMARK                         _______ _______ _______ _____ _____    ______ ____
ROOT
ATOM      1  C   UNL     1      -6.204  -0.929 126.731  0.00  0.00    +0.000 C 
ATOM      2  O   UNL     1      -6.185  -0.666 128.089  0.00  0.00    +0.000 OA
ATOM      3  C   UNL     1      -6.761  -1.870 128.436  0.00  0.00    +0.000 A 
ATOM      4  C   UNL     1      -6.427  -2.627 129.500  0.00  0.00    +0.000 A 
ATOM      5  C   UNL     1      -7.319  -3.662 129.732  0.00  0.00    +0.000 A 
ATOM      6  C   UNL     1      -8.450  -3.975 128.782  0.00  0.00    +0.000 A 
ATOM      7  C   UNL     1      -8.637  -3.298 127.541  0.00  0.00    +0.000 A 
ATOM      8  C   UNL     1      -7.750  -2.281 127.512  0.00  0.00    +0.000 A 
ATOM      9  C   UNL     1      -7.653  -1.565 126.275  0.00  0.00    +0.000 C 
ATOM     10  C   UNL     1      -9.002  -0.506 126.166  0.00  0.00    +0.000 C 
ATOM     11  C   UNL     1      -9.167   0.126 124.782  0.00  0.00    +0.000 C 
ATOM     12  N   UNL     1      -9.460  -0.981 123.893  0.00  0.00    +0.000 NA
ATOM     13  C   UNL     1      -9.261  -0.447 122.473  0.00  0.00    +0.000 C 
ATOM     14  C   UNL     1      -9.012  -2.389 124.463  0.00  0.00    +0.000 C 
ATOM     15  C   UNL     1      -9.594  -3.287 126.064  0.00  0.00    +0.000 C 
ATOM     16  C   UNL     1      -7.641  -2.595 125.016  0.00  0.00    +0.000 C 
ATOM     17  C   UNL     1      -6.404  -2.489 124.153  0.00  0.00    +0.000 C 
ATOM     18  C   UNL     1      -5.584  -1.788 124.846  0.00  0.00    +0.000 C 
ATOM     19  C   UNL     1      -6.099  -0.241 125.470  0.00  0.00    +0.000 C 
ENDROOT
BRANCH   4  20
ATOM     20  O   UNL     1      -5.296  -2.392 130.217  0.00  0.00    +0.000 OA
ATOM     21  H   UNL     1      -4.581  -2.183 129.575  0.00  0.00    +0.000 HD
ENDBRANCH   4  20
BRANCH  19  22
ATOM     22  O   UNL     1      -5.236   0.846 125.473  0.00  0.00    +0.000 OA
ATOM     23  H   UNL     1      -5.690   1.524 124.930  0.00  0.00    +0.000 HD
ENDBRANCH  19  22
TORSDOF 2
ENDMDL
MODEL 6
REMARK VINA RESULT:      -6.7      3.925      4.766
REMARK  Name = Morphine
REMARK  3 active torsions:
REMARK  status: ('A' for Active; 'I' for Inactive)
REMARK    1  A    between atoms: C_5  and  O_6
REMARK    2  A    between atoms: N_14  and  C_15
REMARK    3  A    between atoms: C_23  and  O_24
REMARK                            x       y       z     vdW  Elec       q    Type
REMARK                         _______ _______ _______ _____ _____    ______ ____
ROOT
ATOM      1  C   UNL     1      -7.390   0.184 127.709  0.00  0.00    +0.000 C 
ATOM      2  O   UNL     1      -7.349  -0.218 126.386  0.00  0.00    +0.000 OA
ATOM      3  C   UNL     1      -8.085  -1.363 126.601  0.00  0.00    +0.000 A 
ATOM      4  C   UNL     1      -9.027  -1.861 125.776  0.00  0.00    +0.000 A 
ATOM      5  C   UNL     1      -9.439  -3.138 126.129  0.00  0.00    +0.000 A 
ATOM      6  C   UNL     1      -8.975  -3.807 127.400  0.00  0.00    +0.000 A 
ATOM      7  C   UNL     1      -8.156  -3.157 128.370  0.00  0.00    +0.000 A 
ATOM      8  C   UNL     1      -7.782  -1.975 127.840  0.00  0.00    +0.000 A 
ATOM      9  C   UNL     1      -7.085  -1.082 128.717  0.00  0.00    +0.000 C 
ATOM     10  C   UNL     1      -5.462  -1.632 128.856  0.00  0.00    +0.000 C 
ATOM     11  C   UNL     1      -4.676  -0.929 129.964  0.00  0.00    +0.000 C 
ATOM     12  N   UNL     1      -5.332  -1.318 131.197  0.00  0.00    +0.000 NA
ATOM     13  C   UNL     1      -4.819  -0.355 132.271  0.00  0.00    +0.000 C 
ATOM     14  C   UNL     1      -6.817  -1.828 130.993  0.00  0.00    +0.000 C 
ATOM     15  C   UNL     1      -7.451  -3.333 129.973  0.00  0.00    +0.000 C 
ATOM     16  C   UNL     1      -7.795  -1.046 130.180  0.00  0.00    +0.000 C 
ATOM     17  C   UNL     1      -8.266   0.329 130.596  0.00  0.00    +0.000 C 
ATOM     18  C   UNL     1      -8.208   1.030 129.523  0.00  0.00    +0.000 C 
ATOM     19  C   UNL     1      -6.718   1.078 128.615  0.00  0.00    +0.000 C 
ENDROOT
BRANCH   4  20
ATOM     20  O   UNL     1      -9.528  -1.135 124.741  0.00  0.00    +0.000 OA
ATOM     21  H   UNL     1     -10.507  -1.133 124.832  0.00  0.00    +0.000 HD
ENDBRANCH   4  20
BRANCH  19  22
ATOM     22  O   UNL     1      -6.276   2.262 128.040  0.00  0.00    +0.000 OA
ATOM     23  H   UNL     1      -7.083   2.812 127.956  0.00  0.00    +0.000 HD
ENDBRANCH  19  22
TORSDOF 2
ENDMDL
MODEL 7
REMARK VINA RESULT:      -6.6      3.168      4.182
REMARK  Name = Morphine
REMARK  3 active torsions:
REMARK  status: ('A' for Active; 'I' for Inactive)
REMARK    1  A    between atoms: C_5  and  O_6
REMARK    2  A    between atoms: N_14  and  C_15
REMARK    3  A    between atoms: C_23  and  O_24
REMARK                            x       y       z     vdW  Elec       q    Type
REMARK                         _______ _______ _______ _____ _____    ______ ____
ROOT
ATOM      1  C   UNL     1      -5.911  -0.421 125.903  0.00  0.00    +0.000 C 
ATOM      2  O   UNL     1      -5.522  -1.174 124.810  0.00  0.00    +0.000 OA
ATOM      3  C   UNL     1      -6.663  -1.949 124.805  0.00  0.00    +0.000 A 
ATOM      4  C   UNL     1      -7.327  -2.366 123.709  0.00  0.00    +0.000 A 
ATOM      5  C   UNL     1      -8.299  -3.314 123.990  0.00  0.00    +0.000 A 
ATOM      6  C   UNL     1      -8.655  -3.702 125.406  0.00  0.00    +0.000 A 
ATOM      7  C   UNL     1      -8.091  -3.069 126.553  0.00  0.00    +0.000 A 
ATOM      8  C   UNL     1      -7.119  -2.246 126.110  0.00  0.00    +0.000 A 
ATOM      9  C   UNL     1      -6.529  -1.383 127.089  0.00  0.00    +0.000 C 
ATOM     10  C   UNL     1      -5.431  -2.315 128.027  0.00  0.00    +0.000 C 
ATOM     11  C   UNL     1      -4.927  -1.586 129.275  0.00  0.00    +0.000 C 
ATOM     12  N   UNL     1      -6.101  -1.403 130.105  0.00  0.00    +0.000 NA
ATOM     13  C   UNL     1      -5.714  -0.368 131.163  0.00  0.00    +0.000 C 
ATOM     14  C   UNL     1      -7.466  -1.499 129.307  0.00  0.00    +0.000 C 
ATOM     15  C   UNL     1      -8.183  -2.981 128.308  0.00  0.00    +0.000 C 
ATOM     16  C   UNL     1      -7.673  -0.731 128.043  0.00  0.00    +0.000 C 
ATOM     17  C   UNL     1      -7.701   0.780 128.018  0.00  0.00    +0.000 C 
ATOM     18  C   UNL     1      -6.971   1.101 127.014  0.00  0.00    +0.000 C 
ATOM     19  C   UNL     1      -5.352   0.459 126.896  0.00  0.00    +0.000 C 
ENDROOT
BRANCH   4  20
ATOM     20  O   UNL     1      -7.071  -1.849 122.477  0.00  0.00    +0.000 OA
ATOM     21  H   UNL     1      -6.123  -1.586 122.462  0.00  0.00    +0.000 HD
ENDBRANCH   4  20
BRANCH  19  22
ATOM     22  O   UNL     1      -4.306   1.251 126.444  0.00  0.00    +0.000 OA
ATOM     23  H   UNL     1      -4.428   2.109 126.904  0.00  0.00    +0.000 HD
ENDBRANCH  19  22
TORSDOF 2
ENDMDL
MODEL 8
REMARK VINA RESULT:      -6.4      6.012      8.677
REMARK  Name = Morphine
REMARK  3 active torsions:
REMARK  status: ('A' for Active; 'I' for Inactive)
REMARK    1  A    between atoms: C_5  and  O_6
REMARK    2  A    between atoms: N_14  and  C_15
REMARK    3  A    between atoms: C_23  and  O_24
REMARK                            x       y       z     vdW  Elec       q    Type
REMARK                         _______ _______ _______ _____ _____    ______ ____
ROOT
ATOM      1  C   UNL     1      -8.064   3.398 129.648  0.00  0.00    +0.000 C 
ATOM      2  O   UNL     1      -9.158   3.944 129.002  0.00  0.00    +0.000 OA
ATOM      3  C   UNL     1      -9.439   4.840 130.011  0.00  0.00    +0.000 A 
ATOM      4  C   UNL     1      -9.849   6.113 129.844  0.00  0.00    +0.000 A 
ATOM      5  C   UNL     1     -10.274   6.707 131.022  0.00  0.00    +0.000 A 
ATOM      6  C   UNL     1     -10.132   6.024 132.361  0.00  0.00    +0.000 A 
ATOM      7  C   UNL     1      -9.479   4.767 132.531  0.00  0.00    +0.000 A 
ATOM      8  C   UNL     1      -9.207   4.296 131.296  0.00  0.00    +0.000 A 
ATOM      9  C   UNL     1      -8.399   3.115 131.236  0.00  0.00    +0.000 C 
ATOM     10  C   UNL     1      -9.396   1.769 131.625  0.00  0.00    +0.000 C 
ATOM     11  C   UNL     1      -8.608   0.478 131.856  0.00  0.00    +0.000 C 
ATOM     12  N   UNL     1      -7.806   0.730 133.037  0.00  0.00    +0.000 NA
ATOM     13  C   UNL     1      -6.750  -0.376 133.075  0.00  0.00    +0.000 C 
ATOM     14  C   UNL     1      -7.599   2.270 133.346  0.00  0.00    +0.000 C 
ATOM     15  C   UNL     1      -8.920   3.615 133.737  0.00  0.00    +0.000 C 
ATOM     16  C   UNL     1      -7.156   3.216 132.280  0.00  0.00    +0.000 C 
ATOM     17  C   UNL     1      -5.798   3.109 131.625  0.00  0.00    +0.000 C 
ATOM     18  C   UNL     1      -6.031   3.246 130.371  0.00  0.00    +0.000 C 
ATOM     19  C   UNL     1      -7.226   2.227 129.609  0.00  0.00    +0.000 C 
ENDROOT
BRANCH   4  20
ATOM     20  O   UNL     1      -9.792   6.728 128.632  0.00  0.00    +0.000 OA
ATOM     21  H   UNL     1     -10.007   6.053 127.951  0.00  0.00    +0.000 HD
ENDBRANCH   4  20
BRANCH  19  22
ATOM     22  O   UNL     1      -7.011   1.712 128.338  0.00  0.00    +0.000 OA
ATOM     23  H   UNL     1      -6.727   0.786 128.491  0.00  0.00    +0.000 HD
ENDBRANCH  19  22
TORSDOF 2
ENDMDL
MODEL 9
REMARK VINA RESULT:      -6.3      6.740      9.041
REMARK  Name = Morphine
REMARK  3 active torsions:
REMARK  status: ('A' for Active; 'I' for Inactive)
REMARK    1  A    between atoms: C_5  and  O_6
REMARK    2  A    between atoms: N_14  and  C_15
REMARK    3  A    between atoms: C_23  and  O_24
REMARK                            x       y       z     vdW  Elec       q    Type
REMARK                         _______ _______ _______ _____ _____    ______ ____
ROOT
ATOM      1  C   UNL     1      -4.121   3.584 131.383  0.00  0.00    +0.000 C 
ATOM      2  O   UNL     1      -5.017   3.035 130.484  0.00  0.00    +0.000 OA
ATOM      3  C   UNL     1      -4.182   3.187 129.397  0.00  0.00    +0.000 A 
ATOM      4  C   UNL     1      -4.029   2.304 128.391  0.00  0.00    +0.000 A 
ATOM      5  C   UNL     1      -3.304   2.814 127.325  0.00  0.00    +0.000 A 
ATOM      6  C   UNL     1      -2.637   4.168 127.384  0.00  0.00    +0.000 A 
ATOM      7  C   UNL     1      -2.625   4.982 128.555  0.00  0.00    +0.000 A 
ATOM      8  C   UNL     1      -3.435   4.386 129.456  0.00  0.00    +0.000 A 
ATOM      9  C   UNL     1      -3.439   4.953 130.771  0.00  0.00    +0.000 C 
ATOM     10  C   UNL     1      -4.392   6.383 130.731  0.00  0.00    +0.000 C 
ATOM     11  C   UNL     1      -4.268   7.230 131.999  0.00  0.00    +0.000 C 
ATOM     12  N   UNL     1      -2.889   7.675 132.024  0.00  0.00    +0.000 NA
ATOM     13  C   UNL     1      -2.638   8.198 133.440  0.00  0.00    +0.000 C 
ATOM     14  C   UNL     1      -1.919   6.787 131.140  0.00  0.00    +0.000 C 
ATOM     15  C   UNL     1      -1.968   6.463 129.242  0.00  0.00    +0.000 C 
ATOM     16  C   UNL     1      -1.924   5.298 131.251  0.00  0.00    +0.000 C 
ATOM     17  C   UNL     1      -1.509   4.587 132.519  0.00  0.00    +0.000 C 
ATOM     18  C   UNL     1      -2.405   3.687 132.695  0.00  0.00    +0.000 C 
ATOM     19  C   UNL     1      -4.088   4.150 132.707  0.00  0.00    +0.000 C 
ENDROOT
BRANCH   4  20
ATOM     20  O   UNL     1      -4.512   1.035 128.473  0.00  0.00    +0.000 OA
ATOM     21  H   UNL     1      -3.799   0.430 128.171  0.00  0.00    +0.000 HD
ENDBRANCH   4  20
BRANCH  19  22
ATOM     22  O   UNL     1      -4.975   3.574 133.605  0.00  0.00    +0.000 OA
ATOM     23  H   UNL     1      -4.798   2.611 133.546  0.00  0.00    +0.000 HD
ENDBRANCH  19  22
TORSDOF 2
ENDMDL
