MODEL 1
REMARK VINA RESULT:      -9.4      0.000      0.000
REMARK  Name = Moxidectin
REMARK  13 active torsions:
REMARK  status: ('A' for Active; 'I' for Inactive)
REMARK    1  A    between atoms: C_9  and  C_10
REMARK    2  A    between atoms: C_12  and  C_13
REMARK    3  A    between atoms: N_25  and  O_26
REMARK    4  A    between atoms: O_26  and  C_27
REMARK    5  A    between atoms: C_28  and  C_29
REMARK    6  A    between atoms: C_30  and  C_32
REMARK    7  A    between atoms: C_32  and  C_33
REMARK    8  A    between atoms: C_34  and  C_35
REMARK    9  A    between atoms: C_35  and  C_36
REMARK   10  A    between atoms: C_35  and  C_37
REMARK   11  A    between atoms: C_45  and  C_46
REMARK   12  A    between atoms: C_47  and  O_48
REMARK   13  A    between atoms: C_49  and  O_50
REMARK                            x       y       z     vdW  Elec       q    Type
REMARK                         _______ _______ _______ _____ _____    ______ ____
ROOT
ATOM      1  C   UNL     1      -1.960  11.867 134.680  0.00  0.00    +0.000 C 
ATOM      2  O   UNL     1      -1.769  11.670 133.304  0.00  0.00    +0.000 OA
ATOM      3  C   UNL     1      -2.064  10.362 133.075  0.00  0.00    +0.000 C 
ATOM      4  C   UNL     1      -2.359   9.696 134.236  0.00  0.00    +0.000 C 
ATOM      5  C   UNL     1      -2.612   8.458 134.208  0.00  0.00    +0.000 C 
ATOM      6  C   UNL     1      -2.796   7.482 133.356  0.00  0.00    +0.000 C 
ATOM      7  C   UNL     1      -3.025   6.207 133.540  0.00  0.00    +0.000 C 
ATOM      8  C   UNL     1      -3.244   5.261 132.512  0.00  0.00    +0.000 C 
ATOM      9  C   UNL     1      -4.335   5.772 131.609  0.00  0.00    +0.000 C 
ATOM     10  C   UNL     1      -3.314   3.836 132.913  0.00  0.00    +0.000 C 
ATOM     11  C   UNL     1      -3.691   2.867 131.913  0.00  0.00    +0.000 C 
ATOM     12  C   UNL     1      -3.462   3.306 130.545  0.00  0.00    +0.000 C 
ATOM     13  C   UNL     1      -3.954   1.597 132.212  0.00  0.00    +0.000 C 
ATOM     14  C   UNL     1      -4.059   0.602 131.179  0.00  0.00    +0.000 C 
ATOM     15  C   UNL     1      -4.611  -0.675 131.599  0.00  0.00    +0.000 C 
ATOM     16  C   UNL     1      -5.921   0.187 132.454  0.00  0.00    +0.000 C 
ATOM     17  C   UNL     1      -5.912   2.401 132.806  0.00  0.00    +0.000 C 
ATOM     18  C   UNL     1      -6.537   0.581 131.278  0.00  0.00    +0.000 C 
ATOM     19  C   UNL     1      -5.790  -0.803 129.732  0.00  0.00    +0.000 C 
ATOM     20  C   UNL     1      -5.397   0.247 128.866  0.00  0.00    +0.000 C 
ATOM     21  C   UNL     1      -6.258   0.897 127.937  0.00  0.00    +0.000 C 
ATOM     22  N   UNL     1      -6.052   2.174 127.782  0.00  0.00    +0.000 NA
ATOM     23  C   UNL     1      -6.490   0.053 126.780  0.00  0.00    +0.000 C 
ATOM     24  C   UNL     1      -7.513   0.720 125.927  0.00  0.00    +0.000 C 
ATOM     25  C   UNL     1      -6.842  -1.365 127.178  0.00  0.00    +0.000 C 
ATOM     26  O   UNL     1      -5.946  -1.850 128.263  0.00  0.00    +0.000 OA
ATOM     27  O   UNL     1      -4.737  -1.523 130.396  0.00  0.00    +0.000 OA
ATOM     28  O   UNL     1      -5.241   4.545 133.999  0.00  0.00    +0.000 OA
ATOM     29  C   UNL     1      -4.455   6.449 135.096  0.00  0.00    +0.000 C 
ATOM     30  O   UNL     1      -3.219   6.531 136.075  0.00  0.00    +0.000 OA
ATOM     31  C   UNL     1      -3.530   8.759 135.959  0.00  0.00    +0.000 C 
ATOM     32  C   UNL     1      -2.096  10.617 136.625  0.00  0.00    +0.000 C 
ATOM     33  C   UNL     1      -1.353  12.305 136.665  0.00  0.00    +0.000 C 
ATOM     34  C   UNL     1      -0.195  13.662 137.418  0.00  0.00    +0.000 C 
ATOM     35  C   UNL     1      -1.686  13.152 135.495  0.00  0.00    +0.000 C 
ATOM     36  C   UNL     1      -2.474  10.332 135.415  0.00  0.00    +0.000 C 
ENDROOT
BRANCH  25  37
ATOM     37  C   UNL     1      -6.885  -2.230 125.901  0.00  0.00    +0.000 C 
ATOM     38  C   UNL     1      -8.144  -2.974 125.530  0.00  0.00    +0.000 C 
ATOM     39  C   UNL     1      -5.830  -2.351 125.090  0.00  0.00    +0.000 C 
BRANCH  39  40
ATOM     40  C   UNL     1      -5.864  -3.165 123.832  0.00  0.00    +0.000 C 
ATOM     41  C   UNL     1      -5.970  -2.255 122.623  0.00  0.00    +0.000 C 
ATOM     42  C   UNL     1      -4.620  -4.001 123.701  0.00  0.00    +0.000 C 
ENDBRANCH  39  40
ENDBRANCH  25  37
BRANCH  22  43
ATOM     43  O   UNL     1      -6.307   2.860 128.963  0.00  0.00    +0.000 OA
ATOM     44  C   UNL     1      -7.614   3.408 129.022  0.00  0.00    +0.000 C 
ENDBRANCH  22  43
BRANCH  35  45
ATOM     45  O   UNL     1      -0.633  14.095 134.782  0.00  0.00    +0.000 OA
ATOM     46  H   UNL     1       0.117  13.511 134.567  0.00  0.00    +0.000 HD
ENDBRANCH  35  45
BRANCH  36  47
ATOM     47  O   UNL     1      -2.706   9.158 136.764  0.00  0.00    +0.000 OA
ATOM     48  H   UNL     1      -2.914   8.117 136.051  0.00  0.00    +0.000 HD
ENDBRANCH  36  47
TORSDOF 5
ENDMDL
MODEL 2
REMARK VINA RESULT:      -9.1      2.421      4.224
REMARK  Name = Moxidectin
REMARK  13 active torsions:
REMARK  status: ('A' for Active; 'I' for Inactive)
REMARK    1  A    between atoms: C_9  and  C_10
REMARK    2  A    between atoms: C_12  and  C_13
REMARK    3  A    between atoms: N_25  and  O_26
REMARK    4  A    between atoms: O_26  and  C_27
REMARK    5  A    between atoms: C_28  and  C_29
REMARK    6  A    between atoms: C_30  and  C_32
REMARK    7  A    between atoms: C_32  and  C_33
REMARK    8  A    between atoms: C_34  and  C_35
REMARK    9  A    between atoms: C_35  and  C_36
REMARK   10  A    between atoms: C_35  and  C_37
REMARK   11  A    between atoms: C_45  and  C_46
REMARK   12  A    between atoms: C_47  and  O_48
REMARK   13  A    between atoms: C_49  and  O_50
REMARK                            x       y       z     vdW  Elec       q    Type
REMARK                         _______ _______ _______ _____ _____    ______ ____
ROOT
ATOM      1  C   UNL     1      -3.389   8.213 138.452  0.00  0.00    +0.000 C 
ATOM      2  O   UNL     1      -4.317   7.160 138.414  0.00  0.00    +0.000 OA
ATOM      3  C   UNL     1      -4.413   6.803 137.105  0.00  0.00    +0.000 C 
ATOM      4  C   UNL     1      -3.659   7.615 136.298  0.00  0.00    +0.000 C 
ATOM      5  C   UNL     1      -3.672   7.450 135.045  0.00  0.00    +0.000 C 
ATOM      6  C   UNL     1      -4.138   6.630 134.137  0.00  0.00    +0.000 C 
ATOM      7  C   UNL     1      -4.062   6.656 132.832  0.00  0.00    +0.000 C 
ATOM      8  C   UNL     1      -4.589   5.670 131.965  0.00  0.00    +0.000 C 
ATOM      9  C   UNL     1      -4.083   4.321 132.403  0.00  0.00    +0.000 C 
ATOM     10  C   UNL     1      -4.555   5.963 130.513  0.00  0.00    +0.000 C 
ATOM     11  C   UNL     1      -4.939   4.915 129.599  0.00  0.00    +0.000 C 
ATOM     12  C   UNL     1      -5.787   3.892 130.192  0.00  0.00    +0.000 C 
ATOM     13  C   UNL     1      -4.773   5.018 128.283  0.00  0.00    +0.000 C 
ATOM     14  C   UNL     1      -5.405   4.089 127.385  0.00  0.00    +0.000 C 
ATOM     15  C   UNL     1      -4.937   4.138 126.010  0.00  0.00    +0.000 C 
ATOM     16  C   UNL     1      -3.250   4.147 126.597  0.00  0.00    +0.000 C 
ATOM     17  C   UNL     1      -2.699   4.457 128.749  0.00  0.00    +0.000 C 
ATOM     18  C   UNL     1      -3.303   2.827 127.012  0.00  0.00    +0.000 C 
ATOM     19  C   UNL     1      -4.980   1.930 125.896  0.00  0.00    +0.000 C 
ATOM     20  C   UNL     1      -5.593   1.420 127.067  0.00  0.00    +0.000 C 
ATOM     21  C   UNL     1      -5.268   0.175 127.675  0.00  0.00    +0.000 C 
ATOM     22  N   UNL     1      -5.309   0.161 128.978  0.00  0.00    +0.000 NA
ATOM     23  C   UNL     1      -5.835  -0.927 126.920  0.00  0.00    +0.000 C 
ATOM     24  C   UNL     1      -5.333  -2.196 127.516  0.00  0.00    +0.000 C 
ATOM     25  C   UNL     1      -5.568  -0.789 125.436  0.00  0.00    +0.000 C 
ATOM     26  O   UNL     1      -5.811   0.607 124.980  0.00  0.00    +0.000 OA
ATOM     27  O   UNL     1      -5.617   3.056 125.269  0.00  0.00    +0.000 OA
ATOM     28  O   UNL     1      -2.259   5.831 130.843  0.00  0.00    +0.000 OA
ATOM     29  C   UNL     1      -2.006   7.187 132.727  0.00  0.00    +0.000 C 
ATOM     30  O   UNL     1      -2.492   8.680 132.887  0.00  0.00    +0.000 OA
ATOM     31  C   UNL     1      -1.924   8.423 135.050  0.00  0.00    +0.000 C 
ATOM     32  C   UNL     1      -2.446   9.768 137.018  0.00  0.00    +0.000 C 
ATOM     33  C   UNL     1      -2.758  10.212 138.781  0.00  0.00    +0.000 C 
ATOM     34  C   UNL     1      -3.088  11.477 140.209  0.00  0.00    +0.000 C 
ATOM     35  C   UNL     1      -2.966   9.051 139.680  0.00  0.00    +0.000 C 
ATOM     36  C   UNL     1      -2.827   8.545 136.798  0.00  0.00    +0.000 C 
ENDROOT
BRANCH  25  37
ATOM     37  C   UNL     1      -6.360  -1.887 124.697  0.00  0.00    +0.000 C 
ATOM     38  C   UNL     1      -5.632  -3.014 124.007  0.00  0.00    +0.000 C 
ATOM     39  C   UNL     1      -7.695  -1.885 124.642  0.00  0.00    +0.000 C 
BRANCH  39  40
ATOM     40  C   UNL     1      -8.480  -2.960 123.951  0.00  0.00    +0.000 C 
ATOM     41  C   UNL     1      -9.388  -3.662 124.943  0.00  0.00    +0.000 C 
ATOM     42  C   UNL     1      -9.324  -2.381 122.848  0.00  0.00    +0.000 C 
ENDBRANCH  39  40
ENDBRANCH  25  37
BRANCH  22  43
ATOM     43  O   UNL     1      -4.351   1.017 129.508  0.00  0.00    +0.000 OA
ATOM     44  C   UNL     1      -4.137   0.827 130.897  0.00  0.00    +0.000 C 
ENDBRANCH  22  43
BRANCH  35  45
ATOM     45  O   UNL     1      -4.062   9.028 140.822  0.00  0.00    +0.000 OA
ATOM     46  H   UNL     1      -4.116   8.094 141.095  0.00  0.00    +0.000 HD
ENDBRANCH  35  45
BRANCH  36  47
ATOM     47  O   UNL     1      -2.109   9.548 135.483  0.00  0.00    +0.000 OA
ATOM     48  H   UNL     1      -3.188   9.778 134.835  0.00  0.00    +0.000 HD
ENDBRANCH  36  47
TORSDOF 5
ENDMDL
MODEL 3
REMARK VINA RESULT:      -8.7      2.339     13.199
REMARK  Name = Moxidectin
REMARK  13 active torsions:
REMARK  status: ('A' for Active; 'I' for Inactive)
REMARK    1  A    between atoms: C_9  and  C_10
REMARK    2  A    between atoms: C_12  and  C_13
REMARK    3  A    between atoms: N_25  and  O_26
REMARK    4  A    between atoms: O_26  and  C_27
REMARK    5  A    between atoms: C_28  and  C_29
REMARK    6  A    between atoms: C_30  and  C_32
REMARK    7  A    between atoms: C_32  and  C_33
REMARK    8  A    between atoms: C_34  and  C_35
REMARK    9  A    between atoms: C_35  and  C_36
REMARK   10  A    between atoms: C_35  and  C_37
REMARK   11  A    between atoms: C_45  and  C_46
REMARK   12  A    between atoms: C_47  and  O_48
REMARK   13  A    between atoms: C_49  and  O_50
REMARK                            x       y       z     vdW  Elec       q    Type
REMARK                         _______ _______ _______ _____ _____    ______ ____
ROOT
ATOM      1  C   UNL     1      -7.296  -1.152 124.771  0.00  0.00    +0.000 C 
ATOM      2  O   UNL     1      -6.924   0.156 124.424  0.00  0.00    +0.000 OA
ATOM      3  C   UNL     1      -6.751   0.814 125.602  0.00  0.00    +0.000 C 
ATOM      4  C   UNL     1      -7.064   0.023 126.677  0.00  0.00    +0.000 C 
ATOM      5  C   UNL     1      -7.003   0.496 127.848  0.00  0.00    +0.000 C 
ATOM      6  C   UNL     1      -6.623   1.574 128.486  0.00  0.00    +0.000 C 
ATOM      7  C   UNL     1      -6.677   1.890 129.754  0.00  0.00    +0.000 C 
ATOM      8  C   UNL     1      -6.188   3.092 130.317  0.00  0.00    +0.000 C 
ATOM      9  C   UNL     1      -4.759   3.284 129.881  0.00  0.00    +0.000 C 
ATOM     10  C   UNL     1      -6.496   3.341 131.744  0.00  0.00    +0.000 C 
ATOM     11  C   UNL     1      -5.880   4.478 132.384  0.00  0.00    +0.000 C 
ATOM     12  C   UNL     1      -5.455   5.520 131.461  0.00  0.00    +0.000 C 
ATOM     13  C   UNL     1      -5.951   4.685 133.697  0.00  0.00    +0.000 C 
ATOM     14  C   UNL     1      -5.569   5.949 134.266  0.00  0.00    +0.000 C 
ATOM     15  C   UNL     1      -5.431   5.963 135.713  0.00  0.00    +0.000 C 
ATOM     16  C   UNL     1      -4.486   4.450 135.625  0.00  0.00    +0.000 C 
ATOM     17  C   UNL     1      -4.323   3.208 133.765  0.00  0.00    +0.000 C 
ATOM     18  C   UNL     1      -3.388   5.075 135.059  0.00  0.00    +0.000 C 
ATOM     19  C   UNL     1      -3.615   7.214 135.547  0.00  0.00    +0.000 C 
ATOM     20  C   UNL     1      -3.458   7.622 134.200  0.00  0.00    +0.000 C 
ATOM     21  C   UNL     1      -2.205   7.851 133.564  0.00  0.00    +0.000 C 
ATOM     22  N   UNL     1      -2.142   7.502 132.310  0.00  0.00    +0.000 NA
ATOM     23  C   UNL     1      -1.636   9.114 133.994  0.00  0.00    +0.000 C 
ATOM     24  C   UNL     1      -0.267   9.219 133.417  0.00  0.00    +0.000 C 
ATOM     25  C   UNL     1      -1.688   9.271 135.500  0.00  0.00    +0.000 C 
ATOM     26  O   UNL     1      -3.014   8.852 136.032  0.00  0.00    +0.000 OA
ATOM     27  O   UNL     1      -4.939   7.301 136.100  0.00  0.00    +0.000 OA
ATOM     28  O   UNL     1      -5.115   1.500 132.055  0.00  0.00    +0.000 OA
ATOM     29  C   UNL     1      -6.004   0.012 130.492  0.00  0.00    +0.000 C 
ATOM     30  O   UNL     1      -7.510  -0.452 130.380  0.00  0.00    +0.000 OA
ATOM     31  C   UNL     1      -6.863  -1.408 128.447  0.00  0.00    +0.000 C 
ATOM     32  C   UNL     1      -8.162  -2.302 126.585  0.00  0.00    +0.000 C 
ATOM     33  C   UNL     1      -8.604  -2.820 124.870  0.00  0.00    +0.000 C 
ATOM     34  C   UNL     1      -9.762  -3.663 123.568  0.00  0.00    +0.000 C 
ATOM     35  C   UNL     1      -7.697  -2.302 123.818  0.00  0.00    +0.000 C 
ATOM     36  C   UNL     1      -7.360  -1.281 126.544  0.00  0.00    +0.000 C 
ENDROOT
BRANCH  25  37
ATOM     37  C   UNL     1      -1.243  10.706 135.852  0.00  0.00    +0.000 C 
ATOM     38  C   UNL     1       0.074  10.943 136.549  0.00  0.00    +0.000 C 
ATOM     39  C   UNL     1      -1.992  11.774 135.559  0.00  0.00    +0.000 C 
BRANCH  39  40
ATOM     40  C   UNL     1      -1.560  13.176 135.871  0.00  0.00    +0.000 C 
ATOM     41  C   UNL     1      -1.880  14.092 134.705  0.00  0.00    +0.000 C 
ATOM     42  C   UNL     1      -2.262  13.691 137.099  0.00  0.00    +0.000 C 
ENDBRANCH  39  40
ENDBRANCH  25  37
BRANCH  22  43
ATOM     43  O   UNL     1      -2.306   6.129 132.173  0.00  0.00    +0.000 OA
ATOM     44  C   UNL     1      -1.083   5.411 132.223  0.00  0.00    +0.000 C 
ENDBRANCH  22  43
BRANCH  35  45
ATOM     45  O   UNL     1      -8.211  -1.764 122.421  0.00  0.00    +0.000 OA
ATOM     46  H   UNL     1      -8.130  -2.525 121.818  0.00  0.00    +0.000 HD
ENDBRANCH  35  45
BRANCH  36  47
ATOM     47  O   UNL     1      -7.881  -1.993 128.116  0.00  0.00    +0.000 OA
ATOM     48  H   UNL     1      -7.282  -1.164 128.885  0.00  0.00    +0.000 HD
ENDBRANCH  36  47
TORSDOF 5
ENDMDL
MODEL 4
REMARK VINA RESULT:      -8.6      7.806     10.013
REMARK  Name = Moxidectin
REMARK  13 active torsions:
REMARK  status: ('A' for Active; 'I' for Inactive)
REMARK    1  A    between atoms: C_9  and  C_10
REMARK    2  A    between atoms: C_12  and  C_13
REMARK    3  A    between atoms: N_25  and  O_26
REMARK    4  A    between atoms: O_26  and  C_27
REMARK    5  A    between atoms: C_28  and  C_29
REMARK    6  A    between atoms: C_30  and  C_32
REMARK    7  A    between atoms: C_32  and  C_33
REMARK    8  A    between atoms: C_34  and  C_35
REMARK    9  A    between atoms: C_35  and  C_36
REMARK   10  A    between atoms: C_35  and  C_37
REMARK   11  A    between atoms: C_45  and  C_46
REMARK   12  A    between atoms: C_47  and  O_48
REMARK   13  A    between atoms: C_49  and  O_50
REMARK                            x       y       z     vdW  Elec       q    Type
REMARK                         _______ _______ _______ _____ _____    ______ ____
ROOT
ATOM      1  C   UNL     1      -3.224  -3.020 137.945  0.00  0.00    +0.000 C 
ATOM      2  O   UNL     1      -2.711  -1.850 137.362  0.00  0.00    +0.000 OA
ATOM      3  C   UNL     1      -3.112  -1.881 136.063  0.00  0.00    +0.000 C 
ATOM      4  C   UNL     1      -3.785  -3.037 135.765  0.00  0.00    +0.000 C 
ATOM      5  C   UNL     1      -4.188  -3.248 134.585  0.00  0.00    +0.000 C 
ATOM      6  C   UNL     1      -4.276  -2.651 133.424  0.00  0.00    +0.000 C 
ATOM      7  C   UNL     1      -4.716  -3.074 132.267  0.00  0.00    +0.000 C 
ATOM      8  C   UNL     1      -4.788  -2.297 131.088  0.00  0.00    +0.000 C 
ATOM      9  C   UNL     1      -5.528  -1.021 131.393  0.00  0.00    +0.000 C 
ATOM     10  C   UNL     1      -5.152  -3.003 129.838  0.00  0.00    +0.000 C 
ATOM     11  C   UNL     1      -5.386  -2.213 128.653  0.00  0.00    +0.000 C 
ATOM     12  C   UNL     1      -4.752  -0.903 128.680  0.00  0.00    +0.000 C 
ATOM     13  C   UNL     1      -5.887  -2.732 127.535  0.00  0.00    +0.000 C 
ATOM     14  C   UNL     1      -5.855  -1.994 126.301  0.00  0.00    +0.000 C 
ATOM     15  C   UNL     1      -6.665  -2.544 125.227  0.00  0.00    +0.000 C 
ATOM     16  C   UNL     1      -8.022  -2.744 126.370  0.00  0.00    +0.000 C 
ATOM     17  C   UNL     1      -7.804  -2.520 128.591  0.00  0.00    +0.000 C 
ATOM     18  C   UNL     1      -8.253  -1.382 126.460  0.00  0.00    +0.000 C 
ATOM     19  C   UNL     1      -7.326  -0.511 124.658  0.00  0.00    +0.000 C 
ATOM     20  C   UNL     1      -6.583   0.439 125.400  0.00  0.00    +0.000 C 
ATOM     21  C   UNL     1      -7.078   1.707 125.817  0.00  0.00    +0.000 C 
ATOM     22  N   UNL     1      -6.667   2.111 126.986  0.00  0.00    +0.000 NA
ATOM     23  C   UNL     1      -7.115   2.634 124.701  0.00  0.00    +0.000 C 
ATOM     24  C   UNL     1      -7.782   3.882 125.166  0.00  0.00    +0.000 C 
ATOM     25  C   UNL     1      -7.748   2.012 123.474  0.00  0.00    +0.000 C 
ATOM     26  O   UNL     1      -7.237   0.631 123.255  0.00  0.00    +0.000 OA
ATOM     27  O   UNL     1      -6.589  -1.607 124.087  0.00  0.00    +0.000 OA
ATOM     28  O   UNL     1      -7.180  -3.279 130.936  0.00  0.00    +0.000 OA
ATOM     29  C   UNL     1      -6.453  -4.044 133.018  0.00  0.00    +0.000 C 
ATOM     30  O   UNL     1      -5.514  -5.283 133.294  0.00  0.00    +0.000 OA
ATOM     31  C   UNL     1      -5.479  -4.530 135.416  0.00  0.00    +0.000 C 
ATOM     32  C   UNL     1      -4.027  -5.092 137.295  0.00  0.00    +0.000 C 
ATOM     33  C   UNL     1      -3.097  -4.921 138.879  0.00  0.00    +0.000 C 
ATOM     34  C   UNL     1      -2.001  -5.609 140.319  0.00  0.00    +0.000 C 
ATOM     35  C   UNL     1      -2.998  -3.531 139.387  0.00  0.00    +0.000 C 
ATOM     36  C   UNL     1      -4.114  -3.936 136.708  0.00  0.00    +0.000 C 
ENDROOT
BRANCH  25  37
ATOM     37  C   UNL     1      -7.575   2.989 122.293  0.00  0.00    +0.000 C 
ATOM     38  C   UNL     1      -8.776   3.434 121.493  0.00  0.00    +0.000 C 
ATOM     39  C   UNL     1      -6.380   3.471 121.938  0.00  0.00    +0.000 C 
BRANCH  39  40
ATOM     40  C   UNL     1      -6.200   4.442 120.810  0.00  0.00    +0.000 C 
ATOM     41  C   UNL     1      -4.773   4.956 120.786  0.00  0.00    +0.000 C 
ATOM     42  C   UNL     1      -6.502   3.789 119.488  0.00  0.00    +0.000 C 
ENDBRANCH  39  40
ENDBRANCH  25  37
BRANCH  22  43
ATOM     43  O   UNL     1      -7.124   1.263 127.987  0.00  0.00    +0.000 OA
ATOM     44  C   UNL     1      -8.369   1.662 128.536  0.00  0.00    +0.000 C 
ENDBRANCH  22  43
BRANCH  35  45
ATOM     45  O   UNL     1      -1.679  -2.937 140.028  0.00  0.00    +0.000 OA
ATOM     46  H   UNL     1      -1.396  -2.237 139.412  0.00  0.00    +0.000 HD
ENDBRANCH  35  45
BRANCH  36  47
ATOM     47  O   UNL     1      -4.845  -5.411 135.972  0.00  0.00    +0.000 OA
ATOM     48  H   UNL     1      -5.233  -4.880 134.875  0.00  0.00    +0.000 HD
ENDBRANCH  36  47
TORSDOF 5
ENDMDL
MODEL 5
REMARK VINA RESULT:      -8.5      2.320      4.118
REMARK  Name = Moxidectin
REMARK  13 active torsions:
REMARK  status: ('A' for Active; 'I' for Inactive)
REMARK    1  A    between atoms: C_9  and  C_10
REMARK    2  A    between atoms: C_12  and  C_13
REMARK    3  A    between atoms: N_25  and  O_26
REMARK    4  A    between atoms: O_26  and  C_27
REMARK    5  A    between atoms: C_28  and  C_29
REMARK    6  A    between atoms: C_30  and  C_32
REMARK    7  A    between atoms: C_32  and  C_33
REMARK    8  A    between atoms: C_34  and  C_35
REMARK    9  A    between atoms: C_35  and  C_36
REMARK   10  A    between atoms: C_35  and  C_37
REMARK   11  A    between atoms: C_45  and  C_46
REMARK   12  A    between atoms: C_47  and  O_48
REMARK   13  A    between atoms: C_49  and  O_50
REMARK                            x       y       z     vdW  Elec       q    Type
REMARK                         _______ _______ _______ _____ _____    ______ ____
ROOT
ATOM      1  C   UNL     1      -1.470  10.892 138.316  0.00  0.00    +0.000 C 
ATOM      2  O   UNL     1      -2.774  10.373 138.342  0.00  0.00    +0.000 OA
ATOM      3  C   UNL     1      -2.960   9.785 137.130  0.00  0.00    +0.000 C 
ATOM      4  C   UNL     1      -1.880   9.964 136.306  0.00  0.00    +0.000 C 
ATOM      5  C   UNL     1      -1.907   9.519 135.123  0.00  0.00    +0.000 C 
ATOM      6  C   UNL     1      -2.653   8.789 134.333  0.00  0.00    +0.000 C 
ATOM      7  C   UNL     1      -2.511   8.460 133.074  0.00  0.00    +0.000 C 
ATOM      8  C   UNL     1      -3.389   7.622 132.348  0.00  0.00    +0.000 C 
ATOM      9  C   UNL     1      -3.580   6.340 133.114  0.00  0.00    +0.000 C 
ATOM     10  C   UNL     1      -3.155   7.506 130.890  0.00  0.00    +0.000 C 
ATOM     11  C   UNL     1      -3.932   6.541 130.151  0.00  0.00    +0.000 C 
ATOM     12  C   UNL     1      -5.183   6.169 130.795  0.00  0.00    +0.000 C 
ATOM     13  C   UNL     1      -3.675   6.237 128.881  0.00  0.00    +0.000 C 
ATOM     14  C   UNL     1      -4.618   5.487 128.096  0.00  0.00    +0.000 C 
ATOM     15  C   UNL     1      -4.114   4.989 126.827  0.00  0.00    +0.000 C 
ATOM     16  C   UNL     1      -2.642   4.407 127.654  0.00  0.00    +0.000 C 
ATOM     17  C   UNL     1      -2.115   4.962 129.762  0.00  0.00    +0.000 C 
ATOM     18  C   UNL     1      -3.315   3.388 128.307  0.00  0.00    +0.000 C 
ATOM     19  C   UNL     1      -5.161   3.066 127.144  0.00  0.00    +0.000 C 
ATOM     20  C   UNL     1      -5.995   3.178 128.283  0.00  0.00    +0.000 C 
ATOM     21  C   UNL     1      -6.307   2.106 129.167  0.00  0.00    +0.000 C 
ATOM     22  N   UNL     1      -6.412   2.431 130.424  0.00  0.00    +0.000 NA
ATOM     23  C   UNL     1      -7.280   1.214 128.564  0.00  0.00    +0.000 C 
ATOM     24  C   UNL     1      -7.445   0.041 129.468  0.00  0.00    +0.000 C 
ATOM     25  C   UNL     1      -6.907   0.854 127.141  0.00  0.00    +0.000 C 
ATOM     26  O   UNL     1      -6.461   2.057 126.388  0.00  0.00    +0.000 OA
ATOM     27  O   UNL     1      -5.179   4.166 126.218  0.00  0.00    +0.000 OA
ATOM     28  O   UNL     1      -1.195   6.474 131.589  0.00  0.00    +0.000 OA
ATOM     29  C   UNL     1      -0.438   7.999 133.186  0.00  0.00    +0.000 C 
ATOM     30  O   UNL     1      -0.192   9.545 132.972  0.00  0.00    +0.000 OA
ATOM     31  C   UNL     1       0.090   9.604 135.206  0.00  0.00    +0.000 C 
ATOM     32  C   UNL     1       0.149  11.478 136.768  0.00  0.00    +0.000 C 
ATOM     33  C   UNL     1      -0.008  12.429 138.340  0.00  0.00    +0.000 C 
ATOM     34  C   UNL     1       0.211  14.019 139.423  0.00  0.00    +0.000 C 
ATOM     35  C   UNL     1      -0.769  11.734 139.406  0.00  0.00    +0.000 C 
ATOM     36  C   UNL     1      -0.739  10.530 136.735  0.00  0.00    +0.000 C 
ENDROOT
BRANCH  25  37
ATOM     37  C   UNL     1      -8.079   0.065 126.519  0.00  0.00    +0.000 C 
ATOM     38  C   UNL     1      -9.386   0.757 126.222  0.00  0.00    +0.000 C 
ATOM     39  C   UNL     1      -7.983  -1.235 126.225  0.00  0.00    +0.000 C 
BRANCH  39  40
ATOM     40  C   UNL     1      -9.104  -2.008 125.596  0.00  0.00    +0.000 C 
ATOM     41  C   UNL     1      -8.761  -2.346 124.157  0.00  0.00    +0.000 C 
ATOM     42  C   UNL     1      -9.359  -3.287 126.346  0.00  0.00    +0.000 C 
ENDBRANCH  39  40
ENDBRANCH  25  37
BRANCH  22  43
ATOM     43  O   UNL     1      -5.195   2.885 130.917  0.00  0.00    +0.000 OA
ATOM     44  C   UNL     1      -4.433   1.872 131.552  0.00  0.00    +0.000 C 
ENDBRANCH  22  43
BRANCH  35  45
ATOM     45  O   UNL     1      -1.806  12.470 140.348  0.00  0.00    +0.000 OA
ATOM     46  H   UNL     1      -1.586  12.164 141.246  0.00  0.00    +0.000 HD
ENDBRANCH  35  45
BRANCH  36  47
ATOM     47  O   UNL     1       0.421  10.765 135.375  0.00  0.00    +0.000 OA
ATOM     48  H   UNL     1       0.472   9.549 134.982  0.00  0.00    +0.000 HD
ENDBRANCH  36  47
TORSDOF 5
ENDMDL
MODEL 6
REMARK VINA RESULT:      -8.4      6.924     10.018
REMARK  Name = Moxidectin
REMARK  13 active torsions:
REMARK  status: ('A' for Active; 'I' for Inactive)
REMARK    1  A    between atoms: C_9  and  C_10
REMARK    2  A    between atoms: C_12  and  C_13
REMARK    3  A    between atoms: N_25  and  O_26
REMARK    4  A    between atoms: O_26  and  C_27
REMARK    5  A    between atoms: C_28  and  C_29
REMARK    6  A    between atoms: C_30  and  C_32
REMARK    7  A    between atoms: C_32  and  C_33
REMARK    8  A    between atoms: C_34  and  C_35
REMARK    9  A    between atoms: C_35  and  C_36
REMARK   10  A    between atoms: C_35  and  C_37
REMARK   11  A    between atoms: C_45  and  C_46
REMARK   12  A    between atoms: C_47  and  O_48
REMARK   13  A    between atoms: C_49  and  O_50
REMARK                            x       y       z     vdW  Elec       q    Type
REMARK                         _______ _______ _______ _____ _____    ______ ____
ROOT
ATOM      1  C   UNL     1       0.305  -3.928 138.136  0.00  0.00    +0.000 C 
ATOM      2  O   UNL     1       0.954  -3.149 137.165  0.00  0.00    +0.000 OA
ATOM      3  C   UNL     1       0.086  -3.064 136.121  0.00  0.00    +0.000 C 
ATOM      4  C   UNL     1      -1.046  -3.806 136.338  0.00  0.00    +0.000 C 
ATOM      5  C   UNL     1      -1.937  -3.875 135.445  0.00  0.00    +0.000 C 
ATOM      6  C   UNL     1      -2.244  -3.364 134.279  0.00  0.00    +0.000 C 
ATOM      7  C   UNL     1      -3.241  -3.604 133.467  0.00  0.00    +0.000 C 
ATOM      8  C   UNL     1      -3.470  -2.942 132.239  0.00  0.00    +0.000 C 
ATOM      9  C   UNL     1      -3.454  -1.455 132.480  0.00  0.00    +0.000 C 
ATOM     10  C   UNL     1      -4.553  -3.473 131.380  0.00  0.00    +0.000 C 
ATOM     11  C   UNL     1      -4.913  -2.726 130.199  0.00  0.00    +0.000 C 
ATOM     12  C   UNL     1      -3.862  -1.844 129.713  0.00  0.00    +0.000 C 
ATOM     13  C   UNL     1      -5.982  -3.021 129.464  0.00  0.00    +0.000 C 
ATOM     14  C   UNL     1      -6.163  -2.444 128.160  0.00  0.00    +0.000 C 
ATOM     15  C   UNL     1      -7.482  -2.625 127.577  0.00  0.00    +0.000 C 
ATOM     16  C   UNL     1      -8.221  -2.130 129.126  0.00  0.00    +0.000 C 
ATOM     17  C   UNL     1      -7.055  -1.911 131.030  0.00  0.00    +0.000 C 
ATOM     18  C   UNL     1      -7.838  -0.808 128.978  0.00  0.00    +0.000 C 
ATOM     19  C   UNL     1      -7.456  -0.546 126.822  0.00  0.00    +0.000 C 
ATOM     20  C   UNL     1      -6.169   0.004 127.033  0.00  0.00    +0.000 C 
ATOM     21  C   UNL     1      -5.908   1.379 127.295  0.00  0.00    +0.000 C 
ATOM     22  N   UNL     1      -4.938   1.616 128.132  0.00  0.00    +0.000 NA
ATOM     23  C   UNL     1      -6.024   2.162 126.079  0.00  0.00    +0.000 C 
ATOM     24  C   UNL     1      -5.895   3.600 126.447  0.00  0.00    +0.000 C 
ATOM     25  C   UNL     1      -7.287   1.829 125.313  0.00  0.00    +0.000 C 
ATOM     26  O   UNL     1      -7.499   0.357 125.252  0.00  0.00    +0.000 OA
ATOM     27  O   UNL     1      -7.510  -1.885 126.299  0.00  0.00    +0.000 OA
ATOM     28  O   UNL     1      -5.893  -2.745 133.132  0.00  0.00    +0.000 OA
ATOM     29  C   UNL     1      -4.754  -3.643 134.961  0.00  0.00    +0.000 C 
ATOM     30  O   UNL     1      -4.356  -5.157 135.174  0.00  0.00    +0.000 OA
ATOM     31  C   UNL     1      -3.173  -4.390 136.931  0.00  0.00    +0.000 C 
ATOM     32  C   UNL     1      -1.438  -5.446 138.282  0.00  0.00    +0.000 C 
ATOM     33  C   UNL     1       0.037  -5.629 139.376  0.00  0.00    +0.000 C 
ATOM     34  C   UNL     1       1.252  -6.661 140.474  0.00  0.00    +0.000 C 
ATOM     35  C   UNL     1       0.872  -4.409 139.491  0.00  0.00    +0.000 C 
ATOM     36  C   UNL     1      -1.291  -4.408 137.515  0.00  0.00    +0.000 C 
ENDROOT
BRANCH  25  37
ATOM     37  C   UNL     1      -7.236   2.559 123.955  0.00  0.00    +0.000 C 
ATOM     38  C   UNL     1      -8.514   2.928 123.243  0.00  0.00    +0.000 C 
ATOM     39  C   UNL     1      -6.081   2.887 123.368  0.00  0.00    +0.000 C 
BRANCH  39  40
ATOM     40  C   UNL     1      -6.016   3.620 122.062  0.00  0.00    +0.000 C 
ATOM     41  C   UNL     1      -4.958   4.706 122.125  0.00  0.00    +0.000 C 
ATOM     42  C   UNL     1      -5.677   2.680 120.937  0.00  0.00    +0.000 C 
ENDBRANCH  39  40
ENDBRANCH  25  37
BRANCH  22  43
ATOM     43  O   UNL     1      -5.245   1.119 129.393  0.00  0.00    +0.000 OA
ATOM     44  C   UNL     1      -5.905   2.063 130.222  0.00  0.00    +0.000 C 
ENDBRANCH  22  43
BRANCH  35  45
ATOM     45  O   UNL     1       2.454  -4.442 139.496  0.00  0.00    +0.000 OA
ATOM     46  H   UNL     1       2.710  -3.948 140.296  0.00  0.00    +0.000 HD
ENDBRANCH  35  45
BRANCH  36  47
ATOM     47  O   UNL     1      -2.773  -5.431 137.423  0.00  0.00    +0.000 OA
ATOM     48  H   UNL     1      -3.393  -4.754 136.532  0.00  0.00    +0.000 HD
ENDBRANCH  36  47
TORSDOF 5
ENDMDL
MODEL 7
REMARK VINA RESULT:      -8.3      3.382      5.291
REMARK  Name = Moxidectin
REMARK  13 active torsions:
REMARK  status: ('A' for Active; 'I' for Inactive)
REMARK    1  A    between atoms: C_9  and  C_10
REMARK    2  A    between atoms: C_12  and  C_13
REMARK    3  A    between atoms: N_25  and  O_26
REMARK    4  A    between atoms: O_26  and  C_27
REMARK    5  A    between atoms: C_28  and  C_29
REMARK    6  A    between atoms: C_30  and  C_32
REMARK    7  A    between atoms: C_32  and  C_33
REMARK    8  A    between atoms: C_34  and  C_35
REMARK    9  A    between atoms: C_35  and  C_36
REMARK   10  A    between atoms: C_35  and  C_37
REMARK   11  A    between atoms: C_45  and  C_46
REMARK   12  A    between atoms: C_47  and  O_48
REMARK   13  A    between atoms: C_49  and  O_50
REMARK                            x       y       z     vdW  Elec       q    Type
REMARK                         _______ _______ _______ _____ _____    ______ ____
ROOT
ATOM      1  C   UNL     1      -6.298   6.561 141.194  0.00  0.00    +0.000 C 
ATOM      2  O   UNL     1      -7.132   5.498 140.815  0.00  0.00    +0.000 OA
ATOM      3  C   UNL     1      -6.960   5.356 139.473  0.00  0.00    +0.000 C 
ATOM      4  C   UNL     1      -6.124   6.314 138.962  0.00  0.00    +0.000 C 
ATOM      5  C   UNL     1      -5.893   6.354 137.720  0.00  0.00    +0.000 C 
ATOM      6  C   UNL     1      -6.129   5.678 136.624  0.00  0.00    +0.000 C 
ATOM      7  C   UNL     1      -5.815   5.919 135.377  0.00  0.00    +0.000 C 
ATOM      8  C   UNL     1      -6.106   5.071 134.284  0.00  0.00    +0.000 C 
ATOM      9  C   UNL     1      -5.605   3.686 134.599  0.00  0.00    +0.000 C 
ATOM     10  C   UNL     1      -5.822   5.597 132.929  0.00  0.00    +0.000 C 
ATOM     11  C   UNL     1      -5.962   4.700 131.808  0.00  0.00    +0.000 C 
ATOM     12  C   UNL     1      -6.838   3.566 132.061  0.00  0.00    +0.000 C 
ATOM     13  C   UNL     1      -5.562   5.023 130.580  0.00  0.00    +0.000 C 
ATOM     14  C   UNL     1      -5.955   4.232 129.445  0.00  0.00    +0.000 C 
ATOM     15  C   UNL     1      -5.244   4.520 128.211  0.00  0.00    +0.000 C 
ATOM     16  C   UNL     1      -3.700   4.490 129.108  0.00  0.00    +0.000 C 
ATOM     17  C   UNL     1      -3.579   4.463 131.347  0.00  0.00    +0.000 C 
ATOM     18  C   UNL     1      -3.744   3.119 129.297  0.00  0.00    +0.000 C 
ATOM     19  C   UNL     1      -5.123   2.359 127.753  0.00  0.00    +0.000 C 
ATOM     20  C   UNL     1      -5.909   1.645 128.691  0.00  0.00    +0.000 C 
ATOM     21  C   UNL     1      -5.624   0.329 129.152  0.00  0.00    +0.000 C 
ATOM     22  N   UNL     1      -5.904   0.102 130.404  0.00  0.00    +0.000 NA
ATOM     23  C   UNL     1      -5.969  -0.653 128.141  0.00  0.00    +0.000 C 
ATOM     24  C   UNL     1      -5.505  -1.985 128.621  0.00  0.00    +0.000 C 
ATOM     25  C   UNL     1      -5.439  -0.266 126.776  0.00  0.00    +0.000 C 
ATOM     26  O   UNL     1      -5.683   1.176 126.501  0.00  0.00    +0.000 OA
ATOM     27  O   UNL     1      -5.704   3.551 127.196  0.00  0.00    +0.000 OA
ATOM     28  O   UNL     1      -3.625   5.491 133.673  0.00  0.00    +0.000 OA
ATOM     29  C   UNL     1      -3.813   6.529 135.755  0.00  0.00    +0.000 C 
ATOM     30  O   UNL     1      -4.415   7.960 136.046  0.00  0.00    +0.000 OA
ATOM     31  C   UNL     1      -4.243   7.372 138.212  0.00  0.00    +0.000 C 
ATOM     32  C   UNL     1      -5.207   8.359 140.225  0.00  0.00    +0.000 C 
ATOM     33  C   UNL     1      -5.868   8.500 141.942  0.00  0.00    +0.000 C 
ATOM     34  C   UNL     1      -6.538   9.503 143.456  0.00  0.00    +0.000 C 
ATOM     35  C   UNL     1      -6.164   7.202 142.594  0.00  0.00    +0.000 C 
ATOM     36  C   UNL     1      -5.461   7.177 139.750  0.00  0.00    +0.000 C 
ENDROOT
BRANCH  25  37
ATOM     37  C   UNL     1      -6.008  -1.256 125.738  0.00  0.00    +0.000 C 
ATOM     38  C   UNL     1      -7.472  -1.622 125.762  0.00  0.00    +0.000 C 
ATOM     39  C   UNL     1      -5.243  -1.815 124.796  0.00  0.00    +0.000 C 
BRANCH  39  40
ATOM     40  C   UNL     1      -5.787  -2.757 123.764  0.00  0.00    +0.000 C 
ATOM     41  C   UNL     1      -5.989  -2.030 122.448  0.00  0.00    +0.000 C 
ATOM     42  C   UNL     1      -4.844  -3.909 123.541  0.00  0.00    +0.000 C 
ENDBRANCH  39  40
ENDBRANCH  25  37
BRANCH  22  43
ATOM     43  O   UNL     1      -5.118   0.891 131.234  0.00  0.00    +0.000 OA
ATOM     44  C   UNL     1      -4.043   0.183 131.829  0.00  0.00    +0.000 C 
ENDBRANCH  22  43
BRANCH  35  45
ATOM     45  O   UNL     1      -7.449   6.955 143.485  0.00  0.00    +0.000 OA
ATOM     46  H   UNL     1      -7.307   6.080 143.889  0.00  0.00    +0.000 HD
ENDBRANCH  35  45
BRANCH  36  47
ATOM     47  O   UNL     1      -4.577   8.405 138.768  0.00  0.00    +0.000 OA
ATOM     48  H   UNL     1      -5.264   9.427 139.116  0.00  0.00    +0.000 HD
ENDBRANCH  36  47
TORSDOF 5
ENDMDL
MODEL 8
REMARK VINA RESULT:      -8.3      3.330     13.324
REMARK  Name = Moxidectin
REMARK  13 active torsions:
REMARK  status: ('A' for Active; 'I' for Inactive)
REMARK    1  A    between atoms: C_9  and  C_10
REMARK    2  A    between atoms: C_12  and  C_13
REMARK    3  A    between atoms: N_25  and  O_26
REMARK    4  A    between atoms: O_26  and  C_27
REMARK    5  A    between atoms: C_28  and  C_29
REMARK    6  A    between atoms: C_30  and  C_32
REMARK    7  A    between atoms: C_32  and  C_33
REMARK    8  A    between atoms: C_34  and  C_35
REMARK    9  A    between atoms: C_35  and  C_36
REMARK   10  A    between atoms: C_35  and  C_37
REMARK   11  A    between atoms: C_45  and  C_46
REMARK   12  A    between atoms: C_47  and  O_48
REMARK   13  A    between atoms: C_49  and  O_50
REMARK                            x       y       z     vdW  Elec       q    Type
REMARK                         _______ _______ _______ _____ _____    ______ ____
ROOT
ATOM      1  C   UNL     1      -6.793  -0.438 126.376  0.00  0.00    +0.000 C 
ATOM      2  O   UNL     1      -6.434  -0.979 127.621  0.00  0.00    +0.000 OA
ATOM      3  C   UNL     1      -5.759   0.007 128.270  0.00  0.00    +0.000 C 
ATOM      4  C   UNL     1      -5.600   1.119 127.483  0.00  0.00    +0.000 C 
ATOM      5  C   UNL     1      -4.952   2.113 127.917  0.00  0.00    +0.000 C 
ATOM      6  C   UNL     1      -4.379   2.549 129.010  0.00  0.00    +0.000 C 
ATOM      7  C   UNL     1      -3.702   3.642 129.252  0.00  0.00    +0.000 C 
ATOM      8  C   UNL     1      -3.164   4.005 130.508  0.00  0.00    +0.000 C 
ATOM      9  C   UNL     1      -4.256   3.932 131.543  0.00  0.00    +0.000 C 
ATOM     10  C   UNL     1      -2.282   5.195 130.544  0.00  0.00    +0.000 C 
ATOM     11  C   UNL     1      -1.847   5.681 131.831  0.00  0.00    +0.000 C 
ATOM     12  C   UNL     1      -1.888   4.681 132.887  0.00  0.00    +0.000 C 
ATOM     13  C   UNL     1      -1.205   6.837 131.978  0.00  0.00    +0.000 C 
ATOM     14  C   UNL     1      -0.550   7.165 133.216  0.00  0.00    +0.000 C 
ATOM     15  C   UNL     1      -0.124   8.548 133.347  0.00  0.00    +0.000 C 
ATOM     16  C   UNL     1      -1.722   9.083 132.758  0.00  0.00    +0.000 C 
ATOM     17  C   UNL     1      -3.227   7.691 131.848  0.00  0.00    +0.000 C 
ATOM     18  C   UNL     1      -2.369   8.696 133.920  0.00  0.00    +0.000 C 
ATOM     19  C   UNL     1      -0.792   8.574 135.456  0.00  0.00    +0.000 C 
ATOM     20  C   UNL     1      -1.154   7.261 135.841  0.00  0.00    +0.000 C 
ATOM     21  C   UNL     1      -2.168   6.944 136.788  0.00  0.00    +0.000 C 
ATOM     22  N   UNL     1      -2.866   5.875 136.526  0.00  0.00    +0.000 NA
ATOM     23  C   UNL     1      -1.701   7.192 138.139  0.00  0.00    +0.000 C 
ATOM     24  C   UNL     1      -2.851   6.992 139.064  0.00  0.00    +0.000 C 
ATOM     25  C   UNL     1      -1.032   8.545 138.264  0.00  0.00    +0.000 C 
ATOM     26  O   UNL     1      -0.112   8.790 137.120  0.00  0.00    +0.000 OA
ATOM     27  O   UNL     1       0.428   8.717 134.707  0.00  0.00    +0.000 OA
ATOM     28  O   UNL     1      -4.247   6.298 129.980  0.00  0.00    +0.000 OA
ATOM     29  C   UNL     1      -5.016   4.963 128.227  0.00  0.00    +0.000 C 
ATOM     30  O   UNL     1      -4.220   4.571 126.921  0.00  0.00    +0.000 OA
ATOM     31  C   UNL     1      -5.940   3.169 126.535  0.00  0.00    +0.000 C 
ATOM     32  C   UNL     1      -6.173   1.303 124.981  0.00  0.00    +0.000 C 
ATOM     33  C   UNL     1      -6.762  -0.290 124.260  0.00  0.00    +0.000 C 
ATOM     34  C   UNL     1      -6.868  -1.610 122.848  0.00  0.00    +0.000 C 
ATOM     35  C   UNL     1      -7.505  -1.156 125.207  0.00  0.00    +0.000 C 
ATOM     36  C   UNL     1      -6.185   1.230 126.278  0.00  0.00    +0.000 C 
ENDROOT
BRANCH  25  37
ATOM     37  C   UNL     1      -0.403   8.645 139.669  0.00  0.00    +0.000 C 
ATOM     38  C   UNL     1      -0.865   9.710 140.634  0.00  0.00    +0.000 C 
ATOM     39  C   UNL     1       0.557   7.810 140.079  0.00  0.00    +0.000 C 
BRANCH  39  40
ATOM     40  C   UNL     1       1.159   7.878 141.451  0.00  0.00    +0.000 C 
ATOM     41  C   UNL     1       0.714   6.686 142.276  0.00  0.00    +0.000 C 
ATOM     42  C   UNL     1       2.662   7.881 141.376  0.00  0.00    +0.000 C 
ENDBRANCH  39  40
ENDBRANCH  25  37
BRANCH  22  43
ATOM     43  O   UNL     1      -3.588   6.036 135.350  0.00  0.00    +0.000 OA
ATOM     44  C   UNL     1      -4.924   6.462 135.567  0.00  0.00    +0.000 C 
ENDBRANCH  22  43
BRANCH  35  45
ATOM     45  O   UNL     1      -7.319  -2.726 125.271  0.00  0.00    +0.000 OA
ATOM     46  H   UNL     1      -7.702  -3.056 124.439  0.00  0.00    +0.000 HD
ENDBRANCH  35  45
BRANCH  36  47
ATOM     47  O   UNL     1      -5.651   2.732 125.434  0.00  0.00    +0.000 OA
ATOM     48  H   UNL     1      -5.699   3.520 126.440  0.00  0.00    +0.000 HD
ENDBRANCH  36  47
TORSDOF 5
ENDMDL
MODEL 9
REMARK VINA RESULT:      -8.1      2.780      4.991
REMARK  Name = Moxidectin
REMARK  13 active torsions:
REMARK  status: ('A' for Active; 'I' for Inactive)
REMARK    1  A    between atoms: C_9  and  C_10
REMARK    2  A    between atoms: C_12  and  C_13
REMARK    3  A    between atoms: N_25  and  O_26
REMARK    4  A    between atoms: O_26  and  C_27
REMARK    5  A    between atoms: C_28  and  C_29
REMARK    6  A    between atoms: C_30  and  C_32
REMARK    7  A    between atoms: C_32  and  C_33
REMARK    8  A    between atoms: C_34  and  C_35
REMARK    9  A    between atoms: C_35  and  C_36
REMARK   10  A    between atoms: C_35  and  C_37
REMARK   11  A    between atoms: C_45  and  C_46
REMARK   12  A    between atoms: C_47  and  O_48
REMARK   13  A    between atoms: C_49  and  O_50
REMARK                            x       y       z     vdW  Elec       q    Type
REMARK                         _______ _______ _______ _____ _____    ______ ____
ROOT
ATOM      1  C   UNL     1      -0.912   9.927 140.373  0.00  0.00    +0.000 C 
ATOM      2  O   UNL     1      -1.987   9.023 140.369  0.00  0.00    +0.000 OA
ATOM      3  C   UNL     1      -2.218   8.734 139.060  0.00  0.00    +0.000 C 
ATOM      4  C   UNL     1      -1.406   9.458 138.227  0.00  0.00    +0.000 C 
ATOM      5  C   UNL     1      -1.523   9.344 136.973  0.00  0.00    +0.000 C 
ATOM      6  C   UNL     1      -2.163   8.637 136.077  0.00  0.00    +0.000 C 
ATOM      7  C   UNL     1      -2.169   8.702 134.770  0.00  0.00    +0.000 C 
ATOM      8  C   UNL     1      -2.891   7.838 133.914  0.00  0.00    +0.000 C 
ATOM      9  C   UNL     1      -2.564   6.413 134.278  0.00  0.00    +0.000 C 
ATOM     10  C   UNL     1      -2.907   8.178 132.473  0.00  0.00    +0.000 C 
ATOM     11  C   UNL     1      -3.500   7.233 131.558  0.00  0.00    +0.000 C 
ATOM     12  C   UNL     1      -4.452   6.324 132.179  0.00  0.00    +0.000 C 
ATOM     13  C   UNL     1      -3.407   7.362 130.237  0.00  0.00    +0.000 C 
ATOM     14  C   UNL     1      -4.226   6.571 129.358  0.00  0.00    +0.000 C 
ATOM     15  C   UNL     1      -3.845   6.603 127.956  0.00  0.00    +0.000 C 
ATOM     16  C   UNL     1      -2.141   6.343 128.426  0.00  0.00    +0.000 C 
ATOM     17  C   UNL     1      -1.414   6.485 130.542  0.00  0.00    +0.000 C 
ATOM     18  C   UNL     1      -2.363   5.030 128.805  0.00  0.00    +0.000 C 
ATOM     19  C   UNL     1      -4.223   4.431 127.783  0.00  0.00    +0.000 C 
ATOM     20  C   UNL     1      -4.828   3.972 128.978  0.00  0.00    +0.000 C 
ATOM     21  C   UNL     1      -4.654   2.670 129.527  0.00  0.00    +0.000 C 
ATOM     22  N   UNL     1      -4.612   2.612 130.828  0.00  0.00    +0.000 NA
ATOM     23  C   UNL     1      -5.426   1.693 128.782  0.00  0.00    +0.000 C 
ATOM     24  C   UNL     1      -5.081   0.343 129.306  0.00  0.00    +0.000 C 
ATOM     25  C   UNL     1      -5.236   1.848 127.288  0.00  0.00    +0.000 C 
ATOM     26  O   UNL     1      -5.299   3.280 126.889  0.00  0.00    +0.000 OA
ATOM     27  O   UNL     1      -4.725   5.662 127.234  0.00  0.00    +0.000 OA
ATOM     28  O   UNL     1      -0.640   7.699 132.639  0.00  0.00    +0.000 OA
ATOM     29  C   UNL     1      -0.068   8.929 134.539  0.00  0.00    +0.000 C 
ATOM     30  O   UNL     1      -0.315  10.471 134.774  0.00  0.00    +0.000 OA
ATOM     31  C   UNL     1       0.346  10.050 136.885  0.00  0.00    +0.000 C 
ATOM     32  C   UNL     1       0.157  11.380 138.922  0.00  0.00    +0.000 C 
ATOM     33  C   UNL     1       0.029  11.797 140.715  0.00  0.00    +0.000 C 
ATOM     34  C   UNL     1      -0.016  13.042 142.197  0.00  0.00    +0.000 C 
ATOM     35  C   UNL     1      -0.291  10.646 141.592  0.00  0.00    +0.000 C 
ATOM     36  C   UNL     1      -0.414  10.236 138.694  0.00  0.00    +0.000 C 
ENDROOT
BRANCH  25  37
ATOM     37  C   UNL     1      -6.229   0.906 126.575  0.00  0.00    +0.000 C 
ATOM     38  C   UNL     1      -7.706   0.994 126.871  0.00  0.00    +0.000 C 
ATOM     39  C   UNL     1      -5.828  -0.006 125.684  0.00  0.00    +0.000 C 
BRANCH  39  40
ATOM     40  C   UNL     1      -6.783  -0.910 124.963  0.00  0.00    +0.000 C 
ATOM     41  C   UNL     1      -6.884  -0.506 123.504  0.00  0.00    +0.000 C 
ATOM     42  C   UNL     1      -6.326  -2.341 125.039  0.00  0.00    +0.000 C 
ENDBRANCH  39  40
ENDBRANCH  25  37
BRANCH  22  43
ATOM     43  O   UNL     1      -3.506   3.298 131.315  0.00  0.00    +0.000 OA
ATOM     44  C   UNL     1      -3.170   2.946 132.648  0.00  0.00    +0.000 C 
ENDBRANCH  22  43
BRANCH  35  45
ATOM     45  O   UNL     1      -1.302  10.739 142.806  0.00  0.00    +0.000 OA
ATOM     46  H   UNL     1      -2.165  10.930 142.396  0.00  0.00    +0.000 HD
ENDBRANCH  35  45
BRANCH  36  47
ATOM     47  O   UNL     1       0.358  11.173 137.361  0.00  0.00    +0.000 OA
ATOM     48  H   UNL     1      -0.469  10.866 136.435  0.00  0.00    +0.000 HD
ENDBRANCH  36  47
TORSDOF 5
ENDMDL
