MODEL 1
REMARK VINA RESULT:      -7.8      0.000      0.000
REMARK  Name = Moxifloxacin
REMARK  6 active torsions:
REMARK  status: ('A' for Active; 'I' for Inactive)
REMARK    1  A    between atoms: N_4  and  C_12
REMARK    2  A    between atoms: C_19  and  C_29
REMARK    3  A    between atoms: N_21  and  C_22
REMARK    4  A    between atoms: C_26  and  O_27
REMARK    5  A    between atoms: O_27  and  C_28
REMARK    6  A    between atoms: C_29  and  O_30
REMARK                            x       y       z     vdW  Elec       q    Type
REMARK                         _______ _______ _______ _____ _____    ______ ____
ROOT
ATOM      1  C   UNL     1      -9.750   4.967 131.152  0.00  0.00    +0.000 A 
ATOM      2  C   UNL     1     -10.174   3.626 131.057  0.00  0.00    +0.000 A 
ATOM      3  F   UNL     1     -11.274   3.321 130.348  0.00  0.00    +0.000 F 
ATOM      4  C   UNL     1      -9.475   2.573 131.631  0.00  0.00    +0.000 A 
ATOM      5  C   UNL     1      -8.313   2.829 132.360  0.00  0.00    +0.000 A 
ATOM      6  C   UNL     1      -7.612   1.669 132.973  0.00  0.00    +0.000 A 
ATOM      7  O   UNL     1      -8.074   0.548 132.801  0.00  0.00    +0.000 OA
ATOM      8  C   UNL     1      -6.379   1.912 133.767  0.00  0.00    +0.000 A 
ATOM      9  C   UNL     1      -6.012   3.197 133.859  0.00  0.00    +0.000 A 
ATOM     10  N   UNL     1      -6.638   4.314 133.322  0.00  0.00    +0.000 N 
ATOM     11  C   UNL     1      -7.824   4.142 132.513  0.00  0.00    +0.000 A 
ATOM     12  C   UNL     1      -8.549   5.214 131.879  0.00  0.00    +0.000 A 
ENDROOT
BRANCH   1  15
ATOM     13  C   UNL     1     -12.095   7.646 130.072  0.00  0.00    +0.000 C 
ATOM     14  C   UNL     1     -11.673   6.592 131.142  0.00  0.00    +0.000 C 
ATOM     15  N   UNL     1     -10.491   5.953 130.545  0.00  0.00    +0.000 N 
ATOM     16  C   UNL     1     -10.264   6.429 129.193  0.00  0.00    +0.000 C 
ATOM     17  C   UNL     1     -10.791   7.894 129.308  0.00  0.00    +0.000 C 
ATOM     18  N   UNL     1     -10.912   8.652 128.073  0.00  0.00    +0.000 NA
ATOM     19  C   UNL     1     -11.774   7.960 127.130  0.00  0.00    +0.000 C 
ATOM     20  C   UNL     1     -13.144   7.622 127.721  0.00  0.00    +0.000 C 
ATOM     21  C   UNL     1     -13.138   7.035 129.134  0.00  0.00    +0.000 C 
ATOM     22  H   UNL     1      -9.983   8.759 127.662  0.00  0.00    +0.000 HD
ENDBRANCH   1  15
BRANCH  10  23
ATOM     23  C   UNL     1      -6.032   5.648 133.567  0.00  0.00    +0.000 C 
ATOM     24  C   UNL     1      -4.935   6.000 134.527  0.00  0.00    +0.000 C 
ATOM     25  C   UNL     1      -4.640   5.933 133.055  0.00  0.00    +0.000 C 
ENDBRANCH  10  23
BRANCH  12  26
ATOM     26  O   UNL     1      -7.970   6.447 132.042  0.00  0.00    +0.000 OA
ATOM     27  C   UNL     1      -7.349   7.166 131.008  0.00  0.00    +0.000 C 
ENDBRANCH  12  26
BRANCH   8  28
ATOM     28  C   UNL     1      -5.642   0.779 134.399  0.00  0.00    +0.000 C 
ATOM     29  O   UNL     1      -4.434   0.731 134.498  0.00  0.00    +0.000 OA
BRANCH  28  30
ATOM     30  O   UNL     1      -6.387  -0.247 134.880  0.00  0.00    +0.000 OA
ATOM     31  H   UNL     1      -7.351  -0.180 134.920  0.00  0.00    +0.000 HD
ENDBRANCH  28  30
ENDBRANCH   8  28
TORSDOF 5
ENDMDL
MODEL 2
REMARK VINA RESULT:      -7.5      6.662     10.315
REMARK  Name = Moxifloxacin
REMARK  6 active torsions:
REMARK  status: ('A' for Active; 'I' for Inactive)
REMARK    1  A    between atoms: N_4  and  C_12
REMARK    2  A    between atoms: C_19  and  C_29
REMARK    3  A    between atoms: N_21  and  C_22
REMARK    4  A    between atoms: C_26  and  O_27
REMARK    5  A    between atoms: O_27  and  C_28
REMARK    6  A    between atoms: C_29  and  O_30
REMARK                            x       y       z     vdW  Elec       q    Type
REMARK                         _______ _______ _______ _____ _____    ______ ____
ROOT
ATOM      1  C   UNL     1      -7.523  -0.410 129.015  0.00  0.00    +0.000 A 
ATOM      2  C   UNL     1      -7.791   0.968 128.898  0.00  0.00    +0.000 A 
ATOM      3  F   UNL     1      -7.579   1.783 129.946  0.00  0.00    +0.000 F 
ATOM      4  C   UNL     1      -8.230   1.551 127.718  0.00  0.00    +0.000 A 
ATOM      5  C   UNL     1      -8.445   0.757 126.591  0.00  0.00    +0.000 A 
ATOM      6  C   UNL     1      -8.936   1.426 125.356  0.00  0.00    +0.000 A 
ATOM      7  O   UNL     1      -9.114   2.638 125.378  0.00  0.00    +0.000 OA
ATOM      8  C   UNL     1      -9.188   0.603 124.144  0.00  0.00    +0.000 A 
ATOM      9  C   UNL     1      -8.944  -0.705 124.291  0.00  0.00    +0.000 A 
ATOM     10  N   UNL     1      -8.504  -1.380 125.422  0.00  0.00    +0.000 N 
ATOM     11  C   UNL     1      -8.211  -0.632 126.625  0.00  0.00    +0.000 A 
ATOM     12  C   UNL     1      -7.724  -1.208 127.852  0.00  0.00    +0.000 A 
ENDROOT
BRANCH   1  15
ATOM     13  C   UNL     1      -5.730  -1.776 131.976  0.00  0.00    +0.000 C 
ATOM     14  C   UNL     1      -5.699  -1.347 130.477  0.00  0.00    +0.000 C 
ATOM     15  N   UNL     1      -7.079  -0.911 130.217  0.00  0.00    +0.000 N 
ATOM     16  C   UNL     1      -7.934  -1.163 131.362  0.00  0.00    +0.000 C 
ATOM     17  C   UNL     1      -6.915  -0.980 132.531  0.00  0.00    +0.000 C 
ATOM     18  N   UNL     1      -7.364  -1.353 133.863  0.00  0.00    +0.000 NA
ATOM     19  C   UNL     1      -7.798  -2.739 133.887  0.00  0.00    +0.000 C 
ATOM     20  C   UNL     1      -6.730  -3.701 133.361  0.00  0.00    +0.000 C 
ATOM     21  C   UNL     1      -6.019  -3.274 132.076  0.00  0.00    +0.000 C 
ATOM     22  H   UNL     1      -8.147  -0.752 134.125  0.00  0.00    +0.000 HD
ENDBRANCH   1  15
BRANCH  10  23
ATOM     23  C   UNL     1      -8.308  -2.850 125.334  0.00  0.00    +0.000 C 
ATOM     24  C   UNL     1      -8.644  -3.758 124.190  0.00  0.00    +0.000 C 
ATOM     25  C   UNL     1      -7.210  -3.399 124.456  0.00  0.00    +0.000 C 
ENDBRANCH  10  23
BRANCH  12  26
ATOM     26  O   UNL     1      -7.478  -2.556 127.772  0.00  0.00    +0.000 OA
ATOM     27  C   UNL     1      -8.154  -3.524 128.533  0.00  0.00    +0.000 C 
ENDBRANCH  12  26
BRANCH   8  28
ATOM     28  C   UNL     1      -9.678   1.232 122.883  0.00  0.00    +0.000 C 
ATOM     29  O   UNL     1     -10.469   0.707 122.129  0.00  0.00    +0.000 OA
BRANCH  28  30
ATOM     30  O   UNL     1      -9.194   2.464 122.582  0.00  0.00    +0.000 OA
ATOM     31  H   UNL     1      -8.474   2.568 121.945  0.00  0.00    +0.000 HD
ENDBRANCH  28  30
ENDBRANCH   8  28
TORSDOF 5
ENDMDL
MODEL 3
REMARK VINA RESULT:      -7.3      7.027      9.121
REMARK  Name = Moxifloxacin
REMARK  6 active torsions:
REMARK  status: ('A' for Active; 'I' for Inactive)
REMARK    1  A    between atoms: N_4  and  C_12
REMARK    2  A    between atoms: C_19  and  C_29
REMARK    3  A    between atoms: N_21  and  C_22
REMARK    4  A    between atoms: C_26  and  O_27
REMARK    5  A    between atoms: O_27  and  C_28
REMARK    6  A    between atoms: C_29  and  O_30
REMARK                            x       y       z     vdW  Elec       q    Type
REMARK                         _______ _______ _______ _____ _____    ______ ____
ROOT
ATOM      1  C   UNL     1      -4.768   3.228 127.006  0.00  0.00    +0.000 A 
ATOM      2  C   UNL     1      -4.888   2.019 127.722  0.00  0.00    +0.000 A 
ATOM      3  F   UNL     1      -4.385   1.925 128.964  0.00  0.00    +0.000 F 
ATOM      4  C   UNL     1      -5.554   0.910 127.218  0.00  0.00    +0.000 A 
ATOM      5  C   UNL     1      -6.116   0.959 125.943  0.00  0.00    +0.000 A 
ATOM      6  C   UNL     1      -6.800  -0.262 125.441  0.00  0.00    +0.000 A 
ATOM      7  O   UNL     1      -6.852  -1.246 126.169  0.00  0.00    +0.000 OA
ATOM      8  C   UNL     1      -7.396  -0.244 124.079  0.00  0.00    +0.000 A 
ATOM      9  C   UNL     1      -7.248   0.909 123.415  0.00  0.00    +0.000 A 
ATOM     10  N   UNL     1      -6.606   2.068 123.829  0.00  0.00    +0.000 N 
ATOM     11  C   UNL     1      -6.033   2.125 125.155  0.00  0.00    +0.000 A 
ATOM     12  C   UNL     1      -5.366   3.274 125.713  0.00  0.00    +0.000 A 
ENDROOT
BRANCH   1  15
ATOM     13  C   UNL     1      -2.427   5.797 128.333  0.00  0.00    +0.000 C 
ATOM     14  C   UNL     1      -2.640   4.423 127.625  0.00  0.00    +0.000 C 
ATOM     15  N   UNL     1      -4.104   4.287 127.578  0.00  0.00    +0.000 N 
ATOM     16  C   UNL     1      -4.755   5.367 128.297  0.00  0.00    +0.000 C 
ATOM     17  C   UNL     1      -3.742   6.530 128.054  0.00  0.00    +0.000 C 
ATOM     18  N   UNL     1      -3.956   7.759 128.800  0.00  0.00    +0.000 NA
ATOM     19  C   UNL     1      -3.969   7.495 130.229  0.00  0.00    +0.000 C 
ATOM     20  C   UNL     1      -2.714   6.757 130.703  0.00  0.00    +0.000 C 
ATOM     21  C   UNL     1      -2.262   5.580 129.837  0.00  0.00    +0.000 C 
ATOM     22  H   UNL     1      -4.856   8.158 128.525  0.00  0.00    +0.000 HD
ENDBRANCH   1  15
BRANCH  10  23
ATOM     23  C   UNL     1      -6.574   3.227 122.900  0.00  0.00    +0.000 C 
ATOM     24  C   UNL     1      -6.214   3.233 121.445  0.00  0.00    +0.000 C 
ATOM     25  C   UNL     1      -7.653   3.365 121.853  0.00  0.00    +0.000 C 
ENDBRANCH  10  23
BRANCH  12  26
ATOM     26  O   UNL     1      -5.380   4.375 124.894  0.00  0.00    +0.000 OA
ATOM     27  C   UNL     1      -6.213   5.489 125.089  0.00  0.00    +0.000 C 
ENDBRANCH  12  26
BRANCH   8  28
ATOM     28  C   UNL     1      -8.094  -1.446 123.535  0.00  0.00    +0.000 C 
ATOM     29  O   UNL     1      -7.740  -2.039 122.538  0.00  0.00    +0.000 OA
BRANCH  28  30
ATOM     30  O   UNL     1      -9.186  -1.881 124.212  0.00  0.00    +0.000 OA
ATOM     31  H   UNL     1     -10.065  -1.836 123.810  0.00  0.00    +0.000 HD
ENDBRANCH  28  30
ENDBRANCH   8  28
TORSDOF 5
ENDMDL
MODEL 4
REMARK VINA RESULT:      -7.2      5.778      7.809
REMARK  Name = Moxifloxacin
REMARK  6 active torsions:
REMARK  status: ('A' for Active; 'I' for Inactive)
REMARK    1  A    between atoms: N_4  and  C_12
REMARK    2  A    between atoms: C_19  and  C_29
REMARK    3  A    between atoms: N_21  and  C_22
REMARK    4  A    between atoms: C_26  and  O_27
REMARK    5  A    between atoms: O_27  and  C_28
REMARK    6  A    between atoms: C_29  and  O_30
REMARK                            x       y       z     vdW  Elec       q    Type
REMARK                         _______ _______ _______ _____ _____    ______ ____
ROOT
ATOM      1  C   UNL     1      -7.879  -0.009 127.890  0.00  0.00    +0.000 A 
ATOM      2  C   UNL     1      -8.431   1.271 127.681  0.00  0.00    +0.000 A 
ATOM      3  F   UNL     1      -8.745   1.669 126.436  0.00  0.00    +0.000 F 
ATOM      4  C   UNL     1      -8.716   2.146 128.720  0.00  0.00    +0.000 A 
ATOM      5  C   UNL     1      -8.432   1.776 130.034  0.00  0.00    +0.000 A 
ATOM      6  C   UNL     1      -8.737   2.757 131.111  0.00  0.00    +0.000 A 
ATOM      7  O   UNL     1      -9.234   3.832 130.799  0.00  0.00    +0.000 OA
ATOM      8  C   UNL     1      -8.432   2.396 132.520  0.00  0.00    +0.000 A 
ATOM      9  C   UNL     1      -7.889   1.183 132.686  0.00  0.00    +0.000 A 
ATOM     10  N   UNL     1      -7.569   0.240 131.718  0.00  0.00    +0.000 N 
ATOM     11  C   UNL     1      -7.870   0.518 130.331  0.00  0.00    +0.000 A 
ATOM     12  C   UNL     1      -7.614  -0.385 129.238  0.00  0.00    +0.000 A 
ENDROOT
BRANCH   1  15
ATOM     13  C   UNL     1      -6.598  -2.011 125.027  0.00  0.00    +0.000 C 
ATOM     14  C   UNL     1      -6.333  -0.950 126.139  0.00  0.00    +0.000 C 
ATOM     15  N   UNL     1      -7.636  -0.823 126.808  0.00  0.00    +0.000 N 
ATOM     16  C   UNL     1      -8.656  -1.594 126.122  0.00  0.00    +0.000 C 
ATOM     17  C   UNL     1      -7.803  -2.782 125.574  0.00  0.00    +0.000 C 
ATOM     18  N   UNL     1      -8.454  -3.689 124.643  0.00  0.00    +0.000 NA
ATOM     19  C   UNL     1      -8.964  -2.963 123.493  0.00  0.00    +0.000 C 
ATOM     20  C   UNL     1      -7.888  -2.122 122.802  0.00  0.00    +0.000 C 
ATOM     21  C   UNL     1      -6.981  -1.306 123.725  0.00  0.00    +0.000 C 
ATOM     22  H   UNL     1      -9.231  -4.148 125.122  0.00  0.00    +0.000 HD
ENDBRANCH   1  15
BRANCH  10  23
ATOM     23  C   UNL     1      -6.967  -1.045 132.157  0.00  0.00    +0.000 C 
ATOM     24  C   UNL     1      -6.470  -1.411 133.524  0.00  0.00    +0.000 C 
ATOM     25  C   UNL     1      -7.771  -1.978 133.030  0.00  0.00    +0.000 C 
ENDBRANCH  10  23
BRANCH  12  26
ATOM     26  O   UNL     1      -7.115  -1.602 129.630  0.00  0.00    +0.000 OA
ATOM     27  C   UNL     1      -7.776  -2.825 129.427  0.00  0.00    +0.000 C 
ENDBRANCH  12  26
BRANCH   8  28
ATOM     28  C   UNL     1      -8.723   3.347 133.632  0.00  0.00    +0.000 C 
ATOM     29  O   UNL     1      -7.886   3.755 134.408  0.00  0.00    +0.000 OA
BRANCH  28  30
ATOM     30  O   UNL     1     -10.007   3.765 133.763  0.00  0.00    +0.000 OA
ATOM     31  H   UNL     1     -10.686   3.474 133.140  0.00  0.00    +0.000 HD
ENDBRANCH  28  30
ENDBRANCH   8  28
TORSDOF 5
ENDMDL
MODEL 5
REMARK VINA RESULT:      -7.2      2.306      3.596
REMARK  Name = Moxifloxacin
REMARK  6 active torsions:
REMARK  status: ('A' for Active; 'I' for Inactive)
REMARK    1  A    between atoms: N_4  and  C_12
REMARK    2  A    between atoms: C_19  and  C_29
REMARK    3  A    between atoms: N_21  and  C_22
REMARK    4  A    between atoms: C_26  and  O_27
REMARK    5  A    between atoms: O_27  and  C_28
REMARK    6  A    between atoms: C_29  and  O_30
REMARK                            x       y       z     vdW  Elec       q    Type
REMARK                         _______ _______ _______ _____ _____    ______ ____
ROOT
ATOM      1  C   UNL     1      -8.484   5.570 130.498  0.00  0.00    +0.000 A 
ATOM      2  C   UNL     1      -7.356   6.256 130.993  0.00  0.00    +0.000 A 
ATOM      3  F   UNL     1      -7.327   7.599 130.973  0.00  0.00    +0.000 F 
ATOM      4  C   UNL     1      -6.267   5.604 131.555  0.00  0.00    +0.000 A 
ATOM      5  C   UNL     1      -6.252   4.211 131.623  0.00  0.00    +0.000 A 
ATOM      6  C   UNL     1      -5.053   3.559 132.215  0.00  0.00    +0.000 A 
ATOM      7  O   UNL     1      -4.144   4.270 132.628  0.00  0.00    +0.000 OA
ATOM      8  C   UNL     1      -5.003   2.075 132.288  0.00  0.00    +0.000 A 
ATOM      9  C   UNL     1      -6.079   1.451 131.791  0.00  0.00    +0.000 A 
ATOM     10  N   UNL     1      -7.211   2.009 131.214  0.00  0.00    +0.000 N 
ATOM     11  C   UNL     1      -7.335   3.448 131.142  0.00  0.00    +0.000 A 
ATOM     12  C   UNL     1      -8.468   4.148 130.593  0.00  0.00    +0.000 A 
ENDROOT
BRANCH   1  15
ATOM     13  C   UNL     1     -11.468   7.639 129.686  0.00  0.00    +0.000 C 
ATOM     14  C   UNL     1     -10.576   6.946 130.762  0.00  0.00    +0.000 C 
ATOM     15  N   UNL     1      -9.529   6.288 129.966  0.00  0.00    +0.000 N 
ATOM     16  C   UNL     1      -9.793   6.415 128.544  0.00  0.00    +0.000 C 
ATOM     17  C   UNL     1     -10.508   7.802 128.504  0.00  0.00    +0.000 C 
ATOM     18  N   UNL     1     -11.114   8.196 127.243  0.00  0.00    +0.000 NA
ATOM     19  C   UNL     1     -12.081   7.204 126.807  0.00  0.00    +0.000 C 
ATOM     20  C   UNL     1     -13.139   6.903 127.871  0.00  0.00    +0.000 C 
ATOM     21  C   UNL     1     -12.618   6.708 129.297  0.00  0.00    +0.000 C 
ATOM     22  H   UNL     1     -10.379   8.281 126.538  0.00  0.00    +0.000 HD
ENDBRANCH   1  15
BRANCH  10  23
ATOM     23  C   UNL     1      -8.279   1.096 130.730  0.00  0.00    +0.000 C 
ATOM     24  C   UNL     1      -8.270  -0.404 130.708  0.00  0.00    +0.000 C 
ATOM     25  C   UNL     1      -9.097   0.318 131.733  0.00  0.00    +0.000 C 
ENDBRANCH  10  23
BRANCH  12  26
ATOM     26  O   UNL     1      -9.491   3.324 130.198  0.00  0.00    +0.000 OA
ATOM     27  C   UNL     1     -10.814   3.439 130.655  0.00  0.00    +0.000 C 
ENDBRANCH  12  26
BRANCH   8  28
ATOM     28  C   UNL     1      -3.822   1.380 132.876  0.00  0.00    +0.000 C 
ATOM     29  O   UNL     1      -3.451   0.276 132.538  0.00  0.00    +0.000 OA
BRANCH  28  30
ATOM     30  O   UNL     1      -3.140   2.039 133.846  0.00  0.00    +0.000 OA
ATOM     31  H   UNL     1      -2.695   1.552 134.553  0.00  0.00    +0.000 HD
ENDBRANCH  28  30
ENDBRANCH   8  28
TORSDOF 5
ENDMDL
MODEL 6
REMARK VINA RESULT:      -7.2      6.786      8.734
REMARK  Name = Moxifloxacin
REMARK  6 active torsions:
REMARK  status: ('A' for Active; 'I' for Inactive)
REMARK    1  A    between atoms: N_4  and  C_12
REMARK    2  A    between atoms: C_19  and  C_29
REMARK    3  A    between atoms: N_21  and  C_22
REMARK    4  A    between atoms: C_26  and  O_27
REMARK    5  A    between atoms: O_27  and  C_28
REMARK    6  A    between atoms: C_29  and  O_30
REMARK                            x       y       z     vdW  Elec       q    Type
REMARK                         _______ _______ _______ _____ _____    ______ ____
ROOT
ATOM      1  C   UNL     1      -5.252   2.263 126.653  0.00  0.00    +0.000 A 
ATOM      2  C   UNL     1      -5.866   2.414 125.393  0.00  0.00    +0.000 A 
ATOM      3  F   UNL     1      -5.709   3.559 124.706  0.00  0.00    +0.000 F 
ATOM      4  C   UNL     1      -6.603   1.405 124.790  0.00  0.00    +0.000 A 
ATOM      5  C   UNL     1      -6.780   0.188 125.448  0.00  0.00    +0.000 A 
ATOM      6  C   UNL     1      -7.596  -0.854 124.769  0.00  0.00    +0.000 A 
ATOM      7  O   UNL     1      -8.061  -0.605 123.664  0.00  0.00    +0.000 OA
ATOM      8  C   UNL     1      -7.813  -2.157 125.453  0.00  0.00    +0.000 A 
ATOM      9  C   UNL     1      -7.236  -2.263 126.657  0.00  0.00    +0.000 A 
ATOM     10  N   UNL     1      -6.482  -1.318 127.340  0.00  0.00    +0.000 N 
ATOM     11  C   UNL     1      -6.208  -0.043 126.716  0.00  0.00    +0.000 A 
ATOM     12  C   UNL     1      -5.420   1.008 127.306  0.00  0.00    +0.000 A 
ENDROOT
BRANCH   1  15
ATOM     13  C   UNL     1      -2.764   4.729 127.908  0.00  0.00    +0.000 C 
ATOM     14  C   UNL     1      -3.061   3.325 127.298  0.00  0.00    +0.000 C 
ATOM     15  N   UNL     1      -4.527   3.307 127.179  0.00  0.00    +0.000 N 
ATOM     16  C   UNL     1      -5.116   4.492 127.774  0.00  0.00    +0.000 C 
ATOM     17  C   UNL     1      -3.995   5.543 127.499  0.00  0.00    +0.000 C 
ATOM     18  N   UNL     1      -4.138   6.843 128.136  0.00  0.00    +0.000 NA
ATOM     19  C   UNL     1      -4.244   6.698 129.577  0.00  0.00    +0.000 C 
ATOM     20  C   UNL     1      -3.084   5.900 130.178  0.00  0.00    +0.000 C 
ATOM     21  C   UNL     1      -2.694   4.622 129.432  0.00  0.00    +0.000 C 
ATOM     22  H   UNL     1      -4.985   7.291 127.780  0.00  0.00    +0.000 HD
ENDBRANCH   1  15
BRANCH  10  23
ATOM     23  C   UNL     1      -5.946  -1.678 128.678  0.00  0.00    +0.000 C 
ATOM     24  C   UNL     1      -6.133  -2.961 129.432  0.00  0.00    +0.000 C 
ATOM     25  C   UNL     1      -4.812  -2.670 128.778  0.00  0.00    +0.000 C 
ENDBRANCH  10  23
BRANCH  12  26
ATOM     26  O   UNL     1      -4.864   0.672 128.515  0.00  0.00    +0.000 OA
ATOM     27  C   UNL     1      -5.141   1.339 129.719  0.00  0.00    +0.000 C 
ENDBRANCH  12  26
BRANCH   8  28
ATOM     28  C   UNL     1      -8.622  -3.231 124.808  0.00  0.00    +0.000 C 
ATOM     29  O   UNL     1      -8.241  -4.374 124.673  0.00  0.00    +0.000 OA
BRANCH  28  30
ATOM     30  O   UNL     1      -9.851  -2.884 124.351  0.00  0.00    +0.000 OA
ATOM     31  H   UNL     1     -10.475  -3.561 124.052  0.00  0.00    +0.000 HD
ENDBRANCH  28  30
ENDBRANCH   8  28
TORSDOF 5
ENDMDL
MODEL 7
REMARK VINA RESULT:      -7.1      6.941     10.444
REMARK  Name = Moxifloxacin
REMARK  6 active torsions:
REMARK  status: ('A' for Active; 'I' for Inactive)
REMARK    1  A    between atoms: N_4  and  C_12
REMARK    2  A    between atoms: C_19  and  C_29
REMARK    3  A    between atoms: N_21  and  C_22
REMARK    4  A    between atoms: C_26  and  O_27
REMARK    5  A    between atoms: O_27  and  C_28
REMARK    6  A    between atoms: C_29  and  O_30
REMARK                            x       y       z     vdW  Elec       q    Type
REMARK                         _______ _______ _______ _____ _____    ______ ____
ROOT
ATOM      1  C   UNL     1      -6.785  -2.450 128.841  0.00  0.00    +0.000 A 
ATOM      2  C   UNL     1      -7.817  -3.227 128.276  0.00  0.00    +0.000 A 
ATOM      3  F   UNL     1      -8.206  -4.362 128.879  0.00  0.00    +0.000 F 
ATOM      4  C   UNL     1      -8.498  -2.850 127.127  0.00  0.00    +0.000 A 
ATOM      5  C   UNL     1      -8.151  -1.669 126.471  0.00  0.00    +0.000 A 
ATOM      6  C   UNL     1      -8.897  -1.320 125.232  0.00  0.00    +0.000 A 
ATOM      7  O   UNL     1      -9.787  -2.072 124.854  0.00  0.00    +0.000 OA
ATOM      8  C   UNL     1      -8.540  -0.074 124.504  0.00  0.00    +0.000 A 
ATOM      9  C   UNL     1      -7.542   0.632 125.052  0.00  0.00    +0.000 A 
ATOM     10  N   UNL     1      -6.804   0.343 126.192  0.00  0.00    +0.000 N 
ATOM     11  C   UNL     1      -7.124  -0.838 126.963  0.00  0.00    +0.000 A 
ATOM     12  C   UNL     1      -6.454  -1.234 128.175  0.00  0.00    +0.000 A 
ENDROOT
BRANCH   1  15
ATOM     13  C   UNL     1      -4.642  -3.854 131.540  0.00  0.00    +0.000 C 
ATOM     14  C   UNL     1      -4.920  -3.667 130.016  0.00  0.00    +0.000 C 
ATOM     15  N   UNL     1      -6.165  -2.885 129.988  0.00  0.00    +0.000 N 
ATOM     16  C   UNL     1      -6.707  -2.713 131.324  0.00  0.00    +0.000 C 
ATOM     17  C   UNL     1      -5.393  -2.675 132.167  0.00  0.00    +0.000 C 
ATOM     18  N   UNL     1      -5.536  -2.711 133.614  0.00  0.00    +0.000 NA
ATOM     19  C   UNL     1      -6.275  -3.891 134.027  0.00  0.00    +0.000 C 
ATOM     20  C   UNL     1      -5.666  -5.187 133.488  0.00  0.00    +0.000 C 
ATOM     21  C   UNL     1      -5.254  -5.172 132.015  0.00  0.00    +0.000 C 
ATOM     22  H   UNL     1      -6.042  -1.875 133.914  0.00  0.00    +0.000 HD
ENDBRANCH   1  15
BRANCH  10  23
ATOM     23  C   UNL     1      -5.737   1.292 126.600  0.00  0.00    +0.000 C 
ATOM     24  C   UNL     1      -5.190   2.453 125.826  0.00  0.00    +0.000 C 
ATOM     25  C   UNL     1      -6.110   2.703 126.987  0.00  0.00    +0.000 C 
ENDBRANCH  10  23
BRANCH  12  26
ATOM     26  O   UNL     1      -5.506  -0.338 128.602  0.00  0.00    +0.000 OA
ATOM     27  C   UNL     1      -5.579   0.363 129.817  0.00  0.00    +0.000 C 
ENDBRANCH  12  26
BRANCH   8  28
ATOM     28  C   UNL     1      -9.263   0.316 123.259  0.00  0.00    +0.000 C 
ATOM     29  O   UNL     1      -9.352   1.458 122.859  0.00  0.00    +0.000 OA
BRANCH  28  30
ATOM     30  O   UNL     1      -9.851  -0.681 122.551  0.00  0.00    +0.000 OA
ATOM     31  H   UNL     1     -10.326  -0.489 121.731  0.00  0.00    +0.000 HD
ENDBRANCH  28  30
ENDBRANCH   8  28
TORSDOF 5
ENDMDL
MODEL 8
REMARK VINA RESULT:      -7.0      5.379      6.784
REMARK  Name = Moxifloxacin
REMARK  6 active torsions:
REMARK  status: ('A' for Active; 'I' for Inactive)
REMARK    1  A    between atoms: N_4  and  C_12
REMARK    2  A    between atoms: C_19  and  C_29
REMARK    3  A    between atoms: N_21  and  C_22
REMARK    4  A    between atoms: C_26  and  O_27
REMARK    5  A    between atoms: O_27  and  C_28
REMARK    6  A    between atoms: C_29  and  O_30
REMARK                            x       y       z     vdW  Elec       q    Type
REMARK                         _______ _______ _______ _____ _____    ______ ____
ROOT
ATOM      1  C   UNL     1      -5.331   3.961 127.518  0.00  0.00    +0.000 A 
ATOM      2  C   UNL     1      -4.087   4.367 126.994  0.00  0.00    +0.000 A 
ATOM      3  F   UNL     1      -3.779   4.093 125.714  0.00  0.00    +0.000 F 
ATOM      4  C   UNL     1      -3.159   5.089 127.731  0.00  0.00    +0.000 A 
ATOM      5  C   UNL     1      -3.435   5.420 129.058  0.00  0.00    +0.000 A 
ATOM      6  C   UNL     1      -2.400   6.177 129.812  0.00  0.00    +0.000 A 
ATOM      7  O   UNL     1      -1.365   6.487 129.235  0.00  0.00    +0.000 OA
ATOM      8  C   UNL     1      -2.661   6.533 131.232  0.00  0.00    +0.000 A 
ATOM      9  C   UNL     1      -3.841   6.116 131.709  0.00  0.00    +0.000 A 
ATOM     10  N   UNL     1      -4.831   5.395 131.055  0.00  0.00    +0.000 N 
ATOM     11  C   UNL     1      -4.652   5.046 129.664  0.00  0.00    +0.000 A 
ATOM     12  C   UNL     1      -5.612   4.325 128.867  0.00  0.00    +0.000 A 
ENDROOT
BRANCH   1  15
ATOM     13  C   UNL     1      -7.494   1.536 125.707  0.00  0.00    +0.000 C 
ATOM     14  C   UNL     1      -6.382   1.799 126.769  0.00  0.00    +0.000 C 
ATOM     15  N   UNL     1      -6.202   3.258 126.720  0.00  0.00    +0.000 N 
ATOM     16  C   UNL     1      -6.992   3.849 125.655  0.00  0.00    +0.000 C 
ATOM     17  C   UNL     1      -8.218   2.883 125.633  0.00  0.00    +0.000 C 
ATOM     18  N   UNL     1      -9.162   3.039 124.537  0.00  0.00    +0.000 NA
ATOM     19  C   UNL     1      -8.487   2.904 123.258  0.00  0.00    +0.000 C 
ATOM     20  C   UNL     1      -7.698   1.597 123.142  0.00  0.00    +0.000 C 
ATOM     21  C   UNL     1      -6.850   1.218 124.357  0.00  0.00    +0.000 C 
ATOM     22  H   UNL     1      -9.584   3.967 124.598  0.00  0.00    +0.000 HD
ENDBRANCH   1  15
BRANCH  10  23
ATOM     23  C   UNL     1      -6.063   5.047 131.808  0.00  0.00    +0.000 C 
ATOM     24  C   UNL     1      -6.364   5.303 133.254  0.00  0.00    +0.000 C 
ATOM     25  C   UNL     1      -7.025   6.143 132.199  0.00  0.00    +0.000 C 
ENDBRANCH  10  23
BRANCH  12  26
ATOM     26  O   UNL     1      -6.783   4.049 129.527  0.00  0.00    +0.000 OA
ATOM     27  C   UNL     1      -8.047   4.488 129.100  0.00  0.00    +0.000 C 
ENDBRANCH  12  26
BRANCH   8  28
ATOM     28  C   UNL     1      -1.652   7.293 132.026  0.00  0.00    +0.000 C 
ATOM     29  O   UNL     1      -1.905   8.301 132.651  0.00  0.00    +0.000 OA
BRANCH  28  30
ATOM     30  O   UNL     1      -0.384   6.811 132.031  0.00  0.00    +0.000 OA
ATOM     31  H   UNL     1       0.360   7.379 131.788  0.00  0.00    +0.000 HD
ENDBRANCH  28  30
ENDBRANCH   8  28
TORSDOF 5
ENDMDL
MODEL 9
REMARK VINA RESULT:      -7.0      5.132      7.574
REMARK  Name = Moxifloxacin
REMARK  6 active torsions:
REMARK  status: ('A' for Active; 'I' for Inactive)
REMARK    1  A    between atoms: N_4  and  C_12
REMARK    2  A    between atoms: C_19  and  C_29
REMARK    3  A    between atoms: N_21  and  C_22
REMARK    4  A    between atoms: C_26  and  O_27
REMARK    5  A    between atoms: O_27  and  C_28
REMARK    6  A    between atoms: C_29  and  O_30
REMARK                            x       y       z     vdW  Elec       q    Type
REMARK                         _______ _______ _______ _____ _____    ______ ____
ROOT
ATOM      1  C   UNL     1      -6.925   3.935 129.964  0.00  0.00    +0.000 A 
ATOM      2  C   UNL     1      -8.116   4.261 129.285  0.00  0.00    +0.000 A 
ATOM      3  F   UNL     1      -9.237   4.513 129.983  0.00  0.00    +0.000 F 
ATOM      4  C   UNL     1      -8.185   4.384 127.904  0.00  0.00    +0.000 A 
ATOM      5  C   UNL     1      -7.046   4.156 127.131  0.00  0.00    +0.000 A 
ATOM      6  C   UNL     1      -7.177   4.280 125.654  0.00  0.00    +0.000 A 
ATOM      7  O   UNL     1      -8.267   4.588 125.186  0.00  0.00    +0.000 OA
ATOM      8  C   UNL     1      -5.984   4.029 124.803  0.00  0.00    +0.000 A 
ATOM      9  C   UNL     1      -4.872   3.700 125.475  0.00  0.00    +0.000 A 
ATOM     10  N   UNL     1      -4.703   3.555 126.845  0.00  0.00    +0.000 N 
ATOM     11  C   UNL     1      -5.816   3.816 127.729  0.00  0.00    +0.000 A 
ATOM     12  C   UNL     1      -5.763   3.727 129.166  0.00  0.00    +0.000 A 
ENDROOT
BRANCH   1  15
ATOM     13  C   UNL     1      -7.273   3.123 133.579  0.00  0.00    +0.000 C 
ATOM     14  C   UNL     1      -7.602   2.775 132.094  0.00  0.00    +0.000 C 
ATOM     15  N   UNL     1      -6.935   3.844 131.336  0.00  0.00    +0.000 N 
ATOM     16  C   UNL     1      -6.370   4.843 132.225  0.00  0.00    +0.000 C 
ATOM     17  C   UNL     1      -5.995   3.958 133.456  0.00  0.00    +0.000 C 
ATOM     18  N   UNL     1      -5.569   4.650 134.661  0.00  0.00    +0.000 NA
ATOM     19  C   UNL     1      -6.589   5.586 135.101  0.00  0.00    +0.000 C 
ATOM     20  C   UNL     1      -7.958   4.926 135.284  0.00  0.00    +0.000 C 
ATOM     21  C   UNL     1      -8.397   3.977 134.166  0.00  0.00    +0.000 C 
ATOM     22  H   UNL     1      -4.709   5.162 134.459  0.00  0.00    +0.000 HD
ENDBRANCH   1  15
BRANCH  10  23
ATOM     23  C   UNL     1      -3.358   3.178 127.352  0.00  0.00    +0.000 C 
ATOM     24  C   UNL     1      -2.084   3.042 126.575  0.00  0.00    +0.000 C 
ATOM     25  C   UNL     1      -2.286   4.235 127.464  0.00  0.00    +0.000 C 
ENDBRANCH  10  23
BRANCH  12  26
ATOM     26  O   UNL     1      -4.514   3.440 129.657  0.00  0.00    +0.000 OA
ATOM     27  C   UNL     1      -4.212   2.298 130.417  0.00  0.00    +0.000 C 
ENDBRANCH  12  26
BRANCH   8  28
ATOM     28  C   UNL     1      -6.068   4.144 123.318  0.00  0.00    +0.000 C 
ATOM     29  O   UNL     1      -5.196   4.626 122.628  0.00  0.00    +0.000 OA
BRANCH  28  30
ATOM     30  O   UNL     1      -7.197   3.677 122.728  0.00  0.00    +0.000 OA
ATOM     31  H   UNL     1      -7.226   2.784 122.357  0.00  0.00    +0.000 HD
ENDBRANCH  28  30
ENDBRANCH   8  28
TORSDOF 5
ENDMDL
