MODEL 1
REMARK VINA RESULT:      -6.1      0.000      0.000
REMARK  Name = Moxisylyte
REMARK  13 active torsions:
REMARK  status: ('A' for Active; 'I' for Inactive)
REMARK    1  A    between atoms: C_1  and  C_2
REMARK    2  A    between atoms: C_2  and  C_3
REMARK    3  A    between atoms: C_2  and  C_4
REMARK    4  A    between atoms: C_5  and  O_6
REMARK    5  A    between atoms: O_6  and  C_7
REMARK    6  A    between atoms: C_7  and  C_8
REMARK    7  A    between atoms: C_8  and  N_9
REMARK    8  A    between atoms: N_9  and  C_10
REMARK    9  A    between atoms: N_9  and  C_11
REMARK   10  A    between atoms: C_13  and  C_14
REMARK   11  A    between atoms: C_15  and  O_16
REMARK   12  A    between atoms: O_16  and  C_17
REMARK   13  A    between atoms: C_17  and  C_18
REMARK                            x       y       z     vdW  Elec       q    Type
REMARK                         _______ _______ _______ _____ _____    ______ ____
ROOT
ATOM      1  C   UNL     1      -7.871   6.210 131.848  0.00  0.00    +0.000 A 
ATOM      2  C   UNL     1      -8.774   5.820 132.838  0.00  0.00    +0.000 A 
ATOM      3  C   UNL     1     -10.166   6.004 132.593  0.00  0.00    +0.000 A 
ATOM      4  C   UNL     1     -10.672   6.608 131.406  0.00  0.00    +0.000 A 
ATOM      5  C   UNL     1     -12.145   6.743 131.164  0.00  0.00    +0.000 C 
ATOM      6  C   UNL     1      -9.748   7.021 130.463  0.00  0.00    +0.000 A 
ATOM      7  C   UNL     1      -8.429   6.764 130.713  0.00  0.00    +0.000 A 
ENDROOT
BRANCH   1   9
ATOM      8  C   UNL     1      -5.525   6.089 133.072  0.00  0.00    +0.000 C 
ATOM      9  C   UNL     1      -6.355   6.029 131.768  0.00  0.00    +0.000 C 
ATOM     10  C   UNL     1      -5.755   7.120 130.866  0.00  0.00    +0.000 C 
ENDBRANCH   1   9
BRANCH   2  11
ATOM     11  O   UNL     1      -8.467   5.207 134.035  0.00  0.00    +0.000 OA
BRANCH  11  12
ATOM     12  C   UNL     1      -8.790   3.826 134.103  0.00  0.00    +0.000 C 
BRANCH  12  13
ATOM     13  C   UNL     1      -7.715   2.872 133.649  0.00  0.00    +0.000 C 
BRANCH  13  14
ATOM     14  N   UNL     1      -8.199   2.051 132.505  0.00  0.00    +0.000 NA
ATOM     15  C   UNL     1      -9.646   2.155 132.295  0.00  0.00    +0.000 C 
ATOM     16  C   UNL     1      -7.477   2.465 131.311  0.00  0.00    +0.000 C 
ENDBRANCH  13  14
ENDBRANCH  12  13
ENDBRANCH  11  12
ENDBRANCH   2  11
BRANCH   6  17
ATOM     17  O   UNL     1     -10.091   7.638 129.220  0.00  0.00    +0.000 OA
BRANCH  17  18
ATOM     18  C   UNL     1     -10.540   7.234 127.932  0.00  0.00    +0.000 C 
ATOM     19  C   UNL     1     -11.891   7.660 127.390  0.00  0.00    +0.000 C 
ATOM     20  O   UNL     1      -9.824   6.542 127.230  0.00  0.00    +0.000 OA
ENDBRANCH  17  18
ENDBRANCH   6  17
TORSDOF 7
ENDMDL
MODEL 2
REMARK VINA RESULT:      -5.9      8.798     11.343
REMARK  Name = Moxisylyte
REMARK  13 active torsions:
REMARK  status: ('A' for Active; 'I' for Inactive)
REMARK    1  A    between atoms: C_1  and  C_2
REMARK    2  A    between atoms: C_2  and  C_3
REMARK    3  A    between atoms: C_2  and  C_4
REMARK    4  A    between atoms: C_5  and  O_6
REMARK    5  A    between atoms: O_6  and  C_7
REMARK    6  A    between atoms: C_7  and  C_8
REMARK    7  A    between atoms: C_8  and  N_9
REMARK    8  A    between atoms: N_9  and  C_10
REMARK    9  A    between atoms: N_9  and  C_11
REMARK   10  A    between atoms: C_13  and  C_14
REMARK   11  A    between atoms: C_15  and  O_16
REMARK   12  A    between atoms: O_16  and  C_17
REMARK   13  A    between atoms: C_17  and  C_18
REMARK                            x       y       z     vdW  Elec       q    Type
REMARK                         _______ _______ _______ _____ _____    ______ ____
ROOT
ATOM      1  C   UNL     1      -6.087  -2.740 125.019  0.00  0.00    +0.000 A 
ATOM      2  C   UNL     1      -7.413  -3.166 125.102  0.00  0.00    +0.000 A 
ATOM      3  C   UNL     1      -8.079  -3.061 126.358  0.00  0.00    +0.000 A 
ATOM      4  C   UNL     1      -7.439  -2.585 127.538  0.00  0.00    +0.000 A 
ATOM      5  C   UNL     1      -8.185  -2.447 128.832  0.00  0.00    +0.000 C 
ATOM      6  C   UNL     1      -6.111  -2.211 127.431  0.00  0.00    +0.000 A 
ATOM      7  C   UNL     1      -5.535  -2.266 126.193  0.00  0.00    +0.000 A 
ENDROOT
BRANCH   1   9
ATOM      8  C   UNL     1      -5.765  -2.164 122.454  0.00  0.00    +0.000 C 
ATOM      9  C   UNL     1      -5.165  -2.614 123.807  0.00  0.00    +0.000 C 
ATOM     10  C   UNL     1      -4.509  -3.973 123.517  0.00  0.00    +0.000 C 
ENDBRANCH   1   9
BRANCH   2  11
ATOM     11  O   UNL     1      -8.192  -3.635 124.065  0.00  0.00    +0.000 OA
BRANCH  11  12
ATOM     12  C   UNL     1      -9.345  -2.858 123.780  0.00  0.00    +0.000 C 
BRANCH  12  13
ATOM     13  C   UNL     1      -9.121  -1.623 122.944  0.00  0.00    +0.000 C 
BRANCH  13  14
ATOM     14  N   UNL     1      -9.650  -0.420 123.643  0.00  0.00    +0.000 NA
ATOM     15  C   UNL     1      -8.661   0.218 124.517  0.00  0.00    +0.000 C 
ATOM     16  C   UNL     1     -10.126   0.518 122.636  0.00  0.00    +0.000 C 
ENDBRANCH  13  14
ENDBRANCH  12  13
ENDBRANCH  11  12
ENDBRANCH   2  11
BRANCH   6  17
ATOM     17  O   UNL     1      -5.329  -1.708 128.517  0.00  0.00    +0.000 OA
BRANCH  17  18
ATOM     18  C   UNL     1      -4.606  -2.231 129.625  0.00  0.00    +0.000 C 
ATOM     19  C   UNL     1      -3.315  -3.004 129.441  0.00  0.00    +0.000 C 
ATOM     20  O   UNL     1      -5.014  -2.043 130.758  0.00  0.00    +0.000 OA
ENDBRANCH  17  18
ENDBRANCH   6  17
TORSDOF 7
ENDMDL
MODEL 3
REMARK VINA RESULT:      -5.6      2.495      4.373
REMARK  Name = Moxisylyte
REMARK  13 active torsions:
REMARK  status: ('A' for Active; 'I' for Inactive)
REMARK    1  A    between atoms: C_1  and  C_2
REMARK    2  A    between atoms: C_2  and  C_3
REMARK    3  A    between atoms: C_2  and  C_4
REMARK    4  A    between atoms: C_5  and  O_6
REMARK    5  A    between atoms: O_6  and  C_7
REMARK    6  A    between atoms: C_7  and  C_8
REMARK    7  A    between atoms: C_8  and  N_9
REMARK    8  A    between atoms: N_9  and  C_10
REMARK    9  A    between atoms: N_9  and  C_11
REMARK   10  A    between atoms: C_13  and  C_14
REMARK   11  A    between atoms: C_15  and  O_16
REMARK   12  A    between atoms: O_16  and  C_17
REMARK   13  A    between atoms: C_17  and  C_18
REMARK                            x       y       z     vdW  Elec       q    Type
REMARK                         _______ _______ _______ _____ _____    ______ ____
ROOT
ATOM      1  C   UNL     1      -8.476   5.452 132.972  0.00  0.00    +0.000 A 
ATOM      2  C   UNL     1      -7.516   6.129 132.220  0.00  0.00    +0.000 A 
ATOM      3  C   UNL     1      -7.944   6.852 131.069  0.00  0.00    +0.000 A 
ATOM      4  C   UNL     1      -9.299   6.877 130.629  0.00  0.00    +0.000 A 
ATOM      5  C   UNL     1      -9.720   7.686 129.439  0.00  0.00    +0.000 C 
ATOM      6  C   UNL     1     -10.220   6.161 131.374  0.00  0.00    +0.000 A 
ATOM      7  C   UNL     1      -9.773   5.538 132.505  0.00  0.00    +0.000 A 
ENDROOT
BRANCH   1   9
ATOM      8  C   UNL     1      -7.642   5.410 135.486  0.00  0.00    +0.000 C 
ATOM      9  C   UNL     1      -8.345   4.708 134.300  0.00  0.00    +0.000 C 
ATOM     10  C   UNL     1      -7.553   3.408 134.084  0.00  0.00    +0.000 C 
ENDBRANCH   1   9
BRANCH   2  11
ATOM     11  O   UNL     1      -6.169   6.228 132.504  0.00  0.00    +0.000 OA
BRANCH  11  12
ATOM     12  C   UNL     1      -5.348   6.593 131.404  0.00  0.00    +0.000 C 
BRANCH  12  13
ATOM     13  C   UNL     1      -4.164   5.698 131.136  0.00  0.00    +0.000 C 
BRANCH  13  14
ATOM     14  N   UNL     1      -2.932   6.511 130.949  0.00  0.00    +0.000 NA
ATOM     15  C   UNL     1      -2.424   6.476 129.574  0.00  0.00    +0.000 C 
ATOM     16  C   UNL     1      -3.222   7.879 131.354  0.00  0.00    +0.000 C 
ENDBRANCH  13  14
ENDBRANCH  12  13
ENDBRANCH  11  12
ENDBRANCH   2  11
BRANCH   6  17
ATOM     17  O   UNL     1     -11.615   6.089 131.070  0.00  0.00    +0.000 OA
BRANCH  17  18
ATOM     18  C   UNL     1     -12.695   6.990 130.859  0.00  0.00    +0.000 C 
ATOM     19  C   UNL     1     -13.258   7.249 129.475  0.00  0.00    +0.000 C 
ATOM     20  O   UNL     1     -13.203   7.560 131.809  0.00  0.00    +0.000 OA
ENDBRANCH  17  18
ENDBRANCH   6  17
TORSDOF 7
ENDMDL
MODEL 4
REMARK VINA RESULT:      -5.6      7.060      9.067
REMARK  Name = Moxisylyte
REMARK  13 active torsions:
REMARK  status: ('A' for Active; 'I' for Inactive)
REMARK    1  A    between atoms: C_1  and  C_2
REMARK    2  A    between atoms: C_2  and  C_3
REMARK    3  A    between atoms: C_2  and  C_4
REMARK    4  A    between atoms: C_5  and  O_6
REMARK    5  A    between atoms: O_6  and  C_7
REMARK    6  A    between atoms: C_7  and  C_8
REMARK    7  A    between atoms: C_8  and  N_9
REMARK    8  A    between atoms: N_9  and  C_10
REMARK    9  A    between atoms: N_9  and  C_11
REMARK   10  A    between atoms: C_13  and  C_14
REMARK   11  A    between atoms: C_15  and  O_16
REMARK   12  A    between atoms: O_16  and  C_17
REMARK   13  A    between atoms: C_17  and  C_18
REMARK                            x       y       z     vdW  Elec       q    Type
REMARK                         _______ _______ _______ _____ _____    ______ ____
ROOT
ATOM      1  C   UNL     1      -7.451   3.089 124.240  0.00  0.00    +0.000 A 
ATOM      2  C   UNL     1      -6.327   3.685 124.813  0.00  0.00    +0.000 A 
ATOM      3  C   UNL     1      -5.357   4.270 123.948  0.00  0.00    +0.000 A 
ATOM      4  C   UNL     1      -5.461   4.232 122.528  0.00  0.00    +0.000 A 
ATOM      5  C   UNL     1      -4.443   4.898 121.651  0.00  0.00    +0.000 C 
ATOM      6  C   UNL     1      -6.566   3.596 121.991  0.00  0.00    +0.000 A 
ATOM      7  C   UNL     1      -7.501   3.109 122.860  0.00  0.00    +0.000 A 
ENDROOT
BRANCH   1   9
ATOM      8  C   UNL     1      -8.532   1.379 125.950  0.00  0.00    +0.000 C 
ATOM      9  C   UNL     1      -8.699   2.500 124.896  0.00  0.00    +0.000 C 
ATOM     10  C   UNL     1      -9.610   1.895 123.816  0.00  0.00    +0.000 C 
ENDBRANCH   1   9
BRANCH   2  11
ATOM     11  O   UNL     1      -6.071   3.828 126.161  0.00  0.00    +0.000 OA
BRANCH  11  12
ATOM     12  C   UNL     1      -4.917   4.594 126.475  0.00  0.00    +0.000 C 
BRANCH  12  13
ATOM     13  C   UNL     1      -4.529   4.640 127.931  0.00  0.00    +0.000 C 
BRANCH  13  14
ATOM     14  N   UNL     1      -3.051   4.547 128.078  0.00  0.00    +0.000 NA
ATOM     15  C   UNL     1      -2.412   3.791 126.997  0.00  0.00    +0.000 C 
ATOM     16  C   UNL     1      -2.515   5.899 128.145  0.00  0.00    +0.000 C 
ENDBRANCH  13  14
ENDBRANCH  12  13
ENDBRANCH  11  12
ENDBRANCH   2  11
BRANCH   6  17
ATOM     17  O   UNL     1      -6.820   3.477 120.589  0.00  0.00    +0.000 OA
BRANCH  17  18
ATOM     18  C   UNL     1      -7.527   4.190 119.582  0.00  0.00    +0.000 C 
ATOM     19  C   UNL     1      -9.042   4.172 119.507  0.00  0.00    +0.000 C 
ATOM     20  O   UNL     1      -6.913   4.852 118.763  0.00  0.00    +0.000 OA
ENDBRANCH  17  18
ENDBRANCH   6  17
TORSDOF 7
ENDMDL
MODEL 5
REMARK VINA RESULT:      -5.5      7.292     10.328
REMARK  Name = Moxisylyte
REMARK  13 active torsions:
REMARK  status: ('A' for Active; 'I' for Inactive)
REMARK    1  A    between atoms: C_1  and  C_2
REMARK    2  A    between atoms: C_2  and  C_3
REMARK    3  A    between atoms: C_2  and  C_4
REMARK    4  A    between atoms: C_5  and  O_6
REMARK    5  A    between atoms: O_6  and  C_7
REMARK    6  A    between atoms: C_7  and  C_8
REMARK    7  A    between atoms: C_8  and  N_9
REMARK    8  A    between atoms: N_9  and  C_10
REMARK    9  A    between atoms: N_9  and  C_11
REMARK   10  A    between atoms: C_13  and  C_14
REMARK   11  A    between atoms: C_15  and  O_16
REMARK   12  A    between atoms: O_16  and  C_17
REMARK   13  A    between atoms: C_17  and  C_18
REMARK                            x       y       z     vdW  Elec       q    Type
REMARK                         _______ _______ _______ _____ _____    ______ ____
ROOT
ATOM      1  C   UNL     1      -8.379  -1.588 125.062  0.00  0.00    +0.000 A 
ATOM      2  C   UNL     1      -9.071  -0.377 125.114  0.00  0.00    +0.000 A 
ATOM      3  C   UNL     1      -8.877   0.465 126.247  0.00  0.00    +0.000 A 
ATOM      4  C   UNL     1      -8.046   0.104 127.347  0.00  0.00    +0.000 A 
ATOM      5  C   UNL     1      -7.830   1.035 128.502  0.00  0.00    +0.000 C 
ATOM      6  C   UNL     1      -7.408  -1.122 127.284  0.00  0.00    +0.000 A 
ATOM      7  C   UNL     1      -7.573  -1.864 126.148  0.00  0.00    +0.000 A 
ENDROOT
BRANCH   1   9
ATOM      8  C   UNL     1      -9.579  -3.334 123.471  0.00  0.00    +0.000 C 
ATOM      9  C   UNL     1      -8.287  -2.625 123.943  0.00  0.00    +0.000 C 
ATOM     10  C   UNL     1      -7.345  -3.761 124.372  0.00  0.00    +0.000 C 
ENDBRANCH   1   9
BRANCH   2  11
ATOM     11  O   UNL     1      -9.899   0.139 124.138  0.00  0.00    +0.000 OA
BRANCH  11  12
ATOM     12  C   UNL     1      -9.907   1.555 124.044  0.00  0.00    +0.000 C 
BRANCH  12  13
ATOM     13  C   UNL     1      -9.147   2.146 122.884  0.00  0.00    +0.000 C 
BRANCH  13  14
ATOM     14  N   UNL     1      -7.800   2.602 123.324  0.00  0.00    +0.000 NA
ATOM     15  C   UNL     1      -7.027   3.231 122.248  0.00  0.00    +0.000 C 
ATOM     16  C   UNL     1      -7.973   3.524 124.437  0.00  0.00    +0.000 C 
ENDBRANCH  13  14
ENDBRANCH  12  13
ENDBRANCH  11  12
ENDBRANCH   2  11
BRANCH   6  17
ATOM     17  O   UNL     1      -6.538  -1.627 128.300  0.00  0.00    +0.000 OA
BRANCH  17  18
ATOM     18  C   UNL     1      -6.638  -2.435 129.466  0.00  0.00    +0.000 C 
ATOM     19  C   UNL     1      -7.877  -3.258 129.761  0.00  0.00    +0.000 C 
ATOM     20  O   UNL     1      -5.703  -2.491 130.246  0.00  0.00    +0.000 OA
ENDBRANCH  17  18
ENDBRANCH   6  17
TORSDOF 7
ENDMDL
MODEL 6
REMARK VINA RESULT:      -5.4      7.298      9.607
REMARK  Name = Moxisylyte
REMARK  13 active torsions:
REMARK  status: ('A' for Active; 'I' for Inactive)
REMARK    1  A    between atoms: C_1  and  C_2
REMARK    2  A    between atoms: C_2  and  C_3
REMARK    3  A    between atoms: C_2  and  C_4
REMARK    4  A    between atoms: C_5  and  O_6
REMARK    5  A    between atoms: O_6  and  C_7
REMARK    6  A    between atoms: C_7  and  C_8
REMARK    7  A    between atoms: C_8  and  N_9
REMARK    8  A    between atoms: N_9  and  C_10
REMARK    9  A    between atoms: N_9  and  C_11
REMARK   10  A    between atoms: C_13  and  C_14
REMARK   11  A    between atoms: C_15  and  O_16
REMARK   12  A    between atoms: O_16  and  C_17
REMARK   13  A    between atoms: C_17  and  C_18
REMARK                            x       y       z     vdW  Elec       q    Type
REMARK                         _______ _______ _______ _____ _____    ______ ____
ROOT
ATOM      1  C   UNL     1      -6.875   2.211 124.029  0.00  0.00    +0.000 A 
ATOM      2  C   UNL     1      -6.159   2.327 125.221  0.00  0.00    +0.000 A 
ATOM      3  C   UNL     1      -5.774   1.133 125.898  0.00  0.00    +0.000 A 
ATOM      4  C   UNL     1      -6.128  -0.167 125.437  0.00  0.00    +0.000 A 
ATOM      5  C   UNL     1      -5.667  -1.403 126.151  0.00  0.00    +0.000 C 
ATOM      6  C   UNL     1      -6.874  -0.246 124.274  0.00  0.00    +0.000 A 
ATOM      7  C   UNL     1      -7.162   0.922 123.626  0.00  0.00    +0.000 A 
ENDROOT
BRANCH   1   9
ATOM      8  C   UNL     1      -8.560   3.028 122.156  0.00  0.00    +0.000 C 
ATOM      9  C   UNL     1      -7.311   3.284 123.031  0.00  0.00    +0.000 C 
ATOM     10  C   UNL     1      -6.173   3.547 122.031  0.00  0.00    +0.000 C 
ENDBRANCH   1   9
BRANCH   2  11
ATOM     11  O   UNL     1      -5.718   3.497 125.804  0.00  0.00    +0.000 OA
BRANCH  11  12
ATOM     12  C   UNL     1      -4.315   3.709 125.741  0.00  0.00    +0.000 C 
BRANCH  12  13
ATOM     13  C   UNL     1      -3.719   4.527 126.858  0.00  0.00    +0.000 C 
BRANCH  13  14
ATOM     14  N   UNL     1      -2.830   3.684 127.703  0.00  0.00    +0.000 NA
ATOM     15  C   UNL     1      -3.560   2.667 128.467  0.00  0.00    +0.000 C 
ATOM     16  C   UNL     1      -1.838   3.061 126.838  0.00  0.00    +0.000 C 
ENDBRANCH  13  14
ENDBRANCH  12  13
ENDBRANCH  11  12
ENDBRANCH   2  11
BRANCH   6  17
ATOM     17  O   UNL     1      -7.303  -1.472 123.678  0.00  0.00    +0.000 OA
BRANCH  17  18
ATOM     18  C   UNL     1      -8.381  -2.390 123.815  0.00  0.00    +0.000 C 
ATOM     19  C   UNL     1      -8.202  -3.732 124.498  0.00  0.00    +0.000 C 
ATOM     20  O   UNL     1      -9.486  -2.095 123.394  0.00  0.00    +0.000 OA
ENDBRANCH  17  18
ENDBRANCH   6  17
TORSDOF 7
ENDMDL
MODEL 7
REMARK VINA RESULT:      -5.4      6.741      8.826
REMARK  Name = Moxisylyte
REMARK  13 active torsions:
REMARK  status: ('A' for Active; 'I' for Inactive)
REMARK    1  A    between atoms: C_1  and  C_2
REMARK    2  A    between atoms: C_2  and  C_3
REMARK    3  A    between atoms: C_2  and  C_4
REMARK    4  A    between atoms: C_5  and  O_6
REMARK    5  A    between atoms: O_6  and  C_7
REMARK    6  A    between atoms: C_7  and  C_8
REMARK    7  A    between atoms: C_8  and  N_9
REMARK    8  A    between atoms: N_9  and  C_10
REMARK    9  A    between atoms: N_9  and  C_11
REMARK   10  A    between atoms: C_13  and  C_14
REMARK   11  A    between atoms: C_15  and  O_16
REMARK   12  A    between atoms: O_16  and  C_17
REMARK   13  A    between atoms: C_17  and  C_18
REMARK                            x       y       z     vdW  Elec       q    Type
REMARK                         _______ _______ _______ _____ _____    ______ ____
ROOT
ATOM      1  C   UNL     1      -8.530  -1.832 125.868  0.00  0.00    +0.000 A 
ATOM      2  C   UNL     1      -7.937  -1.813 127.130  0.00  0.00    +0.000 A 
ATOM      3  C   UNL     1      -7.882  -0.573 127.833  0.00  0.00    +0.000 A 
ATOM      4  C   UNL     1      -8.363   0.651 127.283  0.00  0.00    +0.000 A 
ATOM      5  C   UNL     1      -8.330   1.927 128.070  0.00  0.00    +0.000 C 
ATOM      6  C   UNL     1      -8.907   0.604 126.012  0.00  0.00    +0.000 A 
ATOM      7  C   UNL     1      -8.998  -0.618 125.406  0.00  0.00    +0.000 A 
ENDROOT
BRANCH   1   9
ATOM      8  C   UNL     1      -7.731  -4.043 124.646  0.00  0.00    +0.000 C 
ATOM      9  C   UNL     1      -8.843  -3.008 124.943  0.00  0.00    +0.000 C 
ATOM     10  C   UNL     1      -9.269  -2.478 123.565  0.00  0.00    +0.000 C 
ENDBRANCH   1   9
BRANCH   2  11
ATOM     11  O   UNL     1      -7.437  -2.897 127.821  0.00  0.00    +0.000 OA
BRANCH  11  12
ATOM     12  C   UNL     1      -6.430  -2.591 128.774  0.00  0.00    +0.000 C 
BRANCH  12  13
ATOM     13  C   UNL     1      -5.008  -2.645 128.274  0.00  0.00    +0.000 C 
BRANCH  13  14
ATOM     14  N   UNL     1      -4.142  -3.361 129.251  0.00  0.00    +0.000 NA
ATOM     15  C   UNL     1      -3.219  -2.470 129.961  0.00  0.00    +0.000 C 
ATOM     16  C   UNL     1      -5.002  -4.064 130.192  0.00  0.00    +0.000 C 
ENDBRANCH  13  14
ENDBRANCH  12  13
ENDBRANCH  11  12
ENDBRANCH   2  11
BRANCH   6  17
ATOM     17  O   UNL     1      -9.437   1.739 125.324  0.00  0.00    +0.000 OA
BRANCH  17  18
ATOM     18  C   UNL     1      -8.951   2.799 124.509  0.00  0.00    +0.000 C 
ATOM     19  C   UNL     1      -8.661   2.601 123.034  0.00  0.00    +0.000 C 
ATOM     20  O   UNL     1      -8.776   3.904 124.992  0.00  0.00    +0.000 OA
ENDBRANCH  17  18
ENDBRANCH   6  17
TORSDOF 7
ENDMDL
MODEL 8
REMARK VINA RESULT:      -5.4      2.414      3.341
REMARK  Name = Moxisylyte
REMARK  13 active torsions:
REMARK  status: ('A' for Active; 'I' for Inactive)
REMARK    1  A    between atoms: C_1  and  C_2
REMARK    2  A    between atoms: C_2  and  C_3
REMARK    3  A    between atoms: C_2  and  C_4
REMARK    4  A    between atoms: C_5  and  O_6
REMARK    5  A    between atoms: O_6  and  C_7
REMARK    6  A    between atoms: C_7  and  C_8
REMARK    7  A    between atoms: C_8  and  N_9
REMARK    8  A    between atoms: N_9  and  C_10
REMARK    9  A    between atoms: N_9  and  C_11
REMARK   10  A    between atoms: C_13  and  C_14
REMARK   11  A    between atoms: C_15  and  O_16
REMARK   12  A    between atoms: O_16  and  C_17
REMARK   13  A    between atoms: C_17  and  C_18
REMARK                            x       y       z     vdW  Elec       q    Type
REMARK                         _______ _______ _______ _____ _____    ______ ____
ROOT
ATOM      1  C   UNL     1      -6.909   6.376 131.834  0.00  0.00    +0.000 A 
ATOM      2  C   UNL     1      -7.651   5.712 132.810  0.00  0.00    +0.000 A 
ATOM      3  C   UNL     1      -9.071   5.693 132.684  0.00  0.00    +0.000 A 
ATOM      4  C   UNL     1      -9.765   6.360 131.634  0.00  0.00    +0.000 A 
ATOM      5  C   UNL     1     -11.257   6.280 131.507  0.00  0.00    +0.000 C 
ATOM      6  C   UNL     1      -9.001   7.045 130.705  0.00  0.00    +0.000 A 
ATOM      7  C   UNL     1      -7.641   6.979 130.831  0.00  0.00    +0.000 A 
ENDROOT
BRANCH   1   9
ATOM      8  C   UNL     1      -4.839   7.404 130.540  0.00  0.00    +0.000 C 
ATOM      9  C   UNL     1      -5.396   6.462 131.633  0.00  0.00    +0.000 C 
ATOM     10  C   UNL     1      -4.846   5.072 131.276  0.00  0.00    +0.000 C 
ENDBRANCH   1   9
BRANCH   2  11
ATOM     11  O   UNL     1      -7.151   5.001 133.882  0.00  0.00    +0.000 OA
BRANCH  11  12
ATOM     12  C   UNL     1      -6.764   5.789 134.998  0.00  0.00    +0.000 C 
BRANCH  12  13
ATOM     13  C   UNL     1      -7.705   5.776 136.176  0.00  0.00    +0.000 C 
BRANCH  13  14
ATOM     14  N   UNL     1      -7.012   6.264 137.399  0.00  0.00    +0.000 NA
ATOM     15  C   UNL     1      -6.002   7.289 137.117  0.00  0.00    +0.000 C 
ATOM     16  C   UNL     1      -8.018   6.775 138.318  0.00  0.00    +0.000 C 
ENDBRANCH  13  14
ENDBRANCH  12  13
ENDBRANCH  11  12
ENDBRANCH   2  11
BRANCH   6  17
ATOM     17  O   UNL     1      -9.542   7.759 129.591  0.00  0.00    +0.000 OA
BRANCH  17  18
ATOM     18  C   UNL     1     -10.230   7.461 128.383  0.00  0.00    +0.000 C 
ATOM     19  C   UNL     1     -11.334   8.356 127.853  0.00  0.00    +0.000 C 
ATOM     20  O   UNL     1      -9.923   6.474 127.738  0.00  0.00    +0.000 OA
ENDBRANCH  17  18
ENDBRANCH   6  17
TORSDOF 7
ENDMDL
MODEL 9
REMARK VINA RESULT:      -5.4      2.070      2.840
REMARK  Name = Moxisylyte
REMARK  13 active torsions:
REMARK  status: ('A' for Active; 'I' for Inactive)
REMARK    1  A    between atoms: C_1  and  C_2
REMARK    2  A    between atoms: C_2  and  C_3
REMARK    3  A    between atoms: C_2  and  C_4
REMARK    4  A    between atoms: C_5  and  O_6
REMARK    5  A    between atoms: O_6  and  C_7
REMARK    6  A    between atoms: C_7  and  C_8
REMARK    7  A    between atoms: C_8  and  N_9
REMARK    8  A    between atoms: N_9  and  C_10
REMARK    9  A    between atoms: N_9  and  C_11
REMARK   10  A    between atoms: C_13  and  C_14
REMARK   11  A    between atoms: C_15  and  O_16
REMARK   12  A    between atoms: O_16  and  C_17
REMARK   13  A    between atoms: C_17  and  C_18
REMARK                            x       y       z     vdW  Elec       q    Type
REMARK                         _______ _______ _______ _____ _____    ______ ____
ROOT
ATOM      1  C   UNL     1      -9.483   4.784 130.796  0.00  0.00    +0.000 A 
ATOM      2  C   UNL     1      -9.588   5.444 132.021  0.00  0.00    +0.000 A 
ATOM      3  C   UNL     1     -10.713   6.293 132.238  0.00  0.00    +0.000 A 
ATOM      4  C   UNL     1     -11.706   6.531 131.245  0.00  0.00    +0.000 A 
ATOM      5  C   UNL     1     -12.900   7.395 131.525  0.00  0.00    +0.000 C 
ATOM      6  C   UNL     1     -11.550   5.895 130.026  0.00  0.00    +0.000 A 
ATOM      7  C   UNL     1     -10.492   5.040 129.889  0.00  0.00    +0.000 A 
ENDROOT
BRANCH   1   9
ATOM      8  C   UNL     1      -8.021   3.746 128.846  0.00  0.00    +0.000 C 
ATOM      9  C   UNL     1      -8.478   3.734 130.324  0.00  0.00    +0.000 C 
ATOM     10  C   UNL     1      -9.061   2.329 130.547  0.00  0.00    +0.000 C 
ENDBRANCH   1   9
BRANCH   2  11
ATOM     11  O   UNL     1      -8.734   5.320 133.097  0.00  0.00    +0.000 OA
BRANCH  11  12
ATOM     12  C   UNL     1      -8.899   4.135 133.862  0.00  0.00    +0.000 C 
BRANCH  12  13
ATOM     13  C   UNL     1      -7.686   3.247 133.977  0.00  0.00    +0.000 C 
BRANCH  13  14
ATOM     14  N   UNL     1      -6.472   3.964 133.502  0.00  0.00    +0.000 NA
ATOM     15  C   UNL     1      -5.632   4.461 134.596  0.00  0.00    +0.000 C 
ATOM     16  C   UNL     1      -5.716   3.061 132.646  0.00  0.00    +0.000 C 
ENDBRANCH  13  14
ENDBRANCH  12  13
ENDBRANCH  11  12
ENDBRANCH   2  11
BRANCH   6  17
ATOM     17  O   UNL     1     -12.460   6.024 128.931  0.00  0.00    +0.000 OA
BRANCH  17  18
ATOM     18  C   UNL     1     -12.692   6.925 127.855  0.00  0.00    +0.000 C 
ATOM     19  C   UNL     1     -13.516   8.185 128.035  0.00  0.00    +0.000 C 
ATOM     20  O   UNL     1     -12.207   6.699 126.760  0.00  0.00    +0.000 OA
ENDBRANCH  17  18
ENDBRANCH   6  17
TORSDOF 7
ENDMDL
