MODEL 1
REMARK VINA RESULT:      -6.2      0.000      0.000
REMARK  Name = Moxonidine
REMARK  4 active torsions:
REMARK  status: ('A' for Active; 'I' for Inactive)
REMARK    1  A    between atoms: C_1  and  O_2
REMARK    2  A    between atoms: O_2  and  C_3
REMARK    3  A    between atoms: C_5  and  C_6
REMARK    4  A    between atoms: C_10  and  N_11
REMARK                            x       y       z     vdW  Elec       q    Type
REMARK                         _______ _______ _______ _____ _____    ______ ____
ROOT
ATOM      1  C   UNL     1     -11.180   6.248 130.794  0.00  0.00    +0.000 A 
ATOM      2  N   UNL     1     -11.263   7.267 129.901  0.00  0.00    +0.000 NA
ATOM      3  C   UNL     1     -10.477   7.221 128.815  0.00  0.00    +0.000 A 
ATOM      4  C   UNL     1     -10.641   8.313 127.793  0.00  0.00    +0.000 C 
ATOM      5  N   UNL     1      -9.593   6.250 128.597  0.00  0.00    +0.000 NA
ATOM      6  C   UNL     1      -9.566   5.253 129.522  0.00  0.00    +0.000 A 
ATOM      7 CL   UNL     1      -8.378   4.059 129.132  0.00  0.00    +0.000 Cl
ATOM      8  C   UNL     1     -10.355   5.140 130.673  0.00  0.00    +0.000 A 
ENDROOT
BRANCH   8   9
ATOM      9  N   UNL     1     -10.349   3.938 131.461  0.00  0.00    +0.000 N 
ATOM     10  C   UNL     1      -9.495   3.671 132.506  0.00  0.00    +0.000 C 
ATOM     11  N   UNL     1      -8.473   2.871 132.445  0.00  0.00    +0.000 NA
ATOM     12  C   UNL     1      -7.722   3.124 133.729  0.00  0.00    +0.000 C 
ATOM     13  C   UNL     1      -8.484   4.236 134.469  0.00  0.00    +0.000 C 
ATOM     14  N   UNL     1      -9.710   4.296 133.699  0.00  0.00    +0.000 N 
ATOM     15  H   UNL     1     -10.360   3.152 130.815  0.00  0.00    +0.000 HD
ATOM     16  H   UNL     1     -10.237   5.156 133.696  0.00  0.00    +0.000 HD
ENDBRANCH   8   9
BRANCH   1  18
ATOM     17  C   UNL     1     -12.961   7.504 131.567  0.00  0.00    +0.000 C 
ATOM     18  O   UNL     1     -12.103   6.394 131.795  0.00  0.00    +0.000 OA
ENDBRANCH   1  18
TORSDOF 2
ENDMDL
MODEL 2
REMARK VINA RESULT:      -5.7      2.186      2.870
REMARK  Name = Moxonidine
REMARK  4 active torsions:
REMARK  status: ('A' for Active; 'I' for Inactive)
REMARK    1  A    between atoms: C_1  and  O_2
REMARK    2  A    between atoms: O_2  and  C_3
REMARK    3  A    between atoms: C_5  and  C_6
REMARK    4  A    between atoms: C_10  and  N_11
REMARK                            x       y       z     vdW  Elec       q    Type
REMARK                         _______ _______ _______ _____ _____    ______ ____
ROOT
ATOM      1  C   UNL     1      -9.768   5.692 130.082  0.00  0.00    +0.000 A 
ATOM      2  N   UNL     1      -9.802   6.160 128.808  0.00  0.00    +0.000 NA
ATOM      3  C   UNL     1     -10.758   7.043 128.485  0.00  0.00    +0.000 A 
ATOM      4  C   UNL     1     -10.731   7.618 127.095  0.00  0.00    +0.000 C 
ATOM      5  N   UNL     1     -11.697   7.444 129.340  0.00  0.00    +0.000 NA
ATOM      6  C   UNL     1     -11.602   6.947 130.602  0.00  0.00    +0.000 A 
ATOM      7 CL   UNL     1     -12.876   7.535 131.612  0.00  0.00    +0.000 Cl
ATOM      8  C   UNL     1     -10.636   6.062 131.097  0.00  0.00    +0.000 A 
ENDROOT
BRANCH   8   9
ATOM      9  N   UNL     1     -10.550   5.768 132.501  0.00  0.00    +0.000 N 
ATOM     10  C   UNL     1      -9.489   5.156 133.127  0.00  0.00    +0.000 C 
ATOM     11  N   UNL     1      -9.475   3.918 133.522  0.00  0.00    +0.000 NA
ATOM     12  C   UNL     1      -8.033   3.659 133.887  0.00  0.00    +0.000 C 
ATOM     13  C   UNL     1      -7.263   4.951 133.569  0.00  0.00    +0.000 C 
ATOM     14  N   UNL     1      -8.353   5.879 133.341  0.00  0.00    +0.000 N 
ATOM     15  H   UNL     1     -11.419   5.313 132.770  0.00  0.00    +0.000 HD
ATOM     16  H   UNL     1      -8.187   6.685 132.759  0.00  0.00    +0.000 HD
ENDBRANCH   8   9
BRANCH   1  18
ATOM     17  C   UNL     1      -8.942   3.545 129.844  0.00  0.00    +0.000 C 
ATOM     18  O   UNL     1      -8.686   4.874 130.277  0.00  0.00    +0.000 OA
ENDBRANCH   1  18
TORSDOF 2
ENDMDL
MODEL 3
REMARK VINA RESULT:      -5.6      9.220     10.098
REMARK  Name = Moxonidine
REMARK  4 active torsions:
REMARK  status: ('A' for Active; 'I' for Inactive)
REMARK    1  A    between atoms: C_1  and  O_2
REMARK    2  A    between atoms: O_2  and  C_3
REMARK    3  A    between atoms: C_5  and  C_6
REMARK    4  A    between atoms: C_10  and  N_11
REMARK                            x       y       z     vdW  Elec       q    Type
REMARK                         _______ _______ _______ _____ _____    ______ ____
ROOT
ATOM      1  C   UNL     1      -8.216   3.519 121.250  0.00  0.00    +0.000 A 
ATOM      2  N   UNL     1      -7.231   4.088 120.509  0.00  0.00    +0.000 NA
ATOM      3  C   UNL     1      -6.023   4.239 121.073  0.00  0.00    +0.000 A 
ATOM      4  C   UNL     1      -4.920   4.792 120.212  0.00  0.00    +0.000 C 
ATOM      5  N   UNL     1      -5.761   3.901 122.333  0.00  0.00    +0.000 NA
ATOM      6  C   UNL     1      -6.786   3.326 123.019  0.00  0.00    +0.000 A 
ATOM      7 CL   UNL     1      -6.325   2.937 124.639  0.00  0.00    +0.000 Cl
ATOM      8  C   UNL     1      -8.078   3.060 122.550  0.00  0.00    +0.000 A 
ENDROOT
BRANCH   8   9
ATOM      9  N   UNL     1      -9.001   2.279 123.327  0.00  0.00    +0.000 N 
ATOM     10  C   UNL     1      -9.152   0.913 123.254  0.00  0.00    +0.000 C 
ATOM     11  N   UNL     1     -10.134   0.306 122.659  0.00  0.00    +0.000 NA
ATOM     12  C   UNL     1      -9.711  -1.143 122.621  0.00  0.00    +0.000 C 
ATOM     13  C   UNL     1      -8.309  -1.204 123.248  0.00  0.00    +0.000 C 
ATOM     14  N   UNL     1      -8.201   0.121 123.826  0.00  0.00    +0.000 N 
ATOM     15  H   UNL     1      -9.911   2.730 123.263  0.00  0.00    +0.000 HD
ATOM     16  H   UNL     1      -7.283   0.512 123.971  0.00  0.00    +0.000 HD
ENDBRANCH   8   9
BRANCH   1  18
ATOM     17  C   UNL     1      -9.377   4.204 119.371  0.00  0.00    +0.000 C 
ATOM     18  O   UNL     1      -9.355   3.353 120.509  0.00  0.00    +0.000 OA
ENDBRANCH   1  18
TORSDOF 2
ENDMDL
MODEL 4
REMARK VINA RESULT:      -5.6      8.689     10.446
REMARK  Name = Moxonidine
REMARK  4 active torsions:
REMARK  status: ('A' for Active; 'I' for Inactive)
REMARK    1  A    between atoms: C_1  and  O_2
REMARK    2  A    between atoms: O_2  and  C_3
REMARK    3  A    between atoms: C_5  and  C_6
REMARK    4  A    between atoms: C_10  and  N_11
REMARK                            x       y       z     vdW  Elec       q    Type
REMARK                         _______ _______ _______ _____ _____    ______ ____
ROOT
ATOM      1  C   UNL     1      -6.681  -1.586 125.738  0.00  0.00    +0.000 A 
ATOM      2  N   UNL     1      -5.625  -2.341 125.343  0.00  0.00    +0.000 NA
ATOM      3  C   UNL     1      -5.828  -3.259 124.386  0.00  0.00    +0.000 A 
ATOM      4  C   UNL     1      -4.632  -4.030 123.898  0.00  0.00    +0.000 C 
ATOM      5  N   UNL     1      -7.021  -3.493 123.843  0.00  0.00    +0.000 NA
ATOM      6  C   UNL     1      -8.035  -2.695 124.274  0.00  0.00    +0.000 A 
ATOM      7 CL   UNL     1      -9.530  -3.098 123.502  0.00  0.00    +0.000 Cl
ATOM      8  C   UNL     1      -7.965  -1.669 125.224  0.00  0.00    +0.000 A 
ENDROOT
BRANCH   8   9
ATOM      9  N   UNL     1      -9.077  -0.785 125.444  0.00  0.00    +0.000 N 
ATOM     10  C   UNL     1      -9.198   0.490 124.941  0.00  0.00    +0.000 C 
ATOM     11  N   UNL     1      -9.024   1.578 125.629  0.00  0.00    +0.000 NA
ATOM     12  C   UNL     1      -8.997   2.675 124.592  0.00  0.00    +0.000 C 
ATOM     13  C   UNL     1      -9.131   1.987 123.225  0.00  0.00    +0.000 C 
ATOM     14  N   UNL     1      -9.503   0.644 123.621  0.00  0.00    +0.000 N 
ATOM     15  H   UNL     1      -9.270  -0.782 126.442  0.00  0.00    +0.000 HD
ATOM     16  H   UNL     1      -9.298  -0.119 122.994  0.00  0.00    +0.000 HD
ENDBRANCH   8   9
BRANCH   1  18
ATOM     17  C   UNL     1      -5.449   0.344 126.067  0.00  0.00    +0.000 C 
ATOM     18  O   UNL     1      -6.294  -0.639 126.650  0.00  0.00    +0.000 OA
ENDBRANCH   1  18
TORSDOF 2
ENDMDL
MODEL 5
REMARK VINA RESULT:      -5.4      8.312      9.856
REMARK  Name = Moxonidine
REMARK  4 active torsions:
REMARK  status: ('A' for Active; 'I' for Inactive)
REMARK    1  A    between atoms: C_1  and  O_2
REMARK    2  A    between atoms: O_2  and  C_3
REMARK    3  A    between atoms: C_5  and  C_6
REMARK    4  A    between atoms: C_10  and  N_11
REMARK                            x       y       z     vdW  Elec       q    Type
REMARK                         _______ _______ _______ _____ _____    ______ ____
ROOT
ATOM      1  C   UNL     1      -8.957   0.614 124.303  0.00  0.00    +0.000 A 
ATOM      2  N   UNL     1      -9.374  -0.596 124.756  0.00  0.00    +0.000 NA
ATOM      3  C   UNL     1      -8.553  -1.286 125.561  0.00  0.00    +0.000 A 
ATOM      4  C   UNL     1      -9.063  -2.585 126.123  0.00  0.00    +0.000 C 
ATOM      5  N   UNL     1      -7.337  -0.862 125.897  0.00  0.00    +0.000 NA
ATOM      6  C   UNL     1      -6.983   0.361 125.421  0.00  0.00    +0.000 A 
ATOM      7 CL   UNL     1      -5.385   0.798 125.919  0.00  0.00    +0.000 Cl
ATOM      8  C   UNL     1      -7.748   1.214 124.615  0.00  0.00    +0.000 A 
ENDROOT
BRANCH   8   9
ATOM      9  N   UNL     1      -7.317   2.558 124.342  0.00  0.00    +0.000 N 
ATOM     10  C   UNL     1      -7.203   3.123 123.093  0.00  0.00    +0.000 C 
ATOM     11  N   UNL     1      -6.082   3.321 122.467  0.00  0.00    +0.000 NA
ATOM     12  C   UNL     1      -6.497   3.699 121.066  0.00  0.00    +0.000 C 
ATOM     13  C   UNL     1      -8.031   3.618 121.028  0.00  0.00    +0.000 C 
ATOM     14  N   UNL     1      -8.341   3.492 122.438  0.00  0.00    +0.000 N 
ATOM     15  H   UNL     1      -6.464   2.718 124.872  0.00  0.00    +0.000 HD
ATOM     16  H   UNL     1      -9.207   3.050 122.705  0.00  0.00    +0.000 HD
ENDBRANCH   8   9
BRANCH   1  18
ATOM     17  C   UNL     1     -10.278   0.487 122.409  0.00  0.00    +0.000 C 
ATOM     18  O   UNL     1      -9.937   1.230 123.571  0.00  0.00    +0.000 OA
ENDBRANCH   1  18
TORSDOF 2
ENDMDL
MODEL 6
REMARK VINA RESULT:      -5.3      7.954      9.917
REMARK  Name = Moxonidine
REMARK  4 active torsions:
REMARK  status: ('A' for Active; 'I' for Inactive)
REMARK    1  A    between atoms: C_1  and  O_2
REMARK    2  A    between atoms: O_2  and  C_3
REMARK    3  A    between atoms: C_5  and  C_6
REMARK    4  A    between atoms: C_10  and  N_11
REMARK                            x       y       z     vdW  Elec       q    Type
REMARK                         _______ _______ _______ _____ _____    ______ ____
ROOT
ATOM      1  C   UNL     1      -8.285  -0.804 126.021  0.00  0.00    +0.000 A 
ATOM      2  N   UNL     1      -8.218  -1.561 127.146  0.00  0.00    +0.000 NA
ATOM      3  C   UNL     1      -8.580  -2.850 127.062  0.00  0.00    +0.000 A 
ATOM      4  C   UNL     1      -8.420  -3.698 128.295  0.00  0.00    +0.000 C 
ATOM      5  N   UNL     1      -9.042  -3.405 125.944  0.00  0.00    +0.000 NA
ATOM      6  C   UNL     1      -9.074  -2.598 124.850  0.00  0.00    +0.000 A 
ATOM      7 CL   UNL     1      -9.695  -3.429 123.467  0.00  0.00    +0.000 Cl
ATOM      8  C   UNL     1      -8.684  -1.255 124.773  0.00  0.00    +0.000 A 
ENDROOT
BRANCH   8   9
ATOM      9  N   UNL     1      -8.597  -0.580 123.507  0.00  0.00    +0.000 N 
ATOM     10  C   UNL     1      -8.290   0.749 123.327  0.00  0.00    +0.000 C 
ATOM     11  N   UNL     1      -9.151   1.677 123.037  0.00  0.00    +0.000 NA
ATOM     12  C   UNL     1      -8.385   2.966 123.213  0.00  0.00    +0.000 C 
ATOM     13  C   UNL     1      -6.981   2.576 123.702  0.00  0.00    +0.000 C 
ATOM     14  N   UNL     1      -6.994   1.144 123.481  0.00  0.00    +0.000 N 
ATOM     15  H   UNL     1      -9.435  -0.815 122.979  0.00  0.00    +0.000 HD
ATOM     16  H   UNL     1      -6.383   0.564 124.035  0.00  0.00    +0.000 HD
ENDBRANCH   8   9
BRANCH   1  18
ATOM     17  C   UNL     1      -8.716   1.253 126.984  0.00  0.00    +0.000 C 
ATOM     18  O   UNL     1      -7.799   0.456 126.247  0.00  0.00    +0.000 OA
ENDBRANCH   1  18
TORSDOF 2
ENDMDL
MODEL 7
REMARK VINA RESULT:      -5.3      7.980      8.772
REMARK  Name = Moxonidine
REMARK  4 active torsions:
REMARK  status: ('A' for Active; 'I' for Inactive)
REMARK    1  A    between atoms: C_1  and  O_2
REMARK    2  A    between atoms: O_2  and  C_3
REMARK    3  A    between atoms: C_5  and  C_6
REMARK    4  A    between atoms: C_10  and  N_11
REMARK                            x       y       z     vdW  Elec       q    Type
REMARK                         _______ _______ _______ _____ _____    ______ ____
ROOT
ATOM      1  C   UNL     1      -8.883   2.108 123.434  0.00  0.00    +0.000 A 
ATOM      2  N   UNL     1      -8.478   2.755 122.311  0.00  0.00    +0.000 NA
ATOM      3  C   UNL     1      -7.208   3.181 122.251  0.00  0.00    +0.000 A 
ATOM      4  C   UNL     1      -6.749   3.820 120.968  0.00  0.00    +0.000 C 
ATOM      5  N   UNL     1      -6.344   3.040 123.255  0.00  0.00    +0.000 NA
ATOM      6  C   UNL     1      -6.807   2.374 124.347  0.00  0.00    +0.000 A 
ATOM      7 CL   UNL     1      -5.600   2.260 125.579  0.00  0.00    +0.000 Cl
ATOM      8  C   UNL     1      -8.085   1.832 124.533  0.00  0.00    +0.000 A 
ENDROOT
BRANCH   8   9
ATOM      9  N   UNL     1      -8.376   0.992 125.663  0.00  0.00    +0.000 N 
ATOM     10  C   UNL     1      -8.431  -0.383 125.645  0.00  0.00    +0.000 C 
ATOM     11  N   UNL     1      -9.526  -1.082 125.657  0.00  0.00    +0.000 NA
ATOM     12  C   UNL     1      -9.074  -2.490 125.357  0.00  0.00    +0.000 C 
ATOM     13  C   UNL     1      -7.556  -2.422 125.126  0.00  0.00    +0.000 C 
ATOM     14  N   UNL     1      -7.261  -1.081 125.590  0.00  0.00    +0.000 N 
ATOM     15  H   UNL     1      -9.208   1.365 126.113  0.00  0.00    +0.000 HD
ATOM     16  H   UNL     1      -6.445  -0.613 125.228  0.00  0.00    +0.000 HD
ENDBRANCH   8   9
BRANCH   1  18
ATOM     17  C   UNL     1     -10.251   0.516 122.465  0.00  0.00    +0.000 C 
ATOM     18  O   UNL     1     -10.170   1.659 123.306  0.00  0.00    +0.000 OA
ENDBRANCH   1  18
TORSDOF 2
ENDMDL
MODEL 8
REMARK VINA RESULT:      -5.3      8.172     10.122
REMARK  Name = Moxonidine
REMARK  4 active torsions:
REMARK  status: ('A' for Active; 'I' for Inactive)
REMARK    1  A    between atoms: C_1  and  O_2
REMARK    2  A    between atoms: O_2  and  C_3
REMARK    3  A    between atoms: C_5  and  C_6
REMARK    4  A    between atoms: C_10  and  N_11
REMARK                            x       y       z     vdW  Elec       q    Type
REMARK                         _______ _______ _______ _____ _____    ______ ____
ROOT
ATOM      1  C   UNL     1      -8.681  -2.177 125.057  0.00  0.00    +0.000 A 
ATOM      2  N   UNL     1      -9.153  -3.002 126.025  0.00  0.00    +0.000 NA
ATOM      3  C   UNL     1      -8.445  -3.118 127.158  0.00  0.00    +0.000 A 
ATOM      4  C   UNL     1      -9.023  -3.969 128.256  0.00  0.00    +0.000 C 
ATOM      5  N   UNL     1      -7.283  -2.498 127.356  0.00  0.00    +0.000 NA
ATOM      6  C   UNL     1      -6.870  -1.677 126.354  0.00  0.00    +0.000 A 
ATOM      7 CL   UNL     1      -5.352  -0.937 126.725  0.00  0.00    +0.000 Cl
ATOM      8  C   UNL     1      -7.523  -1.420 125.142  0.00  0.00    +0.000 A 
ENDROOT
BRANCH   8   9
ATOM      9  N   UNL     1      -7.061  -0.386 124.257  0.00  0.00    +0.000 N 
ATOM     10  C   UNL     1      -7.602   0.875 124.148  0.00  0.00    +0.000 C 
ATOM     11  N   UNL     1      -8.366   1.273 123.176  0.00  0.00    +0.000 NA
ATOM     12  C   UNL     1      -8.904   2.604 123.645  0.00  0.00    +0.000 C 
ATOM     13  C   UNL     1      -8.343   2.828 125.058  0.00  0.00    +0.000 C 
ATOM     14  N   UNL     1      -7.343   1.782 125.133  0.00  0.00    +0.000 N 
ATOM     15  H   UNL     1      -6.961  -0.799 123.333  0.00  0.00    +0.000 HD
ATOM     16  H   UNL     1      -7.075   1.434 126.040  0.00  0.00    +0.000 HD
ENDBRANCH   8   9
BRANCH   1  18
ATOM     17  C   UNL     1      -9.623  -3.316 123.279  0.00  0.00    +0.000 C 
ATOM     18  O   UNL     1      -9.557  -2.098 124.007  0.00  0.00    +0.000 OA
ENDBRANCH   1  18
TORSDOF 2
ENDMDL
MODEL 9
REMARK VINA RESULT:      -5.3      2.579      5.359
REMARK  Name = Moxonidine
REMARK  4 active torsions:
REMARK  status: ('A' for Active; 'I' for Inactive)
REMARK    1  A    between atoms: C_1  and  O_2
REMARK    2  A    between atoms: O_2  and  C_3
REMARK    3  A    between atoms: C_5  and  C_6
REMARK    4  A    between atoms: C_10  and  N_11
REMARK                            x       y       z     vdW  Elec       q    Type
REMARK                         _______ _______ _______ _____ _____    ______ ____
ROOT
ATOM      1  C   UNL     1      -8.786   3.446 130.666  0.00  0.00    +0.000 A 
ATOM      2  N   UNL     1      -8.812   2.089 130.651  0.00  0.00    +0.000 NA
ATOM      3  C   UNL     1      -8.776   1.444 131.826  0.00  0.00    +0.000 A 
ATOM      4  C   UNL     1      -8.891  -0.056 131.799  0.00  0.00    +0.000 C 
ATOM      5  N   UNL     1      -8.671   2.069 132.997  0.00  0.00    +0.000 NA
ATOM      6  C   UNL     1      -8.661   3.428 132.945  0.00  0.00    +0.000 A 
ATOM      7 CL   UNL     1      -8.516   4.121 134.523  0.00  0.00    +0.000 Cl
ATOM      8  C   UNL     1      -8.741   4.236 131.804  0.00  0.00    +0.000 A 
ENDROOT
BRANCH   8   9
ATOM      9  N   UNL     1      -8.908   5.659 131.914  0.00  0.00    +0.000 N 
ATOM     10  C   UNL     1     -10.004   6.372 131.485  0.00  0.00    +0.000 C 
ATOM     11  N   UNL     1     -10.042   7.097 130.408  0.00  0.00    +0.000 NA
ATOM     12  C   UNL     1     -11.503   7.439 130.239  0.00  0.00    +0.000 C 
ATOM     13  C   UNL     1     -12.252   6.729 131.378  0.00  0.00    +0.000 C 
ATOM     14  N   UNL     1     -11.150   6.311 132.222  0.00  0.00    +0.000 N 
ATOM     15  H   UNL     1      -8.056   6.093 131.566  0.00  0.00    +0.000 HD
ATOM     16  H   UNL     1     -11.281   5.518 132.830  0.00  0.00    +0.000 HD
ENDBRANCH   8   9
BRANCH   1  18
ATOM     17  C   UNL     1      -7.662   4.139 128.768  0.00  0.00    +0.000 C 
ATOM     18  O   UNL     1      -8.920   3.955 129.401  0.00  0.00    +0.000 OA
ENDBRANCH   1  18
TORSDOF 2
ENDMDL
