MODEL 1
REMARK VINA RESULT:      -6.5      0.000      0.000
REMARK  Name = Mupirocin
REMARK  24 active torsions:
REMARK  status: ('A' for Active; 'I' for Inactive)
REMARK    1  A    between atoms: C_1  and  C_2
REMARK    2  A    between atoms: C_2  and  O_3
REMARK    3  A    between atoms: C_2  and  C_4
REMARK    4  A    between atoms: C_4  and  C_5
REMARK    5  A    between atoms: C_4  and  C_6
REMARK    6  A    between atoms: C_8  and  C_9
REMARK    7  A    between atoms: C_9  and  C_10
REMARK    8  A    between atoms: C_13  and  C_14
REMARK    9  A    between atoms: C_14  and  C_15
REMARK   10  A    between atoms: C_15  and  C_16
REMARK   11  A    between atoms: C_17  and  C_18
REMARK   12  A    between atoms: C_18  and  O_20
REMARK   13  A    between atoms: O_20  and  C_21
REMARK   14  A    between atoms: C_21  and  C_22
REMARK   15  A    between atoms: C_22  and  C_23
REMARK   16  A    between atoms: C_23  and  C_24
REMARK   17  A    between atoms: C_24  and  C_25
REMARK   18  A    between atoms: C_25  and  C_26
REMARK   19  A    between atoms: C_26  and  C_27
REMARK   20  A    between atoms: C_27  and  C_28
REMARK   21  A    between atoms: C_28  and  C_29
REMARK   22  A    between atoms: C_29  and  O_30
REMARK   23  A    between atoms: C_32  and  O_33
REMARK   24  A    between atoms: C_34  and  O_35
REMARK                            x       y       z     vdW  Elec       q    Type
REMARK                         _______ _______ _______ _____ _____    ______ ____
ROOT
ATOM      1  C   UNL     1      -6.258   4.106 127.236  0.00  0.00    +0.000 C 
ATOM      2  C   UNL     1      -5.468   2.843 126.905  0.00  0.00    +0.000 C 
ATOM      3  O   UNL     1      -5.381   2.642 125.518  0.00  0.00    +0.000 OA
ATOM      4  C   UNL     1      -6.660   2.357 124.963  0.00  0.00    +0.000 C 
ATOM      5  C   UNL     1      -7.614   3.560 125.216  0.00  0.00    +0.000 C 
ATOM      6  C   UNL     1      -7.689   3.876 126.718  0.00  0.00    +0.000 C 
ENDROOT
BRANCH   6   7
ATOM      7  O   UNL     1      -8.532   5.000 126.949  0.00  0.00    +0.000 OA
ATOM      8  H   UNL     1      -7.946   5.761 127.125  0.00  0.00    +0.000 HD
ENDBRANCH   6   7
BRANCH   5   9
ATOM      9  O   UNL     1      -7.172   4.720 124.490  0.00  0.00    +0.000 OA
ATOM     10  H   UNL     1      -7.605   4.706 123.617  0.00  0.00    +0.000 HD
ENDBRANCH   5   9
BRANCH   4  11
ATOM     11  C   UNL     1      -7.210   1.023 125.526  0.00  0.00    +0.000 C 
BRANCH  11  12
ATOM     12  C   UNL     1      -8.460   0.537 124.843  0.00  0.00    +0.000 C 
ATOM     13  C   UNL     1      -9.761   0.616 125.609  0.00  0.00    +0.000 C 
ATOM     14  C   UNL     1      -8.412  -0.003 123.604  0.00  0.00    +0.000 C 
BRANCH  14  15
ATOM     15  C   UNL     1      -9.645  -0.518 122.962  0.00  0.00    +0.000 C 
ATOM     16  O   UNL     1     -10.398   0.153 122.254  0.00  0.00    +0.000 OA
BRANCH  15  17
ATOM     17  O   UNL     1      -9.847  -1.825 123.238  0.00  0.00    +0.000 OA
BRANCH  17  18
ATOM     18  C   UNL     1      -8.605  -2.547 123.165  0.00  0.00    +0.000 C 
BRANCH  18  19
ATOM     19  C   UNL     1      -8.527  -3.547 124.302  0.00  0.00    +0.000 C 
BRANCH  19  20
ATOM     20  C   UNL     1      -9.387  -3.104 125.482  0.00  0.00    +0.000 C 
BRANCH  20  21
ATOM     21  C   UNL     1      -8.506  -2.731 126.667  0.00  0.00    +0.000 C 
BRANCH  21  22
ATOM     22  C   UNL     1      -8.760  -3.666 127.839  0.00  0.00    +0.000 C 
BRANCH  22  23
ATOM     23  C   UNL     1      -8.255  -3.043 129.134  0.00  0.00    +0.000 C 
BRANCH  23  24
ATOM     24  C   UNL     1      -6.945  -3.703 129.536  0.00  0.00    +0.000 C 
BRANCH  24  25
ATOM     25  C   UNL     1      -5.889  -2.679 129.917  0.00  0.00    +0.000 C 
BRANCH  25  26
ATOM     26  C   UNL     1      -4.844  -2.408 128.858  0.00  0.00    +0.000 C 
ATOM     27  O   UNL     1      -5.134  -2.332 127.670  0.00  0.00    +0.000 OA
BRANCH  26  28
ATOM     28  O   UNL     1      -3.570  -2.250 129.270  0.00  0.00    +0.000 OA
ATOM     29  H   UNL     1      -3.409  -2.185 130.228  0.00  0.00    +0.000 HD
ENDBRANCH  26  28
ENDBRANCH  25  26
ENDBRANCH  24  25
ENDBRANCH  23  24
ENDBRANCH  22  23
ENDBRANCH  21  22
ENDBRANCH  20  21
ENDBRANCH  19  20
ENDBRANCH  18  19
ENDBRANCH  17  18
ENDBRANCH  15  17
ENDBRANCH  14  15
ENDBRANCH  11  12
ENDBRANCH   4  11
BRANCH   1  30
ATOM     30  C   UNL     1      -6.158   4.325 128.730  0.00  0.00    +0.000 C 
BRANCH  30  33
ATOM     31  C   UNL     1      -7.512   3.795 131.056  0.00  0.00    +0.000 C 
ATOM     32  O   UNL     1      -8.341   4.321 130.015  0.00  0.00    +0.000 OA
ATOM     33  C   UNL     1      -7.202   3.610 129.544  0.00  0.00    +0.000 C 
BRANCH  31  34
ATOM     34  C   UNL     1      -7.815   2.525 131.800  0.00  0.00    +0.000 C 
ATOM     35  C   UNL     1      -6.622   2.204 132.752  0.00  0.00    +0.000 C 
BRANCH  34  37
ATOM     36  C   UNL     1      -9.197   3.521 133.716  0.00  0.00    +0.000 C 
ATOM     37  C   UNL     1      -9.173   2.528 132.556  0.00  0.00    +0.000 C 
BRANCH  37  38
ATOM     38  O   UNL     1     -10.296   2.757 131.709  0.00  0.00    +0.000 OA
ATOM     39  H   UNL     1     -10.195   2.246 130.889  0.00  0.00    +0.000 HD
ENDBRANCH  37  38
ENDBRANCH  34  37
ENDBRANCH  31  34
ENDBRANCH  30  33
ENDBRANCH   1  30
TORSDOF 21
ENDMDL
MODEL 2
REMARK VINA RESULT:      -6.5      2.842      8.341
REMARK  Name = Mupirocin
REMARK  24 active torsions:
REMARK  status: ('A' for Active; 'I' for Inactive)
REMARK    1  A    between atoms: C_1  and  C_2
REMARK    2  A    between atoms: C_2  and  O_3
REMARK    3  A    between atoms: C_2  and  C_4
REMARK    4  A    between atoms: C_4  and  C_5
REMARK    5  A    between atoms: C_4  and  C_6
REMARK    6  A    between atoms: C_8  and  C_9
REMARK    7  A    between atoms: C_9  and  C_10
REMARK    8  A    between atoms: C_13  and  C_14
REMARK    9  A    between atoms: C_14  and  C_15
REMARK   10  A    between atoms: C_15  and  C_16
REMARK   11  A    between atoms: C_17  and  C_18
REMARK   12  A    between atoms: C_18  and  O_20
REMARK   13  A    between atoms: O_20  and  C_21
REMARK   14  A    between atoms: C_21  and  C_22
REMARK   15  A    between atoms: C_22  and  C_23
REMARK   16  A    between atoms: C_23  and  C_24
REMARK   17  A    between atoms: C_24  and  C_25
REMARK   18  A    between atoms: C_25  and  C_26
REMARK   19  A    between atoms: C_26  and  C_27
REMARK   20  A    between atoms: C_27  and  C_28
REMARK   21  A    between atoms: C_28  and  C_29
REMARK   22  A    between atoms: C_29  and  O_30
REMARK   23  A    between atoms: C_32  and  O_33
REMARK   24  A    between atoms: C_34  and  O_35
REMARK                            x       y       z     vdW  Elec       q    Type
REMARK                         _______ _______ _______ _____ _____    ______ ____
ROOT
ATOM      1  C   UNL     1      -7.699  -0.007 123.817  0.00  0.00    +0.000 C 
ATOM      2  C   UNL     1      -6.804  -0.140 125.046  0.00  0.00    +0.000 C 
ATOM      3  O   UNL     1      -6.422  -1.475 125.259  0.00  0.00    +0.000 OA
ATOM      4  C   UNL     1      -7.544  -2.277 125.609  0.00  0.00    +0.000 C 
ATOM      5  C   UNL     1      -8.581  -2.253 124.449  0.00  0.00    +0.000 C 
ATOM      6  C   UNL     1      -8.980  -0.805 124.119  0.00  0.00    +0.000 C 
ENDROOT
BRANCH   6   7
ATOM      7  O   UNL     1      -9.901  -0.778 123.033  0.00  0.00    +0.000 OA
ATOM      8  H   UNL     1     -10.327  -1.656 123.003  0.00  0.00    +0.000 HD
ENDBRANCH   6   7
BRANCH   5   9
ATOM      9  O   UNL     1      -8.047  -2.895 123.278  0.00  0.00    +0.000 OA
ATOM     10  H   UNL     1      -7.498  -2.241 122.807  0.00  0.00    +0.000 HD
ENDBRANCH   5   9
BRANCH   4  11
ATOM     11  C   UNL     1      -8.141  -1.813 126.961  0.00  0.00    +0.000 C 
BRANCH  11  12
ATOM     12  C   UNL     1      -7.952  -2.795 128.085  0.00  0.00    +0.000 C 
ATOM     13  C   UNL     1      -8.873  -3.992 128.142  0.00  0.00    +0.000 C 
ATOM     14  C   UNL     1      -7.024  -2.585 129.046  0.00  0.00    +0.000 C 
BRANCH  14  15
ATOM     15  C   UNL     1      -6.879  -3.537 130.172  0.00  0.00    +0.000 C 
ATOM     16  O   UNL     1      -6.136  -4.519 130.166  0.00  0.00    +0.000 OA
BRANCH  15  17
ATOM     17  O   UNL     1      -7.660  -3.197 131.221  0.00  0.00    +0.000 OA
BRANCH  17  18
ATOM     18  C   UNL     1      -6.928  -2.360 132.135  0.00  0.00    +0.000 C 
BRANCH  18  19
ATOM     19  C   UNL     1      -7.856  -1.317 132.727  0.00  0.00    +0.000 C 
BRANCH  19  20
ATOM     20  C   UNL     1      -7.617   0.051 132.096  0.00  0.00    +0.000 C 
BRANCH  20  21
ATOM     21  C   UNL     1      -8.825   0.466 131.265  0.00  0.00    +0.000 C 
BRANCH  21  22
ATOM     22  C   UNL     1      -9.710   1.423 132.048  0.00  0.00    +0.000 C 
BRANCH  22  23
ATOM     23  C   UNL     1      -8.857   2.417 132.828  0.00  0.00    +0.000 C 
BRANCH  23  24
ATOM     24  C   UNL     1      -9.403   3.822 132.624  0.00  0.00    +0.000 C 
BRANCH  24  25
ATOM     25  C   UNL     1      -9.562   4.159 131.151  0.00  0.00    +0.000 C 
BRANCH  25  26
ATOM     26  C   UNL     1     -10.843   4.877 130.791  0.00  0.00    +0.000 C 
ATOM     27  O   UNL     1     -11.327   4.808 129.667  0.00  0.00    +0.000 OA
BRANCH  26  28
ATOM     28  O   UNL     1     -11.441   5.601 131.758  0.00  0.00    +0.000 OA
ATOM     29  H   UNL     1     -12.412   5.669 131.739  0.00  0.00    +0.000 HD
ENDBRANCH  26  28
ENDBRANCH  25  26
ENDBRANCH  24  25
ENDBRANCH  23  24
ENDBRANCH  22  23
ENDBRANCH  21  22
ENDBRANCH  20  21
ENDBRANCH  19  20
ENDBRANCH  18  19
ENDBRANCH  17  18
ENDBRANCH  15  17
ENDBRANCH  14  15
ENDBRANCH  11  12
ENDBRANCH   4  11
BRANCH   1  30
ATOM     30  C   UNL     1      -7.922   1.470 123.577  0.00  0.00    +0.000 C 
BRANCH  30  33
ATOM     31  C   UNL     1      -6.946   3.564 122.098  0.00  0.00    +0.000 C 
ATOM     32  O   UNL     1      -6.111   3.200 123.202  0.00  0.00    +0.000 OA
ATOM     33  C   UNL     1      -6.898   2.129 122.694  0.00  0.00    +0.000 C 
BRANCH  31  34
ATOM     34  C   UNL     1      -6.453   3.678 120.683  0.00  0.00    +0.000 C 
ATOM     35  C   UNL     1      -7.639   4.121 119.773  0.00  0.00    +0.000 C 
BRANCH  34  37
ATOM     36  C   UNL     1      -5.409   5.641 119.407  0.00  0.00    +0.000 C 
ATOM     37  C   UNL     1      -5.213   4.598 120.504  0.00  0.00    +0.000 C 
BRANCH  37  38
ATOM     38  O   UNL     1      -4.803   5.242 121.707  0.00  0.00    +0.000 OA
ATOM     39  H   UNL     1      -5.232   6.112 121.773  0.00  0.00    +0.000 HD
ENDBRANCH  37  38
ENDBRANCH  34  37
ENDBRANCH  31  34
ENDBRANCH  30  33
ENDBRANCH   1  30
TORSDOF 21
ENDMDL
MODEL 3
REMARK VINA RESULT:      -6.5      3.033      8.912
REMARK  Name = Mupirocin
REMARK  24 active torsions:
REMARK  status: ('A' for Active; 'I' for Inactive)
REMARK    1  A    between atoms: C_1  and  C_2
REMARK    2  A    between atoms: C_2  and  O_3
REMARK    3  A    between atoms: C_2  and  C_4
REMARK    4  A    between atoms: C_4  and  C_5
REMARK    5  A    between atoms: C_4  and  C_6
REMARK    6  A    between atoms: C_8  and  C_9
REMARK    7  A    between atoms: C_9  and  C_10
REMARK    8  A    between atoms: C_13  and  C_14
REMARK    9  A    between atoms: C_14  and  C_15
REMARK   10  A    between atoms: C_15  and  C_16
REMARK   11  A    between atoms: C_17  and  C_18
REMARK   12  A    between atoms: C_18  and  O_20
REMARK   13  A    between atoms: O_20  and  C_21
REMARK   14  A    between atoms: C_21  and  C_22
REMARK   15  A    between atoms: C_22  and  C_23
REMARK   16  A    between atoms: C_23  and  C_24
REMARK   17  A    between atoms: C_24  and  C_25
REMARK   18  A    between atoms: C_25  and  C_26
REMARK   19  A    between atoms: C_26  and  C_27
REMARK   20  A    between atoms: C_27  and  C_28
REMARK   21  A    between atoms: C_28  and  C_29
REMARK   22  A    between atoms: C_29  and  O_30
REMARK   23  A    between atoms: C_32  and  O_33
REMARK   24  A    between atoms: C_34  and  O_35
REMARK                            x       y       z     vdW  Elec       q    Type
REMARK                         _______ _______ _______ _____ _____    ______ ____
ROOT
ATOM      1  C   UNL     1      -9.041   2.164 124.830  0.00  0.00    +0.000 C 
ATOM      2  C   UNL     1      -8.631   1.576 126.176  0.00  0.00    +0.000 C 
ATOM      3  O   UNL     1      -8.624   2.555 127.183  0.00  0.00    +0.000 OA
ATOM      4  C   UNL     1      -7.605   3.520 126.948  0.00  0.00    +0.000 C 
ATOM      5  C   UNL     1      -7.866   4.230 125.588  0.00  0.00    +0.000 C 
ATOM      6  C   UNL     1      -7.961   3.195 124.455  0.00  0.00    +0.000 C 
ENDROOT
BRANCH   6   7
ATOM      7  O   UNL     1      -8.237   3.839 123.215  0.00  0.00    +0.000 OA
ATOM      8  H   UNL     1      -7.522   3.585 122.600  0.00  0.00    +0.000 HD
ENDBRANCH   6   7
BRANCH   5   9
ATOM      9  O   UNL     1      -9.075   5.008 125.646  0.00  0.00    +0.000 OA
ATOM     10  H   UNL     1      -9.524   4.920 124.784  0.00  0.00    +0.000 HD
ENDBRANCH   5   9
BRANCH   4  11
ATOM     11  C   UNL     1      -6.205   2.860 127.024  0.00  0.00    +0.000 C 
BRANCH  11  12
ATOM     12  C   UNL     1      -5.066   3.841 127.078  0.00  0.00    +0.000 C 
ATOM     13  C   UNL     1      -4.110   3.881 125.908  0.00  0.00    +0.000 C 
ATOM     14  C   UNL     1      -4.872   4.625 128.164  0.00  0.00    +0.000 C 
BRANCH  14  15
ATOM     15  C   UNL     1      -3.719   5.555 128.222  0.00  0.00    +0.000 C 
ATOM     16  O   UNL     1      -2.554   5.213 128.427  0.00  0.00    +0.000 OA
BRANCH  15  17
ATOM     17  O   UNL     1      -4.096   6.836 128.014  0.00  0.00    +0.000 OA
BRANCH  17  18
ATOM     18  C   UNL     1      -3.464   7.702 128.974  0.00  0.00    +0.000 C 
BRANCH  18  19
ATOM     19  C   UNL     1      -4.437   8.020 130.092  0.00  0.00    +0.000 C 
BRANCH  19  20
ATOM     20  C   UNL     1      -4.183   7.135 131.308  0.00  0.00    +0.000 C 
BRANCH  20  21
ATOM     21  C   UNL     1      -5.490   6.527 131.801  0.00  0.00    +0.000 C 
BRANCH  21  22
ATOM     22  C   UNL     1      -6.667   7.072 131.007  0.00  0.00    +0.000 C 
BRANCH  22  23
ATOM     23  C   UNL     1      -7.864   6.135 131.122  0.00  0.00    +0.000 C 
BRANCH  23  24
ATOM     24  C   UNL     1      -9.142   6.911 130.847  0.00  0.00    +0.000 C 
BRANCH  24  25
ATOM     25  C   UNL     1     -10.364   6.210 131.417  0.00  0.00    +0.000 C 
BRANCH  25  26
ATOM     26  C   UNL     1     -11.073   5.276 130.463  0.00  0.00    +0.000 C 
ATOM     27  O   UNL     1     -11.545   5.672 129.404  0.00  0.00    +0.000 OA
BRANCH  26  28
ATOM     28  O   UNL     1     -11.166   3.979 130.819  0.00  0.00    +0.000 OA
ATOM     29  H   UNL     1     -10.351   3.447 130.812  0.00  0.00    +0.000 HD
ENDBRANCH  26  28
ENDBRANCH  25  26
ENDBRANCH  24  25
ENDBRANCH  23  24
ENDBRANCH  22  23
ENDBRANCH  21  22
ENDBRANCH  20  21
ENDBRANCH  19  20
ENDBRANCH  18  19
ENDBRANCH  17  18
ENDBRANCH  15  17
ENDBRANCH  14  15
ENDBRANCH  11  12
ENDBRANCH   4  11
BRANCH   1  30
ATOM     30  C   UNL     1      -9.177   1.015 123.855  0.00  0.00    +0.000 C 
BRANCH  30  33
ATOM     31  C   UNL     1      -7.898  -1.406 123.696  0.00  0.00    +0.000 C 
ATOM     32  O   UNL     1      -7.734  -0.591 122.531  0.00  0.00    +0.000 OA
ATOM     33  C   UNL     1      -7.955   0.147 123.727  0.00  0.00    +0.000 C 
BRANCH  31  34
ATOM     34  C   UNL     1      -6.751  -2.012 124.456  0.00  0.00    +0.000 C 
ATOM     35  C   UNL     1      -7.274  -3.248 125.250  0.00  0.00    +0.000 C 
BRANCH  34  37
ATOM     36  C   UNL     1      -4.834  -3.660 124.027  0.00  0.00    +0.000 C 
ATOM     37  C   UNL     1      -5.515  -2.367 123.583  0.00  0.00    +0.000 C 
BRANCH  37  38
ATOM     38  O   UNL     1      -5.802  -2.433 122.189  0.00  0.00    +0.000 OA
ATOM     39  H   UNL     1      -6.718  -2.732 122.058  0.00  0.00    +0.000 HD
ENDBRANCH  37  38
ENDBRANCH  34  37
ENDBRANCH  31  34
ENDBRANCH  30  33
ENDBRANCH   1  30
TORSDOF 21
ENDMDL
MODEL 4
REMARK VINA RESULT:      -6.5      3.378      9.703
REMARK  Name = Mupirocin
REMARK  24 active torsions:
REMARK  status: ('A' for Active; 'I' for Inactive)
REMARK    1  A    between atoms: C_1  and  C_2
REMARK    2  A    between atoms: C_2  and  O_3
REMARK    3  A    between atoms: C_2  and  C_4
REMARK    4  A    between atoms: C_4  and  C_5
REMARK    5  A    between atoms: C_4  and  C_6
REMARK    6  A    between atoms: C_8  and  C_9
REMARK    7  A    between atoms: C_9  and  C_10
REMARK    8  A    between atoms: C_13  and  C_14
REMARK    9  A    between atoms: C_14  and  C_15
REMARK   10  A    between atoms: C_15  and  C_16
REMARK   11  A    between atoms: C_17  and  C_18
REMARK   12  A    between atoms: C_18  and  O_20
REMARK   13  A    between atoms: O_20  and  C_21
REMARK   14  A    between atoms: C_21  and  C_22
REMARK   15  A    between atoms: C_22  and  C_23
REMARK   16  A    between atoms: C_23  and  C_24
REMARK   17  A    between atoms: C_24  and  C_25
REMARK   18  A    between atoms: C_25  and  C_26
REMARK   19  A    between atoms: C_26  and  C_27
REMARK   20  A    between atoms: C_27  and  C_28
REMARK   21  A    between atoms: C_28  and  C_29
REMARK   22  A    between atoms: C_29  and  O_30
REMARK   23  A    between atoms: C_32  and  O_33
REMARK   24  A    between atoms: C_34  and  O_35
REMARK                            x       y       z     vdW  Elec       q    Type
REMARK                         _______ _______ _______ _____ _____    ______ ____
ROOT
ATOM      1  C   UNL     1      -7.910   0.318 129.574  0.00  0.00    +0.000 C 
ATOM      2  C   UNL     1      -8.281  -0.277 130.929  0.00  0.00    +0.000 C 
ATOM      3  O   UNL     1      -9.378   0.390 131.498  0.00  0.00    +0.000 OA
ATOM      4  C   UNL     1      -9.040   1.731 131.835  0.00  0.00    +0.000 C 
ATOM      5  C   UNL     1      -8.624   2.500 130.548  0.00  0.00    +0.000 C 
ATOM      6  C   UNL     1      -7.472   1.770 129.838  0.00  0.00    +0.000 C 
ENDROOT
BRANCH   6   7
ATOM      7  O   UNL     1      -7.115   2.451 128.640  0.00  0.00    +0.000 OA
ATOM      8  H   UNL     1      -6.370   3.042 128.863  0.00  0.00    +0.000 HD
ENDBRANCH   6   7
BRANCH   5   9
ATOM      9  O   UNL     1      -9.743   2.638 129.655  0.00  0.00    +0.000 OA
ATOM     10  H   UNL     1     -10.520   2.240 130.091  0.00  0.00    +0.000 HD
ENDBRANCH   5   9
BRANCH   4  11
ATOM     11  C   UNL     1      -7.946   1.755 132.931  0.00  0.00    +0.000 C 
BRANCH  11  12
ATOM     12  C   UNL     1      -7.619   3.132 133.443  0.00  0.00    +0.000 C 
ATOM     13  C   UNL     1      -6.194   3.617 133.309  0.00  0.00    +0.000 C 
ATOM     14  C   UNL     1      -8.559   3.889 134.053  0.00  0.00    +0.000 C 
BRANCH  14  15
ATOM     15  C   UNL     1      -8.211   5.226 134.592  0.00  0.00    +0.000 C 
ATOM     16  O   UNL     1      -7.744   5.428 135.713  0.00  0.00    +0.000 OA
BRANCH  15  17
ATOM     17  O   UNL     1      -8.462   6.209 133.699  0.00  0.00    +0.000 OA
BRANCH  17  18
ATOM     18  C   UNL     1      -9.651   5.907 132.948  0.00  0.00    +0.000 C 
BRANCH  18  19
ATOM     19  C   UNL     1      -9.446   6.282 131.493  0.00  0.00    +0.000 C 
BRANCH  19  20
ATOM     20  C   UNL     1     -10.667   5.915 130.655  0.00  0.00    +0.000 C 
BRANCH  20  21
ATOM     21  C   UNL     1     -11.897   6.657 131.160  0.00  0.00    +0.000 C 
BRANCH  21  22
ATOM     22  C   UNL     1     -12.790   7.068 129.999  0.00  0.00    +0.000 C 
BRANCH  22  23
ATOM     23  C   UNL     1     -12.579   8.539 129.662  0.00  0.00    +0.000 C 
BRANCH  23  24
ATOM     24  C   UNL     1     -12.282   8.680 128.177  0.00  0.00    +0.000 C 
BRANCH  24  25
ATOM     25  C   UNL     1     -10.893   8.176 127.827  0.00  0.00    +0.000 C 
BRANCH  25  26
ATOM     26  C   UNL     1     -10.849   7.090 126.775  0.00  0.00    +0.000 C 
ATOM     27  O   UNL     1      -9.803   6.529 126.470  0.00  0.00    +0.000 OA
BRANCH  26  28
ATOM     28  O   UNL     1     -12.011   6.756 126.180  0.00  0.00    +0.000 OA
ATOM     29  H   UNL     1     -12.436   5.924 126.451  0.00  0.00    +0.000 HD
ENDBRANCH  26  28
ENDBRANCH  25  26
ENDBRANCH  24  25
ENDBRANCH  23  24
ENDBRANCH  22  23
ENDBRANCH  21  22
ENDBRANCH  20  21
ENDBRANCH  19  20
ENDBRANCH  18  19
ENDBRANCH  17  18
ENDBRANCH  15  17
ENDBRANCH  14  15
ENDBRANCH  11  12
ENDBRANCH   4  11
BRANCH   1  30
ATOM     30  C   UNL     1      -6.836  -0.562 128.971  0.00  0.00    +0.000 C 
BRANCH  30  33
ATOM     31  C   UNL     1      -8.276  -1.269 126.747  0.00  0.00    +0.000 C 
ATOM     32  O   UNL     1      -7.754   0.061 126.694  0.00  0.00    +0.000 OA
ATOM     33  C   UNL     1      -6.989  -0.829 127.499  0.00  0.00    +0.000 C 
BRANCH  31  34
ATOM     34  C   UNL     1      -8.060  -2.293 125.668  0.00  0.00    +0.000 C 
ATOM     35  C   UNL     1      -8.675  -3.648 126.131  0.00  0.00    +0.000 C 
BRANCH  34  37
ATOM     36  C   UNL     1      -9.264  -3.017 123.523  0.00  0.00    +0.000 C 
ATOM     37  C   UNL     1      -8.581  -1.871 124.266  0.00  0.00    +0.000 C 
BRANCH  37  38
ATOM     38  O   UNL     1      -9.447  -0.739 124.296  0.00  0.00    +0.000 OA
ATOM     39  H   UNL     1     -10.199  -0.888 123.698  0.00  0.00    +0.000 HD
ENDBRANCH  37  38
ENDBRANCH  34  37
ENDBRANCH  31  34
ENDBRANCH  30  33
ENDBRANCH   1  30
TORSDOF 21
ENDMDL
MODEL 5
REMARK VINA RESULT:      -6.4      3.274      9.491
REMARK  Name = Mupirocin
REMARK  24 active torsions:
REMARK  status: ('A' for Active; 'I' for Inactive)
REMARK    1  A    between atoms: C_1  and  C_2
REMARK    2  A    between atoms: C_2  and  O_3
REMARK    3  A    between atoms: C_2  and  C_4
REMARK    4  A    between atoms: C_4  and  C_5
REMARK    5  A    between atoms: C_4  and  C_6
REMARK    6  A    between atoms: C_8  and  C_9
REMARK    7  A    between atoms: C_9  and  C_10
REMARK    8  A    between atoms: C_13  and  C_14
REMARK    9  A    between atoms: C_14  and  C_15
REMARK   10  A    between atoms: C_15  and  C_16
REMARK   11  A    between atoms: C_17  and  C_18
REMARK   12  A    between atoms: C_18  and  O_20
REMARK   13  A    between atoms: O_20  and  C_21
REMARK   14  A    between atoms: C_21  and  C_22
REMARK   15  A    between atoms: C_22  and  C_23
REMARK   16  A    between atoms: C_23  and  C_24
REMARK   17  A    between atoms: C_24  and  C_25
REMARK   18  A    between atoms: C_25  and  C_26
REMARK   19  A    between atoms: C_26  and  C_27
REMARK   20  A    between atoms: C_27  and  C_28
REMARK   21  A    between atoms: C_28  and  C_29
REMARK   22  A    between atoms: C_29  and  O_30
REMARK   23  A    between atoms: C_32  and  O_33
REMARK   24  A    between atoms: C_34  and  O_35
REMARK                            x       y       z     vdW  Elec       q    Type
REMARK                         _______ _______ _______ _____ _____    ______ ____
ROOT
ATOM      1  C   UNL     1      -7.253  -1.567 128.213  0.00  0.00    +0.000 C 
ATOM      2  C   UNL     1      -7.358  -0.047 128.296  0.00  0.00    +0.000 C 
ATOM      3  O   UNL     1      -6.592   0.463 129.357  0.00  0.00    +0.000 OA
ATOM      4  C   UNL     1      -7.120   0.050 130.612  0.00  0.00    +0.000 C 
ATOM      5  C   UNL     1      -7.093  -1.503 130.702  0.00  0.00    +0.000 C 
ATOM      6  C   UNL     1      -7.855  -2.120 129.518  0.00  0.00    +0.000 C 
ENDROOT
BRANCH   6   7
ATOM      7  O   UNL     1      -7.800  -3.542 129.576  0.00  0.00    +0.000 OA
ATOM      8  H   UNL     1      -8.195  -3.804 130.430  0.00  0.00    +0.000 HD
ENDBRANCH   6   7
BRANCH   5   9
ATOM      9  O   UNL     1      -5.739  -1.986 130.719  0.00  0.00    +0.000 OA
ATOM     10  H   UNL     1      -5.488  -2.197 129.801  0.00  0.00    +0.000 HD
ENDBRANCH   5   9
BRANCH   4  11
ATOM     11  C   UNL     1      -8.536   0.641 130.825  0.00  0.00    +0.000 C 
BRANCH  11  12
ATOM     12  C   UNL     1      -8.549   1.961 131.547  0.00  0.00    +0.000 C 
ATOM     13  C   UNL     1      -9.741   2.279 132.420  0.00  0.00    +0.000 C 
ATOM     14  C   UNL     1      -7.551   2.858 131.377  0.00  0.00    +0.000 C 
BRANCH  14  15
ATOM     15  C   UNL     1      -7.599   4.172 132.060  0.00  0.00    +0.000 C 
ATOM     16  O   UNL     1      -7.315   4.356 133.244  0.00  0.00    +0.000 OA
BRANCH  15  17
ATOM     17  O   UNL     1      -7.987   5.160 131.223  0.00  0.00    +0.000 OA
BRANCH  17  18
ATOM     18  C   UNL     1      -8.574   6.241 131.969  0.00  0.00    +0.000 C 
BRANCH  18  19
ATOM     19  C   UNL     1     -10.041   5.954 132.218  0.00  0.00    +0.000 C 
BRANCH  19  20
ATOM     20  C   UNL     1     -10.895   6.395 131.033  0.00  0.00    +0.000 C 
BRANCH  20  21
ATOM     21  C   UNL     1     -12.253   6.888 131.515  0.00  0.00    +0.000 C 
BRANCH  21  22
ATOM     22  C   UNL     1     -12.763   8.010 130.625  0.00  0.00    +0.000 C 
BRANCH  22  23
ATOM     23  C   UNL     1     -12.877   7.533 129.182  0.00  0.00    +0.000 C 
BRANCH  23  24
ATOM     24  C   UNL     1     -12.330   8.603 128.250  0.00  0.00    +0.000 C 
BRANCH  24  25
ATOM     25  C   UNL     1     -10.856   8.391 127.948  0.00  0.00    +0.000 C 
BRANCH  25  26
ATOM     26  C   UNL     1     -10.564   7.595 126.696  0.00  0.00    +0.000 C 
ATOM     27  O   UNL     1     -10.857   8.014 125.583  0.00  0.00    +0.000 OA
BRANCH  26  28
ATOM     28  O   UNL     1      -9.963   6.399 126.849  0.00  0.00    +0.000 OA
ATOM     29  H   UNL     1      -9.184   6.209 126.297  0.00  0.00    +0.000 HD
ENDBRANCH  26  28
ENDBRANCH  25  26
ENDBRANCH  24  25
ENDBRANCH  23  24
ENDBRANCH  22  23
ENDBRANCH  21  22
ENDBRANCH  20  21
ENDBRANCH  19  20
ENDBRANCH  18  19
ENDBRANCH  17  18
ENDBRANCH  15  17
ENDBRANCH  14  15
ENDBRANCH  11  12
ENDBRANCH   4  11
BRANCH   1  30
ATOM     30  C   UNL     1      -7.973  -2.003 126.956  0.00  0.00    +0.000 C 
BRANCH  30  33
ATOM     31  C   UNL     1      -8.631  -0.620 124.681  0.00  0.00    +0.000 C 
ATOM     32  O   UNL     1      -9.756  -1.203 125.346  0.00  0.00    +0.000 OA
ATOM     33  C   UNL     1      -8.668  -0.898 126.209  0.00  0.00    +0.000 C 
BRANCH  31  34
ATOM     34  C   UNL     1      -8.548   0.832 124.303  0.00  0.00    +0.000 C 
ATOM     35  C   UNL     1      -7.265   1.055 123.446  0.00  0.00    +0.000 C 
BRANCH  34  37
ATOM     36  C   UNL     1     -10.210   0.577 122.367  0.00  0.00    +0.000 C 
ATOM     37  C   UNL     1      -9.817   1.390 123.599  0.00  0.00    +0.000 C 
BRANCH  37  38
ATOM     38  O   UNL     1     -10.941   1.515 124.466  0.00  0.00    +0.000 OA
ATOM     39  H   UNL     1     -11.757   1.333 123.971  0.00  0.00    +0.000 HD
ENDBRANCH  37  38
ENDBRANCH  34  37
ENDBRANCH  31  34
ENDBRANCH  30  33
ENDBRANCH   1  30
TORSDOF 21
ENDMDL
MODEL 6
REMARK VINA RESULT:      -6.3      3.308      7.020
REMARK  Name = Mupirocin
REMARK  24 active torsions:
REMARK  status: ('A' for Active; 'I' for Inactive)
REMARK    1  A    between atoms: C_1  and  C_2
REMARK    2  A    between atoms: C_2  and  O_3
REMARK    3  A    between atoms: C_2  and  C_4
REMARK    4  A    between atoms: C_4  and  C_5
REMARK    5  A    between atoms: C_4  and  C_6
REMARK    6  A    between atoms: C_8  and  C_9
REMARK    7  A    between atoms: C_9  and  C_10
REMARK    8  A    between atoms: C_13  and  C_14
REMARK    9  A    between atoms: C_14  and  C_15
REMARK   10  A    between atoms: C_15  and  C_16
REMARK   11  A    between atoms: C_17  and  C_18
REMARK   12  A    between atoms: C_18  and  O_20
REMARK   13  A    between atoms: O_20  and  C_21
REMARK   14  A    between atoms: C_21  and  C_22
REMARK   15  A    between atoms: C_22  and  C_23
REMARK   16  A    between atoms: C_23  and  C_24
REMARK   17  A    between atoms: C_24  and  C_25
REMARK   18  A    between atoms: C_25  and  C_26
REMARK   19  A    between atoms: C_26  and  C_27
REMARK   20  A    between atoms: C_27  and  C_28
REMARK   21  A    between atoms: C_28  and  C_29
REMARK   22  A    between atoms: C_29  and  O_30
REMARK   23  A    between atoms: C_32  and  O_33
REMARK   24  A    between atoms: C_34  and  O_35
REMARK                            x       y       z     vdW  Elec       q    Type
REMARK                         _______ _______ _______ _____ _____    ______ ____
ROOT
ATOM      1  C   UNL     1      -9.082   4.219 131.086  0.00  0.00    +0.000 C 
ATOM      2  C   UNL     1      -9.995   3.094 130.607  0.00  0.00    +0.000 C 
ATOM      3  O   UNL     1     -10.398   2.272 131.672  0.00  0.00    +0.000 OA
ATOM      4  C   UNL     1      -9.292   1.559 132.212  0.00  0.00    +0.000 C 
ATOM      5  C   UNL     1      -8.239   2.568 132.755  0.00  0.00    +0.000 C 
ATOM      6  C   UNL     1      -7.816   3.547 131.647  0.00  0.00    +0.000 C 
ENDROOT
BRANCH   6   7
ATOM      7  O   UNL     1      -6.881   4.495 132.151  0.00  0.00    +0.000 OA
ATOM      8  H   UNL     1      -6.413   4.867 131.378  0.00  0.00    +0.000 HD
ENDBRANCH   6   7
BRANCH   5   9
ATOM      9  O   UNL     1      -8.765   3.296 133.878  0.00  0.00    +0.000 OA
ATOM     10  H   UNL     1      -9.043   2.644 134.548  0.00  0.00    +0.000 HD
ENDBRANCH   5   9
BRANCH   4  11
ATOM     11  C   UNL     1      -8.706   0.587 131.158  0.00  0.00    +0.000 C 
BRANCH  11  12
ATOM     12  C   UNL     1      -7.409  -0.055 131.568  0.00  0.00    +0.000 C 
ATOM     13  C   UNL     1      -6.169   0.286 130.774  0.00  0.00    +0.000 C 
ATOM     14  C   UNL     1      -7.364  -0.951 132.580  0.00  0.00    +0.000 C 
BRANCH  14  15
ATOM     15  C   UNL     1      -6.086  -1.609 132.944  0.00  0.00    +0.000 C 
ATOM     16  O   UNL     1      -5.143  -1.046 133.499  0.00  0.00    +0.000 OA
BRANCH  15  17
ATOM     17  O   UNL     1      -6.078  -2.916 132.598  0.00  0.00    +0.000 OA
BRANCH  17  18
ATOM     18  C   UNL     1      -4.981  -3.188 131.708  0.00  0.00    +0.000 C 
BRANCH  18  19
ATOM     19  C   UNL     1      -5.456  -3.106 130.271  0.00  0.00    +0.000 C 
BRANCH  19  20
ATOM     20  C   UNL     1      -6.653  -4.022 130.036  0.00  0.00    +0.000 C 
BRANCH  20  21
ATOM     21  C   UNL     1      -7.881  -3.201 129.664  0.00  0.00    +0.000 C 
BRANCH  21  22
ATOM     22  C   UNL     1      -8.481  -3.698 128.357  0.00  0.00    +0.000 C 
BRANCH  22  23
ATOM     23  C   UNL     1      -8.310  -2.652 127.263  0.00  0.00    +0.000 C 
BRANCH  23  24
ATOM     24  C   UNL     1      -9.149  -3.040 126.056  0.00  0.00    +0.000 C 
BRANCH  24  25
ATOM     25  C   UNL     1      -8.292  -3.282 124.825  0.00  0.00    +0.000 C 
BRANCH  25  26
ATOM     26  C   UNL     1      -8.984  -3.044 123.502  0.00  0.00    +0.000 C 
ATOM     27  O   UNL     1      -8.428  -2.462 122.578  0.00  0.00    +0.000 OA
BRANCH  26  28
ATOM     28  O   UNL     1     -10.245  -3.501 123.371  0.00  0.00    +0.000 OA
ATOM     29  H   UNL     1     -10.934  -3.095 123.926  0.00  0.00    +0.000 HD
ENDBRANCH  26  28
ENDBRANCH  25  26
ENDBRANCH  24  25
ENDBRANCH  23  24
ENDBRANCH  22  23
ENDBRANCH  21  22
ENDBRANCH  20  21
ENDBRANCH  19  20
ENDBRANCH  18  19
ENDBRANCH  17  18
ENDBRANCH  15  17
ENDBRANCH  14  15
ENDBRANCH  11  12
ENDBRANCH   4  11
BRANCH   1  30
ATOM     30  C   UNL     1      -8.836   5.137 129.908  0.00  0.00    +0.000 C 
BRANCH  30  33
ATOM     31  C   UNL     1     -10.953   6.717 129.168  0.00  0.00    +0.000 C 
ATOM     32  O   UNL     1     -10.895   6.453 130.574  0.00  0.00    +0.000 OA
ATOM     33  C   UNL     1      -9.629   6.415 129.925  0.00  0.00    +0.000 C 
BRANCH  31  34
ATOM     34  C   UNL     1     -11.046   8.098 128.584  0.00  0.00    +0.000 C 
ATOM     35  C   UNL     1     -10.828   8.006 127.042  0.00  0.00    +0.000 C 
BRANCH  34  37
ATOM     36  C   UNL     1     -13.541   8.418 128.087  0.00  0.00    +0.000 C 
ATOM     37  C   UNL     1     -12.353   8.861 128.938  0.00  0.00    +0.000 C 
BRANCH  37  38
ATOM     38  O   UNL     1     -12.700   8.786 130.318  0.00  0.00    +0.000 OA
ATOM     39  H   UNL     1     -12.334   7.972 130.703  0.00  0.00    +0.000 HD
ENDBRANCH  37  38
ENDBRANCH  34  37
ENDBRANCH  31  34
ENDBRANCH  30  33
ENDBRANCH   1  30
TORSDOF 21
ENDMDL
MODEL 7
REMARK VINA RESULT:      -6.2      3.045      6.208
REMARK  Name = Mupirocin
REMARK  24 active torsions:
REMARK  status: ('A' for Active; 'I' for Inactive)
REMARK    1  A    between atoms: C_1  and  C_2
REMARK    2  A    between atoms: C_2  and  O_3
REMARK    3  A    between atoms: C_2  and  C_4
REMARK    4  A    between atoms: C_4  and  C_5
REMARK    5  A    between atoms: C_4  and  C_6
REMARK    6  A    between atoms: C_8  and  C_9
REMARK    7  A    between atoms: C_9  and  C_10
REMARK    8  A    between atoms: C_13  and  C_14
REMARK    9  A    between atoms: C_14  and  C_15
REMARK   10  A    between atoms: C_15  and  C_16
REMARK   11  A    between atoms: C_17  and  C_18
REMARK   12  A    between atoms: C_18  and  O_20
REMARK   13  A    between atoms: O_20  and  C_21
REMARK   14  A    between atoms: C_21  and  C_22
REMARK   15  A    between atoms: C_22  and  C_23
REMARK   16  A    between atoms: C_23  and  C_24
REMARK   17  A    between atoms: C_24  and  C_25
REMARK   18  A    between atoms: C_25  and  C_26
REMARK   19  A    between atoms: C_26  and  C_27
REMARK   20  A    between atoms: C_27  and  C_28
REMARK   21  A    between atoms: C_28  and  C_29
REMARK   22  A    between atoms: C_29  and  O_30
REMARK   23  A    between atoms: C_32  and  O_33
REMARK   24  A    between atoms: C_34  and  O_35
REMARK                            x       y       z     vdW  Elec       q    Type
REMARK                         _______ _______ _______ _____ _____    ______ ____
ROOT
ATOM      1  C   UNL     1      -8.889   3.780 132.321  0.00  0.00    +0.000 C 
ATOM      2  C   UNL     1      -9.805   3.010 131.375  0.00  0.00    +0.000 C 
ATOM      3  O   UNL     1      -9.674   1.622 131.550  0.00  0.00    +0.000 OA
ATOM      4  C   UNL     1      -8.381   1.178 131.153  0.00  0.00    +0.000 C 
ATOM      5  C   UNL     1      -7.301   1.879 132.027  0.00  0.00    +0.000 C 
ATOM      6  C   UNL     1      -7.446   3.406 131.935  0.00  0.00    +0.000 C 
ENDROOT
BRANCH   6   7
ATOM      7  O   UNL     1      -6.483   4.049 132.763  0.00  0.00    +0.000 OA
ATOM      8  H   UNL     1      -6.638   3.732 133.673  0.00  0.00    +0.000 HD
ENDBRANCH   6   7
BRANCH   5   9
ATOM      9  O   UNL     1      -7.407   1.457 133.398  0.00  0.00    +0.000 OA
ATOM     10  H   UNL     1      -7.321   2.250 133.959  0.00  0.00    +0.000 HD
ENDBRANCH   5   9
BRANCH   4  11
ATOM     11  C   UNL     1      -8.171   1.411 129.635  0.00  0.00    +0.000 C 
BRANCH  11  12
ATOM     12  C   UNL     1      -7.929   0.151 128.849  0.00  0.00    +0.000 C 
ATOM     13  C   UNL     1      -7.968   0.238 127.341  0.00  0.00    +0.000 C 
ATOM     14  C   UNL     1      -7.737  -1.034 129.474  0.00  0.00    +0.000 C 
BRANCH  14  15
ATOM     15  C   UNL     1      -7.544  -2.275 128.686  0.00  0.00    +0.000 C 
ATOM     16  O   UNL     1      -6.459  -2.673 128.263  0.00  0.00    +0.000 OA
BRANCH  15  17
ATOM     17  O   UNL     1      -8.709  -2.932 128.490  0.00  0.00    +0.000 OA
BRANCH  17  18
ATOM     18  C   UNL     1      -8.610  -3.785 127.336  0.00  0.00    +0.000 C 
BRANCH  18  19
ATOM     19  C   UNL     1      -9.293  -3.127 126.153  0.00  0.00    +0.000 C 
BRANCH  19  20
ATOM     20  C   UNL     1      -8.391  -3.139 124.923  0.00  0.00    +0.000 C 
BRANCH  20  21
ATOM     21  C   UNL     1      -9.219  -2.940 123.660  0.00  0.00    +0.000 C 
BRANCH  21  22
ATOM     22  C   UNL     1      -8.777  -1.685 122.923  0.00  0.00    +0.000 C 
BRANCH  22  23
ATOM     23  C   UNL     1      -7.454  -1.178 123.484  0.00  0.00    +0.000 C 
BRANCH  23  24
ATOM     24  C   UNL     1      -7.479   0.341 123.543  0.00  0.00    +0.000 C 
BRANCH  24  25
ATOM     25  C   UNL     1      -8.889   0.879 123.719  0.00  0.00    +0.000 C 
BRANCH  25  26
ATOM     26  C   UNL     1      -9.010   2.386 123.702  0.00  0.00    +0.000 C 
ATOM     27  O   UNL     1      -8.648   3.051 122.738  0.00  0.00    +0.000 OA
BRANCH  26  28
ATOM     28  O   UNL     1      -9.537   2.978 124.792  0.00  0.00    +0.000 OA
ATOM     29  H   UNL     1      -9.682   2.427 125.581  0.00  0.00    +0.000 HD
ENDBRANCH  26  28
ENDBRANCH  25  26
ENDBRANCH  24  25
ENDBRANCH  23  24
ENDBRANCH  22  23
ENDBRANCH  21  22
ENDBRANCH  20  21
ENDBRANCH  19  20
ENDBRANCH  18  19
ENDBRANCH  17  18
ENDBRANCH  15  17
ENDBRANCH  14  15
ENDBRANCH  11  12
ENDBRANCH   4  11
BRANCH   1  30
ATOM     30  C   UNL     1      -9.218   5.249 132.175  0.00  0.00    +0.000 C 
BRANCH  30  33
ATOM     31  C   UNL     1     -10.336   7.034 130.417  0.00  0.00    +0.000 C 
ATOM     32  O   UNL     1      -9.235   6.301 129.871  0.00  0.00    +0.000 OA
ATOM     33  C   UNL     1      -9.933   5.613 130.903  0.00  0.00    +0.000 C 
BRANCH  31  34
ATOM     34  C   UNL     1     -11.686   7.121 129.763  0.00  0.00    +0.000 C 
ATOM     35  C   UNL     1     -12.743   7.504 130.843  0.00  0.00    +0.000 C 
BRANCH  34  37
ATOM     36  C   UNL     1     -12.854   9.113 128.650  0.00  0.00    +0.000 C 
ATOM     37  C   UNL     1     -11.747   8.068 128.533  0.00  0.00    +0.000 C 
BRANCH  37  38
ATOM     38  O   UNL     1     -10.509   8.714 128.249  0.00  0.00    +0.000 OA
ATOM     39  H   UNL     1     -10.636   9.678 128.251  0.00  0.00    +0.000 HD
ENDBRANCH  37  38
ENDBRANCH  34  37
ENDBRANCH  31  34
ENDBRANCH  30  33
ENDBRANCH   1  30
TORSDOF 21
ENDMDL
MODEL 8
REMARK VINA RESULT:      -6.2      2.872      7.955
REMARK  Name = Mupirocin
REMARK  24 active torsions:
REMARK  status: ('A' for Active; 'I' for Inactive)
REMARK    1  A    between atoms: C_1  and  C_2
REMARK    2  A    between atoms: C_2  and  O_3
REMARK    3  A    between atoms: C_2  and  C_4
REMARK    4  A    between atoms: C_4  and  C_5
REMARK    5  A    between atoms: C_4  and  C_6
REMARK    6  A    between atoms: C_8  and  C_9
REMARK    7  A    between atoms: C_9  and  C_10
REMARK    8  A    between atoms: C_13  and  C_14
REMARK    9  A    between atoms: C_14  and  C_15
REMARK   10  A    between atoms: C_15  and  C_16
REMARK   11  A    between atoms: C_17  and  C_18
REMARK   12  A    between atoms: C_18  and  O_20
REMARK   13  A    between atoms: O_20  and  C_21
REMARK   14  A    between atoms: C_21  and  C_22
REMARK   15  A    between atoms: C_22  and  C_23
REMARK   16  A    between atoms: C_23  and  C_24
REMARK   17  A    between atoms: C_24  and  C_25
REMARK   18  A    between atoms: C_25  and  C_26
REMARK   19  A    between atoms: C_26  and  C_27
REMARK   20  A    between atoms: C_27  and  C_28
REMARK   21  A    between atoms: C_28  and  C_29
REMARK   22  A    between atoms: C_29  and  O_30
REMARK   23  A    between atoms: C_32  and  O_33
REMARK   24  A    between atoms: C_34  and  O_35
REMARK                            x       y       z     vdW  Elec       q    Type
REMARK                         _______ _______ _______ _____ _____    ______ ____
ROOT
ATOM      1  C   UNL     1      -7.697   0.245 123.625  0.00  0.00    +0.000 C 
ATOM      2  C   UNL     1      -6.820   0.154 124.870  0.00  0.00    +0.000 C 
ATOM      3  O   UNL     1      -6.439  -1.172 125.133  0.00  0.00    +0.000 OA
ATOM      4  C   UNL     1      -7.565  -1.963 125.494  0.00  0.00    +0.000 C 
ATOM      5  C   UNL     1      -8.586  -1.980 124.320  0.00  0.00    +0.000 C 
ATOM      6  C   UNL     1      -8.982  -0.545 123.935  0.00  0.00    +0.000 C 
ENDROOT
BRANCH   6   7
ATOM      7  O   UNL     1      -9.887  -0.556 122.836  0.00  0.00    +0.000 OA
ATOM      8  H   UNL     1      -9.718   0.259 122.325  0.00  0.00    +0.000 HD
ENDBRANCH   6   7
BRANCH   5   9
ATOM      9  O   UNL     1      -8.035  -2.660 123.179  0.00  0.00    +0.000 OA
ATOM     10  H   UNL     1      -7.077  -2.761 123.329  0.00  0.00    +0.000 HD
ENDBRANCH   5   9
BRANCH   4  11
ATOM     11  C   UNL     1      -8.182  -1.455 126.821  0.00  0.00    +0.000 C 
BRANCH  11  12
ATOM     12  C   UNL     1      -7.468  -1.936 128.055  0.00  0.00    +0.000 C 
ATOM     13  C   UNL     1      -6.135  -1.309 128.391  0.00  0.00    +0.000 C 
ATOM     14  C   UNL     1      -7.977  -2.937 128.808  0.00  0.00    +0.000 C 
BRANCH  14  15
ATOM     15  C   UNL     1      -7.240  -3.432 129.996  0.00  0.00    +0.000 C 
ATOM     16  O   UNL     1      -6.244  -4.155 129.950  0.00  0.00    +0.000 OA
BRANCH  15  17
ATOM     17  O   UNL     1      -7.788  -2.988 131.149  0.00  0.00    +0.000 OA
BRANCH  17  18
ATOM     18  C   UNL     1      -6.820  -2.236 131.902  0.00  0.00    +0.000 C 
BRANCH  18  19
ATOM     19  C   UNL     1      -7.511  -1.103 132.635  0.00  0.00    +0.000 C 
BRANCH  19  20
ATOM     20  C   UNL     1      -8.433  -0.326 131.699  0.00  0.00    +0.000 C 
BRANCH  20  21
ATOM     21  C   UNL     1      -7.624   0.643 130.847  0.00  0.00    +0.000 C 
BRANCH  21  22
ATOM     22  C   UNL     1      -8.156   2.060 130.996  0.00  0.00    +0.000 C 
BRANCH  22  23
ATOM     23  C   UNL     1      -9.066   2.411 129.825  0.00  0.00    +0.000 C 
BRANCH  23  24
ATOM     24  C   UNL     1      -8.486   1.836 128.543  0.00  0.00    +0.000 C 
BRANCH  24  25
ATOM     25  C   UNL     1      -7.369   2.702 127.987  0.00  0.00    +0.000 C 
BRANCH  25  26
ATOM     26  C   UNL     1      -7.616   4.193 128.055  0.00  0.00    +0.000 C 
ATOM     27  O   UNL     1      -8.445   4.742 127.338  0.00  0.00    +0.000 OA
BRANCH  26  28
ATOM     28  O   UNL     1      -6.888   4.902 128.940  0.00  0.00    +0.000 OA
ATOM     29  H   UNL     1      -7.368   5.417 129.612  0.00  0.00    +0.000 HD
ENDBRANCH  26  28
ENDBRANCH  25  26
ENDBRANCH  24  25
ENDBRANCH  23  24
ENDBRANCH  22  23
ENDBRANCH  21  22
ENDBRANCH  20  21
ENDBRANCH  19  20
ENDBRANCH  18  19
ENDBRANCH  17  18
ENDBRANCH  15  17
ENDBRANCH  14  15
ENDBRANCH  11  12
ENDBRANCH   4  11
BRANCH   1  30
ATOM     30  C   UNL     1      -7.918   1.713 123.331  0.00  0.00    +0.000 C 
BRANCH  30  33
ATOM     31  C   UNL     1      -6.937   3.753 121.784  0.00  0.00    +0.000 C 
ATOM     32  O   UNL     1      -6.097   3.416 122.892  0.00  0.00    +0.000 OA
ATOM     33  C   UNL     1      -6.896   2.337 122.422  0.00  0.00    +0.000 C 
BRANCH  31  34
ATOM     34  C   UNL     1      -6.453   3.822 120.362  0.00  0.00    +0.000 C 
ATOM     35  C   UNL     1      -7.662   4.155 119.436  0.00  0.00    +0.000 C 
BRANCH  34  37
ATOM     36  C   UNL     1      -5.573   5.864 119.087  0.00  0.00    +0.000 C 
ATOM     37  C   UNL     1      -5.263   4.794 120.132  0.00  0.00    +0.000 C 
BRANCH  37  38
ATOM     38  O   UNL     1      -4.795   5.415 121.326  0.00  0.00    +0.000 OA
ATOM     39  H   UNL     1      -3.823   5.390 121.348  0.00  0.00    +0.000 HD
ENDBRANCH  37  38
ENDBRANCH  34  37
ENDBRANCH  31  34
ENDBRANCH  30  33
ENDBRANCH   1  30
TORSDOF 21
ENDMDL
MODEL 9
REMARK VINA RESULT:      -6.1      2.906      8.839
REMARK  Name = Mupirocin
REMARK  24 active torsions:
REMARK  status: ('A' for Active; 'I' for Inactive)
REMARK    1  A    between atoms: C_1  and  C_2
REMARK    2  A    between atoms: C_2  and  O_3
REMARK    3  A    between atoms: C_2  and  C_4
REMARK    4  A    between atoms: C_4  and  C_5
REMARK    5  A    between atoms: C_4  and  C_6
REMARK    6  A    between atoms: C_8  and  C_9
REMARK    7  A    between atoms: C_9  and  C_10
REMARK    8  A    between atoms: C_13  and  C_14
REMARK    9  A    between atoms: C_14  and  C_15
REMARK   10  A    between atoms: C_15  and  C_16
REMARK   11  A    between atoms: C_17  and  C_18
REMARK   12  A    between atoms: C_18  and  O_20
REMARK   13  A    between atoms: O_20  and  C_21
REMARK   14  A    between atoms: C_21  and  C_22
REMARK   15  A    between atoms: C_22  and  C_23
REMARK   16  A    between atoms: C_23  and  C_24
REMARK   17  A    between atoms: C_24  and  C_25
REMARK   18  A    between atoms: C_25  and  C_26
REMARK   19  A    between atoms: C_26  and  C_27
REMARK   20  A    between atoms: C_27  and  C_28
REMARK   21  A    between atoms: C_28  and  C_29
REMARK   22  A    between atoms: C_29  and  O_30
REMARK   23  A    between atoms: C_32  and  O_33
REMARK   24  A    between atoms: C_34  and  O_35
REMARK                            x       y       z     vdW  Elec       q    Type
REMARK                         _______ _______ _______ _____ _____    ______ ____
ROOT
ATOM      1  C   UNL     1      -6.377   4.370 125.694  0.00  0.00    +0.000 C 
ATOM      2  C   UNL     1      -7.823   4.288 126.173  0.00  0.00    +0.000 C 
ATOM      3  O   UNL     1      -7.970   4.834 127.458  0.00  0.00    +0.000 OA
ATOM      4  C   UNL     1      -7.283   4.050 128.427  0.00  0.00    +0.000 C 
ATOM      5  C   UNL     1      -5.764   4.019 128.087  0.00  0.00    +0.000 C 
ATOM      6  C   UNL     1      -5.547   3.500 126.656  0.00  0.00    +0.000 C 
ENDROOT
BRANCH   6   7
ATOM      7  O   UNL     1      -4.161   3.507 126.329  0.00  0.00    +0.000 OA
ATOM      8  H   UNL     1      -3.980   4.358 125.886  0.00  0.00    +0.000 HD
ENDBRANCH   6   7
BRANCH   5   9
ATOM      9  O   UNL     1      -5.187   5.329 128.227  0.00  0.00    +0.000 OA
ATOM     10  H   UNL     1      -4.396   5.244 128.792  0.00  0.00    +0.000 HD
ENDBRANCH   5   9
BRANCH   4  11
ATOM     11  C   UNL     1      -7.907   2.635 128.520  0.00  0.00    +0.000 C 
BRANCH  11  12
ATOM     12  C   UNL     1      -8.682   2.389 129.786  0.00  0.00    +0.000 C 
ATOM     13  C   UNL     1      -9.918   3.222 130.033  0.00  0.00    +0.000 C 
ATOM     14  C   UNL     1      -8.255   1.488 130.701  0.00  0.00    +0.000 C 
BRANCH  14  15
ATOM     15  C   UNL     1      -9.004   1.288 131.964  0.00  0.00    +0.000 C 
ATOM     16  O   UNL     1     -10.069   0.677 132.056  0.00  0.00    +0.000 OA
BRANCH  15  17
ATOM     17  O   UNL     1      -8.374   1.854 133.017  0.00  0.00    +0.000 OA
BRANCH  17  18
ATOM     18  C   UNL     1      -9.077   3.035 133.441  0.00  0.00    +0.000 C 
BRANCH  18  19
ATOM     19  C   UNL     1      -8.083   4.130 133.775  0.00  0.00    +0.000 C 
BRANCH  19  20
ATOM     20  C   UNL     1      -7.729   4.946 132.536  0.00  0.00    +0.000 C 
BRANCH  20  21
ATOM     21  C   UNL     1      -8.746   6.062 132.330  0.00  0.00    +0.000 C 
BRANCH  21  22
ATOM     22  C   UNL     1      -8.687   6.584 130.903  0.00  0.00    +0.000 C 
BRANCH  22  23
ATOM     23  C   UNL     1     -10.046   7.130 130.482  0.00  0.00    +0.000 C 
BRANCH  23  24
ATOM     24  C   UNL     1     -10.203   6.991 128.976  0.00  0.00    +0.000 C 
BRANCH  24  25
ATOM     25  C   UNL     1     -10.684   8.281 128.335  0.00  0.00    +0.000 C 
BRANCH  25  26
ATOM     26  C   UNL     1     -12.163   8.562 128.486  0.00  0.00    +0.000 C 
ATOM     27  O   UNL     1     -12.588   9.342 129.329  0.00  0.00    +0.000 OA
BRANCH  26  28
ATOM     28  O   UNL     1     -13.004   7.920 127.651  0.00  0.00    +0.000 OA
ATOM     29  H   UNL     1     -13.807   8.390 127.367  0.00  0.00    +0.000 HD
ENDBRANCH  26  28
ENDBRANCH  25  26
ENDBRANCH  24  25
ENDBRANCH  23  24
ENDBRANCH  22  23
ENDBRANCH  21  22
ENDBRANCH  20  21
ENDBRANCH  19  20
ENDBRANCH  18  19
ENDBRANCH  17  18
ENDBRANCH  15  17
ENDBRANCH  14  15
ENDBRANCH  11  12
ENDBRANCH   4  11
BRANCH   1  30
ATOM     30  C   UNL     1      -6.349   3.913 124.252  0.00  0.00    +0.000 C 
BRANCH  30  33
ATOM     31  C   UNL     1      -8.090   2.064 123.214  0.00  0.00    +0.000 C 
ATOM     32  O   UNL     1      -6.750   1.930 122.728  0.00  0.00    +0.000 OA
ATOM     33  C   UNL     1      -6.840   2.509 124.024  0.00  0.00    +0.000 C 
BRANCH  31  34
ATOM     34  C   UNL     1      -8.871   0.935 123.825  0.00  0.00    +0.000 C 
ATOM     35  C   UNL     1     -10.097   1.527 124.585  0.00  0.00    +0.000 C 
BRANCH  34  37
ATOM     36  C   UNL     1      -8.969  -1.578 123.324  0.00  0.00    +0.000 C 
ATOM     37  C   UNL     1      -9.295  -0.173 122.821  0.00  0.00    +0.000 C 
BRANCH  37  38
ATOM     38  O   UNL     1     -10.668  -0.108 122.446  0.00  0.00    +0.000 OA
ATOM     39  H   UNL     1     -11.226  -0.162 123.241  0.00  0.00    +0.000 HD
ENDBRANCH  37  38
ENDBRANCH  34  37
ENDBRANCH  31  34
ENDBRANCH  30  33
ENDBRANCH   1  30
TORSDOF 21
ENDMDL
