MODEL 1
REMARK VINA RESULT:      -7.0      0.000      0.000
REMARK  Name = Muzolimine
REMARK  3 active torsions:
REMARK  status: ('A' for Active; 'I' for Inactive)
REMARK    1  A    between atoms: C_1  and  C_2
REMARK    2  A    between atoms: C_2  and  N_3
REMARK    3  A    between atoms: C_2  and  C_10
REMARK                            x       y       z     vdW  Elec       q    Type
REMARK                         _______ _______ _______ _____ _____    ______ ____
ROOT
ATOM      1  C   UNL     1     -11.988   6.448 131.899  0.00  0.00    +0.000 C 
ATOM      2  C   UNL     1     -10.971   6.279 130.743  0.00  0.00    +0.000 C 
ENDROOT
BRANCH   2   3
ATOM      3  N   UNL     1     -11.243   7.281 129.666  0.00  0.00    +0.000 N 
ATOM      4  N   UNL     1     -11.984   8.412 129.893  0.00  0.00    +0.000 NA
ATOM      5  C   UNL     1     -12.291   8.961 128.770  0.00  0.00    +0.000 C 
ATOM      6  N   UNL     1     -13.065  10.070 128.670  0.00  0.00    +0.000 N 
ATOM      7  C   UNL     1     -11.728   8.203 127.615  0.00  0.00    +0.000 C 
ATOM      8  C   UNL     1     -10.815   7.235 128.337  0.00  0.00    +0.000 C 
ATOM      9  O   UNL     1      -9.951   6.536 127.826  0.00  0.00    +0.000 OA
ATOM     10  H   UNL     1     -13.380  10.518 129.526  0.00  0.00    +0.000 HD
ATOM     11  H   UNL     1     -13.311  10.507 127.794  0.00  0.00    +0.000 HD
ENDBRANCH   2   3
BRANCH   2  12
ATOM     12  C   UNL     1      -9.554   6.302 131.384  0.00  0.00    +0.000 A 
ATOM     13  C   UNL     1      -9.234   5.677 132.602  0.00  0.00    +0.000 A 
ATOM     14  C   UNL     1      -7.955   5.625 133.147  0.00  0.00    +0.000 A 
ATOM     15 CL   UNL     1      -7.775   4.786 134.649  0.00  0.00    +0.000 Cl
ATOM     16  C   UNL     1      -6.910   6.207 132.456  0.00  0.00    +0.000 A 
ATOM     17 CL   UNL     1      -5.296   6.168 133.058  0.00  0.00    +0.000 Cl
ATOM     18  C   UNL     1      -7.167   6.833 131.232  0.00  0.00    +0.000 A 
ATOM     19  C   UNL     1      -8.471   6.891 130.707  0.00  0.00    +0.000 A 
ENDBRANCH   2  12
TORSDOF 2
ENDMDL
MODEL 2
REMARK VINA RESULT:      -6.9     10.069     11.536
REMARK  Name = Muzolimine
REMARK  3 active torsions:
REMARK  status: ('A' for Active; 'I' for Inactive)
REMARK    1  A    between atoms: C_1  and  C_2
REMARK    2  A    between atoms: C_2  and  N_3
REMARK    3  A    between atoms: C_2  and  C_10
REMARK                            x       y       z     vdW  Elec       q    Type
REMARK                         _______ _______ _______ _____ _____    ______ ____
ROOT
ATOM      1  C   UNL     1      -9.010   2.692 124.356  0.00  0.00    +0.000 C 
ATOM      2  C   UNL     1      -7.817   1.953 123.701  0.00  0.00    +0.000 C 
ENDROOT
BRANCH   2   3
ATOM      3  N   UNL     1      -8.108   0.489 123.602  0.00  0.00    +0.000 N 
ATOM      4  N   UNL     1      -7.221  -0.462 124.038  0.00  0.00    +0.000 NA
ATOM      5  C   UNL     1      -7.582  -1.619 123.607  0.00  0.00    +0.000 C 
ATOM      6  N   UNL     1      -6.872  -2.752 123.832  0.00  0.00    +0.000 N 
ATOM      7  C   UNL     1      -8.838  -1.541 122.806  0.00  0.00    +0.000 C 
ATOM      8  C   UNL     1      -9.258  -0.114 123.085  0.00  0.00    +0.000 C 
ATOM      9  O   UNL     1     -10.347   0.383 122.837  0.00  0.00    +0.000 OA
ATOM     10  H   UNL     1      -6.038  -2.693 124.410  0.00  0.00    +0.000 HD
ATOM     11  H   UNL     1      -7.148  -3.664 123.499  0.00  0.00    +0.000 HD
ENDBRANCH   2   3
BRANCH   2  12
ATOM     12  C   UNL     1      -7.500   2.700 122.375  0.00  0.00    +0.000 A 
ATOM     13  C   UNL     1      -8.481   3.145 121.471  0.00  0.00    +0.000 A 
ATOM     14  C   UNL     1      -8.214   3.881 120.320  0.00  0.00    +0.000 A 
ATOM     15 CL   UNL     1      -9.572   4.348 119.356  0.00  0.00    +0.000 Cl
ATOM     16  C   UNL     1      -6.907   4.220 120.032  0.00  0.00    +0.000 A 
ATOM     17 CL   UNL     1      -6.500   5.144 118.636  0.00  0.00    +0.000 Cl
ATOM     18  C   UNL     1      -5.890   3.814 120.902  0.00  0.00    +0.000 A 
ATOM     19  C   UNL     1      -6.178   3.055 122.051  0.00  0.00    +0.000 A 
ENDBRANCH   2  12
TORSDOF 2
ENDMDL
MODEL 3
REMARK VINA RESULT:      -6.9      3.013      3.841
REMARK  Name = Muzolimine
REMARK  3 active torsions:
REMARK  status: ('A' for Active; 'I' for Inactive)
REMARK    1  A    between atoms: C_1  and  C_2
REMARK    2  A    between atoms: C_2  and  N_3
REMARK    3  A    between atoms: C_2  and  C_10
REMARK                            x       y       z     vdW  Elec       q    Type
REMARK                         _______ _______ _______ _____ _____    ______ ____
ROOT
ATOM      1  C   UNL     1      -7.813   6.733 131.164  0.00  0.00    +0.000 C 
ATOM      2  C   UNL     1      -9.235   6.274 131.573  0.00  0.00    +0.000 C 
ENDROOT
BRANCH   2   3
ATOM      3  N   UNL     1     -10.254   6.875 130.657  0.00  0.00    +0.000 N 
ATOM      4  N   UNL     1      -9.919   7.389 129.430  0.00  0.00    +0.000 NA
ATOM      5  C   UNL     1     -10.906   8.071 128.964  0.00  0.00    +0.000 C 
ATOM      6  N   UNL     1     -10.854   8.744 127.788  0.00  0.00    +0.000 N 
ATOM      7  C   UNL     1     -12.073   8.058 129.893  0.00  0.00    +0.000 C 
ATOM      8  C   UNL     1     -11.627   7.004 130.884  0.00  0.00    +0.000 C 
ATOM      9  O   UNL     1     -12.327   6.459 131.726  0.00  0.00    +0.000 OA
ATOM     10  H   UNL     1     -10.013   8.669 127.223  0.00  0.00    +0.000 HD
ATOM     11  H   UNL     1     -11.623   9.281 127.413  0.00  0.00    +0.000 HD
ENDBRANCH   2   3
BRANCH   2  12
ATOM     12  C   UNL     1      -9.198   4.722 131.662  0.00  0.00    +0.000 A 
ATOM     13  C   UNL     1      -8.949   3.878 130.565  0.00  0.00    +0.000 A 
ATOM     14  C   UNL     1      -8.838   2.494 130.648  0.00  0.00    +0.000 A 
ATOM     15 CL   UNL     1      -8.508   1.645 129.176  0.00  0.00    +0.000 Cl
ATOM     16  C   UNL     1      -8.961   1.885 131.881  0.00  0.00    +0.000 A 
ATOM     17 CL   UNL     1      -8.817   0.179 132.065  0.00  0.00    +0.000 Cl
ATOM     18  C   UNL     1      -9.197   2.676 133.010  0.00  0.00    +0.000 A 
ATOM     19  C   UNL     1      -9.325   4.073 132.904  0.00  0.00    +0.000 A 
ENDBRANCH   2  12
TORSDOF 2
ENDMDL
MODEL 4
REMARK VINA RESULT:      -6.7      9.731     10.414
REMARK  Name = Muzolimine
REMARK  3 active torsions:
REMARK  status: ('A' for Active; 'I' for Inactive)
REMARK    1  A    between atoms: C_1  and  C_2
REMARK    2  A    between atoms: C_2  and  N_3
REMARK    3  A    between atoms: C_2  and  C_10
REMARK                            x       y       z     vdW  Elec       q    Type
REMARK                         _______ _______ _______ _____ _____    ______ ____
ROOT
ATOM      1  C   UNL     1      -6.643  -1.822 122.535  0.00  0.00    +0.000 C 
ATOM      2  C   UNL     1      -6.813  -0.874 123.748  0.00  0.00    +0.000 C 
ENDROOT
BRANCH   2   3
ATOM      3  N   UNL     1      -7.622   0.323 123.358  0.00  0.00    +0.000 N 
ATOM      4  N   UNL     1      -7.049   1.547 123.130  0.00  0.00    +0.000 NA
ATOM      5  C   UNL     1      -7.965   2.449 123.073  0.00  0.00    +0.000 C 
ATOM      6  N   UNL     1      -7.701   3.769 122.908  0.00  0.00    +0.000 N 
ATOM      7  C   UNL     1      -9.325   1.864 123.253  0.00  0.00    +0.000 C 
ATOM      8  C   UNL     1      -9.005   0.387 123.173  0.00  0.00    +0.000 C 
ATOM      9  O   UNL     1      -9.812  -0.523 123.043  0.00  0.00    +0.000 OA
ATOM     10  H   UNL     1      -6.735   4.056 122.775  0.00  0.00    +0.000 HD
ATOM     11  H   UNL     1      -8.412   4.483 122.861  0.00  0.00    +0.000 HD
ENDBRANCH   2   3
BRANCH   2  12
ATOM     12  C   UNL     1      -7.354  -1.738 124.922  0.00  0.00    +0.000 A 
ATOM     13  C   UNL     1      -7.327  -1.336 126.269  0.00  0.00    +0.000 A 
ATOM     14  C   UNL     1      -7.877  -2.067 127.319  0.00  0.00    +0.000 A 
ATOM     15 CL   UNL     1      -7.753  -1.380 128.902  0.00  0.00    +0.000 Cl
ATOM     16  C   UNL     1      -8.510  -3.262 127.042  0.00  0.00    +0.000 A 
ATOM     17 CL   UNL     1      -9.231  -4.212 128.285  0.00  0.00    +0.000 Cl
ATOM     18  C   UNL     1      -8.578  -3.706 125.717  0.00  0.00    +0.000 A 
ATOM     19  C   UNL     1      -7.999  -2.963 124.672  0.00  0.00    +0.000 A 
ENDBRANCH   2  12
TORSDOF 2
ENDMDL
MODEL 5
REMARK VINA RESULT:      -6.7      1.856      2.295
REMARK  Name = Muzolimine
REMARK  3 active torsions:
REMARK  status: ('A' for Active; 'I' for Inactive)
REMARK    1  A    between atoms: C_1  and  C_2
REMARK    2  A    between atoms: C_2  and  N_3
REMARK    3  A    between atoms: C_2  and  C_10
REMARK                            x       y       z     vdW  Elec       q    Type
REMARK                         _______ _______ _______ _____ _____    ______ ____
ROOT
ATOM      1  C   UNL     1     -12.185   6.904 132.013  0.00  0.00    +0.000 C 
ATOM      2  C   UNL     1     -11.984   6.404 130.561  0.00  0.00    +0.000 C 
ENDROOT
BRANCH   2   3
ATOM      3  N   UNL     1     -12.337   7.485 129.589  0.00  0.00    +0.000 N 
ATOM      4  N   UNL     1     -12.515   8.787 129.981  0.00  0.00    +0.000 NA
ATOM      5  C   UNL     1     -13.062   9.455 129.026  0.00  0.00    +0.000 C 
ATOM      6  N   UNL     1     -13.409  10.761 129.135  0.00  0.00    +0.000 N 
ATOM      7  C   UNL     1     -13.296   8.604 127.824  0.00  0.00    +0.000 C 
ATOM      8  C   UNL     1     -12.530   7.357 128.212  0.00  0.00    +0.000 C 
ATOM      9  O   UNL     1     -12.225   6.434 127.470  0.00  0.00    +0.000 OA
ATOM     10  H   UNL     1     -13.184  11.251 129.996  0.00  0.00    +0.000 HD
ATOM     11  H   UNL     1     -13.837  11.293 128.392  0.00  0.00    +0.000 HD
ENDBRANCH   2   3
BRANCH   2  12
ATOM     12  C   UNL     1     -10.542   5.827 130.480  0.00  0.00    +0.000 A 
ATOM     13  C   UNL     1      -9.381   6.582 130.724  0.00  0.00    +0.000 A 
ATOM     14  C   UNL     1      -8.091   6.060 130.729  0.00  0.00    +0.000 A 
ATOM     15 CL   UNL     1      -6.801   7.160 131.074  0.00  0.00    +0.000 Cl
ATOM     16  C   UNL     1      -7.914   4.710 130.496  0.00  0.00    +0.000 A 
ATOM     17 CL   UNL     1      -6.351   3.988 130.506  0.00  0.00    +0.000 Cl
ATOM     18  C   UNL     1      -9.035   3.908 130.260  0.00  0.00    +0.000 A 
ATOM     19  C   UNL     1     -10.331   4.458 130.239  0.00  0.00    +0.000 A 
ENDBRANCH   2  12
TORSDOF 2
ENDMDL
MODEL 6
REMARK VINA RESULT:      -6.4      9.487     10.053
REMARK  Name = Muzolimine
REMARK  3 active torsions:
REMARK  status: ('A' for Active; 'I' for Inactive)
REMARK    1  A    between atoms: C_1  and  C_2
REMARK    2  A    between atoms: C_2  and  N_3
REMARK    3  A    between atoms: C_2  and  C_10
REMARK                            x       y       z     vdW  Elec       q    Type
REMARK                         _______ _______ _______ _____ _____    ______ ____
ROOT
ATOM      1  C   UNL     1      -9.284  -3.138 124.418  0.00  0.00    +0.000 C 
ATOM      2  C   UNL     1      -8.092  -2.261 124.874  0.00  0.00    +0.000 C 
ENDROOT
BRANCH   2   3
ATOM      3  N   UNL     1      -8.374  -0.819 124.588  0.00  0.00    +0.000 N 
ATOM      4  N   UNL     1      -9.647  -0.310 124.599  0.00  0.00    +0.000 NA
ATOM      5  C   UNL     1      -9.646   0.865 124.073  0.00  0.00    +0.000 C 
ATOM      6  N   UNL     1     -10.771   1.602 123.897  0.00  0.00    +0.000 N 
ATOM      7  C   UNL     1      -8.276   1.279 123.652  0.00  0.00    +0.000 C 
ATOM      8  C   UNL     1      -7.448   0.181 124.285  0.00  0.00    +0.000 C 
ATOM      9  O   UNL     1      -6.232   0.179 124.422  0.00  0.00    +0.000 OA
ATOM     10  H   UNL     1     -11.652   1.230 124.241  0.00  0.00    +0.000 HD
ATOM     11  H   UNL     1     -10.780   2.524 123.486  0.00  0.00    +0.000 HD
ENDBRANCH   2   3
BRANCH   2  12
ATOM     12  C   UNL     1      -7.794  -2.641 126.352  0.00  0.00    +0.000 A 
ATOM     13  C   UNL     1      -6.619  -2.278 127.033  0.00  0.00    +0.000 A 
ATOM     14  C   UNL     1      -6.375  -2.546 128.377  0.00  0.00    +0.000 A 
ATOM     15 CL   UNL     1      -4.869  -1.992 129.026  0.00  0.00    +0.000 Cl
ATOM     16  C   UNL     1      -7.342  -3.198 129.115  0.00  0.00    +0.000 A 
ATOM     17 CL   UNL     1      -7.120  -3.548 130.787  0.00  0.00    +0.000 Cl
ATOM     18  C   UNL     1      -8.537  -3.572 128.493  0.00  0.00    +0.000 A 
ATOM     19  C   UNL     1      -8.758  -3.310 127.128  0.00  0.00    +0.000 A 
ENDBRANCH   2  12
TORSDOF 2
ENDMDL
MODEL 7
REMARK VINA RESULT:      -6.4      4.242      5.987
REMARK  Name = Muzolimine
REMARK  3 active torsions:
REMARK  status: ('A' for Active; 'I' for Inactive)
REMARK    1  A    between atoms: C_1  and  C_2
REMARK    2  A    between atoms: C_2  and  N_3
REMARK    3  A    between atoms: C_2  and  C_10
REMARK                            x       y       z     vdW  Elec       q    Type
REMARK                         _______ _______ _______ _____ _____    ______ ____
ROOT
ATOM      1  C   UNL     1      -9.175   5.314 133.159  0.00  0.00    +0.000 C 
ATOM      2  C   UNL     1      -9.036   5.294 131.617  0.00  0.00    +0.000 C 
ENDROOT
BRANCH   2   3
ATOM      3  N   UNL     1      -9.106   3.888 131.110  0.00  0.00    +0.000 N 
ATOM      4  N   UNL     1      -9.457   2.838 131.920  0.00  0.00    +0.000 NA
ATOM      5  C   UNL     1      -9.189   1.728 131.327  0.00  0.00    +0.000 C 
ATOM      6  N   UNL     1      -9.379   0.514 131.901  0.00  0.00    +0.000 N 
ATOM      7  C   UNL     1      -8.612   1.953 129.970  0.00  0.00    +0.000 C 
ATOM      8  C   UNL     1      -8.843   3.440 129.813  0.00  0.00    +0.000 C 
ATOM      9  O   UNL     1      -8.747   4.083 128.777  0.00  0.00    +0.000 OA
ATOM     10  H   UNL     1      -9.798   0.476 132.826  0.00  0.00    +0.000 HD
ATOM     11  H   UNL     1      -9.172  -0.362 131.444  0.00  0.00    +0.000 HD
ENDBRANCH   2   3
BRANCH   2  12
ATOM     12  C   UNL     1     -10.086   6.297 131.058  0.00  0.00    +0.000 A 
ATOM     13  C   UNL     1      -9.920   7.022 129.864  0.00  0.00    +0.000 A 
ATOM     14  C   UNL     1     -10.884   7.863 129.316  0.00  0.00    +0.000 A 
ATOM     15 CL   UNL     1     -10.484   8.646 127.826  0.00  0.00    +0.000 Cl
ATOM     16  C   UNL     1     -12.097   8.000 129.960  0.00  0.00    +0.000 A 
ATOM     17 CL   UNL     1     -13.345   9.007 129.332  0.00  0.00    +0.000 Cl
ATOM     18  C   UNL     1     -12.323   7.292 131.146  0.00  0.00    +0.000 A 
ATOM     19  C   UNL     1     -11.329   6.461 131.695  0.00  0.00    +0.000 A 
ENDBRANCH   2  12
TORSDOF 2
ENDMDL
MODEL 8
REMARK VINA RESULT:      -6.3     10.125     10.830
REMARK  Name = Muzolimine
REMARK  3 active torsions:
REMARK  status: ('A' for Active; 'I' for Inactive)
REMARK    1  A    between atoms: C_1  and  C_2
REMARK    2  A    between atoms: C_2  and  N_3
REMARK    3  A    between atoms: C_2  and  C_10
REMARK                            x       y       z     vdW  Elec       q    Type
REMARK                         _______ _______ _______ _____ _____    ______ ____
ROOT
ATOM      1  C   UNL     1      -6.954   0.121 126.966  0.00  0.00    +0.000 C 
ATOM      2  C   UNL     1      -7.789  -1.183 126.949  0.00  0.00    +0.000 C 
ENDROOT
BRANCH   2   3
ATOM      3  N   UNL     1      -7.866  -1.729 125.558  0.00  0.00    +0.000 N 
ATOM      4  N   UNL     1      -6.824  -1.618 124.673  0.00  0.00    +0.000 NA
ATOM      5  C   UNL     1      -7.228  -1.922 123.490  0.00  0.00    +0.000 C 
ATOM      6  N   UNL     1      -6.434  -1.856 122.392  0.00  0.00    +0.000 N 
ATOM      7  C   UNL     1      -8.670  -2.305 123.482  0.00  0.00    +0.000 C 
ATOM      8  C   UNL     1      -8.941  -2.399 124.968  0.00  0.00    +0.000 C 
ATOM      9  O   UNL     1      -9.925  -2.898 125.495  0.00  0.00    +0.000 OA
ATOM     10  H   UNL     1      -5.458  -1.600 122.516  0.00  0.00    +0.000 HD
ATOM     11  H   UNL     1      -6.742  -2.092 121.461  0.00  0.00    +0.000 HD
ENDBRANCH   2   3
BRANCH   2  12
ATOM     12  C   UNL     1      -7.189  -2.116 128.039  0.00  0.00    +0.000 A 
ATOM     13  C   UNL     1      -5.816  -2.393 128.165  0.00  0.00    +0.000 A 
ATOM     14  C   UNL     1      -5.260  -3.164 129.181  0.00  0.00    +0.000 A 
ATOM     15 CL   UNL     1      -3.542  -3.365 129.162  0.00  0.00    +0.000 Cl
ATOM     16  C   UNL     1      -6.090  -3.690 130.152  0.00  0.00    +0.000 A 
ATOM     17 CL   UNL     1      -5.473  -4.637 131.451  0.00  0.00    +0.000 Cl
ATOM     18  C   UNL     1      -7.463  -3.436 130.085  0.00  0.00    +0.000 A 
ATOM     19  C   UNL     1      -8.010  -2.670 129.038  0.00  0.00    +0.000 A 
ENDBRANCH   2  12
TORSDOF 2
ENDMDL
MODEL 9
REMARK VINA RESULT:      -6.3     10.205     10.966
REMARK  Name = Muzolimine
REMARK  3 active torsions:
REMARK  status: ('A' for Active; 'I' for Inactive)
REMARK    1  A    between atoms: C_1  and  C_2
REMARK    2  A    between atoms: C_2  and  N_3
REMARK    3  A    between atoms: C_2  and  C_10
REMARK                            x       y       z     vdW  Elec       q    Type
REMARK                         _______ _______ _______ _____ _____    ______ ____
ROOT
ATOM      1  C   UNL     1      -9.081  -0.280 125.531  0.00  0.00    +0.000 C 
ATOM      2  C   UNL     1      -8.745  -1.792 125.531  0.00  0.00    +0.000 C 
ENDROOT
BRANCH   2   3
ATOM      3  N   UNL     1      -7.777  -2.106 124.434  0.00  0.00    +0.000 N 
ATOM      4  N   UNL     1      -6.586  -2.743 124.673  0.00  0.00    +0.000 NA
ATOM      5  C   UNL     1      -5.834  -2.658 123.632  0.00  0.00    +0.000 C 
ATOM      6  N   UNL     1      -4.572  -3.149 123.583  0.00  0.00    +0.000 N 
ATOM      7  C   UNL     1      -6.510  -1.922 122.524  0.00  0.00    +0.000 C 
ATOM      8  C   UNL     1      -7.917  -1.823 123.073  0.00  0.00    +0.000 C 
ATOM      9  O   UNL     1      -8.917  -1.498 122.449  0.00  0.00    +0.000 OA
ATOM     10  H   UNL     1      -4.217  -3.652 124.392  0.00  0.00    +0.000 HD
ATOM     11  H   UNL     1      -3.975  -3.088 122.771  0.00  0.00    +0.000 HD
ENDBRANCH   2   3
BRANCH   2  12
ATOM     12  C   UNL     1      -8.310  -2.156 126.979  0.00  0.00    +0.000 A 
ATOM     13  C   UNL     1      -7.615  -1.279 127.833  0.00  0.00    +0.000 A 
ATOM     14  C   UNL     1      -7.288  -1.565 129.155  0.00  0.00    +0.000 A 
ATOM     15 CL   UNL     1      -6.447  -0.337 130.038  0.00  0.00    +0.000 Cl
ATOM     16  C   UNL     1      -7.673  -2.778 129.692  0.00  0.00    +0.000 A 
ATOM     17 CL   UNL     1      -7.321  -3.194 131.326  0.00  0.00    +0.000 Cl
ATOM     18  C   UNL     1      -8.378  -3.684 128.893  0.00  0.00    +0.000 A 
ATOM     19  C   UNL     1      -8.683  -3.385 127.552  0.00  0.00    +0.000 A 
ENDBRANCH   2  12
TORSDOF 2
ENDMDL
