MODEL 1
REMARK VINA RESULT:      -7.3      0.000      0.000
REMARK  Name = Mycophenolic acid
REMARK  11 active torsions:
REMARK  status: ('A' for Active; 'I' for Inactive)
REMARK    1  A    between atoms: C_1  and  O_2
REMARK    2  A    between atoms: O_2  and  C_3
REMARK    3  A    between atoms: C_4  and  C_5
REMARK    4  A    between atoms: C_5  and  C_6
REMARK    5  A    between atoms: C_7  and  C_8
REMARK    6  A    between atoms: C_7  and  C_9
REMARK    7  A    between atoms: C_9  and  C_10
REMARK    8  A    between atoms: C_10  and  C_11
REMARK    9  A    between atoms: C_11  and  O_12
REMARK   10  A    between atoms: C_14  and  O_15
REMARK   11  A    between atoms: C_22  and  C_23
REMARK                            x       y       z     vdW  Elec       q    Type
REMARK                         _______ _______ _______ _____ _____    ______ ____
ROOT
ATOM      1  C   UNL     1      -8.641  -0.854 123.885  0.00  0.00    +0.000 A 
ATOM      2  C   UNL     1      -8.216   0.241 124.684  0.00  0.00    +0.000 A 
ATOM      3  C   UNL     1      -7.829  -0.026 126.024  0.00  0.00    +0.000 A 
ATOM      4  C   UNL     1      -8.004  -1.300 126.545  0.00  0.00    +0.000 A 
ATOM      5  C   UNL     1      -7.705  -1.828 127.886  0.00  0.00    +0.000 C 
ATOM      6  O   UNL     1      -7.069  -1.325 128.777  0.00  0.00    +0.000 OA
ATOM      7  O   UNL     1      -8.283  -3.074 127.936  0.00  0.00    +0.000 OA
ATOM      8  C   UNL     1      -8.640  -3.536 126.626  0.00  0.00    +0.000 C 
ATOM      9  C   UNL     1      -8.564  -2.315 125.798  0.00  0.00    +0.000 A 
ATOM     10  C   UNL     1      -8.904  -2.116 124.466  0.00  0.00    +0.000 A 
ATOM     11  C   UNL     1      -9.564  -3.197 123.659  0.00  0.00    +0.000 C 
ENDROOT
BRANCH   1  13
ATOM     12  C   UNL     1     -10.110  -0.010 122.184  0.00  0.00    +0.000 C 
ATOM     13  O   UNL     1      -8.964  -0.784 122.551  0.00  0.00    +0.000 OA
ENDBRANCH   1  13
BRANCH   3  14
ATOM     14  O   UNL     1      -7.307   0.929 126.849  0.00  0.00    +0.000 OA
ATOM     15  H   UNL     1      -7.906   1.678 126.980  0.00  0.00    +0.000 HD
ENDBRANCH   3  14
BRANCH   2  16
ATOM     16  C   UNL     1      -8.190   1.684 124.204  0.00  0.00    +0.000 C 
BRANCH  16  17
ATOM     17  C   UNL     1      -7.019   2.114 123.350  0.00  0.00    +0.000 C 
ATOM     18  C   UNL     1      -7.098   3.065 122.402  0.00  0.00    +0.000 C 
ATOM     19  C   UNL     1      -8.397   3.294 121.696  0.00  0.00    +0.000 C 
BRANCH  18  20
ATOM     20  C   UNL     1      -5.864   3.864 122.013  0.00  0.00    +0.000 C 
BRANCH  20  21
ATOM     21  C   UNL     1      -5.655   3.973 120.515  0.00  0.00    +0.000 C 
BRANCH  21  22
ATOM     22  C   UNL     1      -5.222   5.309 119.972  0.00  0.00    +0.000 C 
ATOM     23  O   UNL     1      -4.602   6.101 120.671  0.00  0.00    +0.000 OA
BRANCH  22  24
ATOM     24  O   UNL     1      -5.522   5.600 118.694  0.00  0.00    +0.000 OA
ATOM     25  H   UNL     1      -5.260   6.466 118.340  0.00  0.00    +0.000 HD
ENDBRANCH  22  24
ENDBRANCH  21  22
ENDBRANCH  20  21
ENDBRANCH  18  20
ENDBRANCH  16  17
ENDBRANCH   2  16
TORSDOF 8
ENDMDL
MODEL 2
REMARK VINA RESULT:      -7.2      8.565     10.249
REMARK  Name = Mycophenolic acid
REMARK  11 active torsions:
REMARK  status: ('A' for Active; 'I' for Inactive)
REMARK    1  A    between atoms: C_1  and  O_2
REMARK    2  A    between atoms: O_2  and  C_3
REMARK    3  A    between atoms: C_4  and  C_5
REMARK    4  A    between atoms: C_5  and  C_6
REMARK    5  A    between atoms: C_7  and  C_8
REMARK    6  A    between atoms: C_7  and  C_9
REMARK    7  A    between atoms: C_9  and  C_10
REMARK    8  A    between atoms: C_10  and  C_11
REMARK    9  A    between atoms: C_11  and  O_12
REMARK   10  A    between atoms: C_14  and  O_15
REMARK   11  A    between atoms: C_22  and  C_23
REMARK                            x       y       z     vdW  Elec       q    Type
REMARK                         _______ _______ _______ _____ _____    ______ ____
ROOT
ATOM      1  C   UNL     1      -8.256   4.763 132.985  0.00  0.00    +0.000 A 
ATOM      2  C   UNL     1      -8.750   5.839 132.200  0.00  0.00    +0.000 A 
ATOM      3  C   UNL     1      -7.816   6.588 131.436  0.00  0.00    +0.000 A 
ATOM      4  C   UNL     1      -6.459   6.339 131.582  0.00  0.00    +0.000 A 
ATOM      5  C   UNL     1      -5.301   6.972 130.930  0.00  0.00    +0.000 C 
ATOM      6  O   UNL     1      -5.274   7.720 129.987  0.00  0.00    +0.000 OA
ATOM      7  O   UNL     1      -4.194   6.511 131.603  0.00  0.00    +0.000 OA
ATOM      8  C   UNL     1      -4.513   5.373 132.415  0.00  0.00    +0.000 C 
ATOM      9  C   UNL     1      -5.989   5.391 132.466  0.00  0.00    +0.000 A 
ATOM     10  C   UNL     1      -6.867   4.596 133.192  0.00  0.00    +0.000 A 
ATOM     11  C   UNL     1      -6.368   3.600 134.199  0.00  0.00    +0.000 C 
ENDROOT
BRANCH   1  13
ATOM     12  C   UNL     1      -9.526   2.727 133.042  0.00  0.00    +0.000 C 
ATOM     13  O   UNL     1      -9.030   3.890 133.710  0.00  0.00    +0.000 OA
ENDBRANCH   1  13
BRANCH   3  14
ATOM     14  O   UNL     1      -8.189   7.573 130.568  0.00  0.00    +0.000 OA
ATOM     15  H   UNL     1      -8.016   8.461 130.914  0.00  0.00    +0.000 HD
ENDBRANCH   3  14
BRANCH   2  16
ATOM     16  C   UNL     1     -10.211   6.263 132.162  0.00  0.00    +0.000 C 
BRANCH  16  17
ATOM     17  C   UNL     1     -11.059   5.740 131.025  0.00  0.00    +0.000 C 
ATOM     18  C   UNL     1     -12.089   6.420 130.489  0.00  0.00    +0.000 C 
ATOM     19  C   UNL     1     -12.855   7.383 131.340  0.00  0.00    +0.000 C 
BRANCH  18  20
ATOM     20  C   UNL     1     -12.504   6.173 129.048  0.00  0.00    +0.000 C 
BRANCH  20  21
ATOM     21  C   UNL     1     -12.197   7.330 128.118  0.00  0.00    +0.000 C 
BRANCH  21  22
ATOM     22  C   UNL     1     -10.783   7.460 127.618  0.00  0.00    +0.000 C 
ATOM     23  O   UNL     1      -9.962   8.142 128.220  0.00  0.00    +0.000 OA
BRANCH  22  24
ATOM     24  O   UNL     1     -10.443   6.794 126.501  0.00  0.00    +0.000 OA
ATOM     25  H   UNL     1      -9.740   6.124 126.554  0.00  0.00    +0.000 HD
ENDBRANCH  22  24
ENDBRANCH  21  22
ENDBRANCH  20  21
ENDBRANCH  18  20
ENDBRANCH  16  17
ENDBRANCH   2  16
TORSDOF 8
ENDMDL
MODEL 3
REMARK VINA RESULT:      -7.2      1.161      3.053
REMARK  Name = Mycophenolic acid
REMARK  11 active torsions:
REMARK  status: ('A' for Active; 'I' for Inactive)
REMARK    1  A    between atoms: C_1  and  O_2
REMARK    2  A    between atoms: O_2  and  C_3
REMARK    3  A    between atoms: C_4  and  C_5
REMARK    4  A    between atoms: C_5  and  C_6
REMARK    5  A    between atoms: C_7  and  C_8
REMARK    6  A    between atoms: C_7  and  C_9
REMARK    7  A    between atoms: C_9  and  C_10
REMARK    8  A    between atoms: C_10  and  C_11
REMARK    9  A    between atoms: C_11  and  O_12
REMARK   10  A    between atoms: C_14  and  O_15
REMARK   11  A    between atoms: C_22  and  C_23
REMARK                            x       y       z     vdW  Elec       q    Type
REMARK                         _______ _______ _______ _____ _____    ______ ____
ROOT
ATOM      1  C   UNL     1      -7.978   0.403 126.243  0.00  0.00    +0.000 A 
ATOM      2  C   UNL     1      -8.455   0.614 124.921  0.00  0.00    +0.000 A 
ATOM      3  C   UNL     1      -8.965  -0.505 124.212  0.00  0.00    +0.000 A 
ATOM      4  C   UNL     1      -8.860  -1.772 124.769  0.00  0.00    +0.000 A 
ATOM      5  C   UNL     1      -9.288  -3.079 124.244  0.00  0.00    +0.000 C 
ATOM      6  O   UNL     1      -9.993  -3.325 123.300  0.00  0.00    +0.000 OA
ATOM      7  O   UNL     1      -8.738  -4.018 125.085  0.00  0.00    +0.000 OA
ATOM      8  C   UNL     1      -8.272  -3.420 126.302  0.00  0.00    +0.000 C 
ATOM      9  C   UNL     1      -8.253  -1.976 125.990  0.00  0.00    +0.000 A 
ATOM     10  C   UNL     1      -7.791  -0.906 126.744  0.00  0.00    +0.000 A 
ATOM     11  C   UNL     1      -7.079  -1.120 128.049  0.00  0.00    +0.000 C 
ENDROOT
BRANCH   1  13
ATOM     12  C   UNL     1      -8.494   2.006 127.953  0.00  0.00    +0.000 C 
ATOM     13  O   UNL     1      -7.535   1.387 127.092  0.00  0.00    +0.000 OA
ENDBRANCH   1  13
BRANCH   3  14
ATOM     14  O   UNL     1      -9.544  -0.402 122.980  0.00  0.00    +0.000 OA
ATOM     15  H   UNL     1      -9.433  -1.202 122.447  0.00  0.00    +0.000 HD
ENDBRANCH   3  14
BRANCH   2  16
ATOM     16  C   UNL     1      -8.412   1.957 124.207  0.00  0.00    +0.000 C 
BRANCH  16  17
ATOM     17  C   UNL     1      -7.138   2.320 123.480  0.00  0.00    +0.000 C 
ATOM     18  C   UNL     1      -7.081   3.213 122.476  0.00  0.00    +0.000 C 
ATOM     19  C   UNL     1      -8.280   3.417 121.604  0.00  0.00    +0.000 C 
BRANCH  18  20
ATOM     20  C   UNL     1      -5.792   3.971 122.196  0.00  0.00    +0.000 C 
BRANCH  20  21
ATOM     21  C   UNL     1      -5.349   3.907 120.747  0.00  0.00    +0.000 C 
BRANCH  21  22
ATOM     22  C   UNL     1      -5.390   5.185 119.953  0.00  0.00    +0.000 C 
ATOM     23  O   UNL     1      -4.713   6.152 120.281  0.00  0.00    +0.000 OA
BRANCH  22  24
ATOM     24  O   UNL     1      -6.178   5.229 118.865  0.00  0.00    +0.000 OA
ATOM     25  H   UNL     1      -6.249   4.434 118.309  0.00  0.00    +0.000 HD
ENDBRANCH  22  24
ENDBRANCH  21  22
ENDBRANCH  20  21
ENDBRANCH  18  20
ENDBRANCH  16  17
ENDBRANCH   2  16
TORSDOF 8
ENDMDL
MODEL 4
REMARK VINA RESULT:      -7.0     10.290     13.108
REMARK  Name = Mycophenolic acid
REMARK  11 active torsions:
REMARK  status: ('A' for Active; 'I' for Inactive)
REMARK    1  A    between atoms: C_1  and  O_2
REMARK    2  A    between atoms: O_2  and  C_3
REMARK    3  A    between atoms: C_4  and  C_5
REMARK    4  A    between atoms: C_5  and  C_6
REMARK    5  A    between atoms: C_7  and  C_8
REMARK    6  A    between atoms: C_7  and  C_9
REMARK    7  A    between atoms: C_9  and  C_10
REMARK    8  A    between atoms: C_10  and  C_11
REMARK    9  A    between atoms: C_11  and  O_12
REMARK   10  A    between atoms: C_14  and  O_15
REMARK   11  A    between atoms: C_22  and  C_23
REMARK                            x       y       z     vdW  Elec       q    Type
REMARK                         _______ _______ _______ _____ _____    ______ ____
ROOT
ATOM      1  C   UNL     1      -6.739   5.863 132.520  0.00  0.00    +0.000 A 
ATOM      2  C   UNL     1      -7.778   5.348 133.341  0.00  0.00    +0.000 A 
ATOM      3  C   UNL     1      -9.114   5.465 132.874  0.00  0.00    +0.000 A 
ATOM      4  C   UNL     1      -9.372   6.187 131.717  0.00  0.00    +0.000 A 
ATOM      5  C   UNL     1     -10.647   6.469 131.038  0.00  0.00    +0.000 C 
ATOM      6  O   UNL     1     -11.733   5.983 131.226  0.00  0.00    +0.000 OA
ATOM      7  O   UNL     1     -10.360   7.411 130.079  0.00  0.00    +0.000 OA
ATOM      8  C   UNL     1      -8.948   7.514 129.855  0.00  0.00    +0.000 C 
ATOM      9  C   UNL     1      -8.364   6.812 131.016  0.00  0.00    +0.000 A 
ATOM     10  C   UNL     1      -7.036   6.677 131.402  0.00  0.00    +0.000 A 
ATOM     11  C   UNL     1      -5.935   7.398 130.678  0.00  0.00    +0.000 C 
ENDROOT
BRANCH   1  13
ATOM     12  C   UNL     1      -4.753   4.515 132.469  0.00  0.00    +0.000 C 
ATOM     13  O   UNL     1      -5.395   5.755 132.781  0.00  0.00    +0.000 OA
ENDBRANCH   1  13
BRANCH   3  14
ATOM     14  O   UNL     1     -10.179   4.915 133.528  0.00  0.00    +0.000 OA
ATOM     15  H   UNL     1     -10.280   3.970 133.346  0.00  0.00    +0.000 HD
ENDBRANCH   3  14
BRANCH   2  16
ATOM     16  C   UNL     1      -7.548   4.718 134.706  0.00  0.00    +0.000 C 
BRANCH  16  17
ATOM     17  C   UNL     1      -7.821   5.571 135.924  0.00  0.00    +0.000 C 
ATOM     18  C   UNL     1      -6.875   6.279 136.566  0.00  0.00    +0.000 C 
ATOM     19  C   UNL     1      -5.458   5.799 136.546  0.00  0.00    +0.000 C 
BRANCH  18  20
ATOM     20  C   UNL     1      -7.250   7.528 137.348  0.00  0.00    +0.000 C 
BRANCH  20  21
ATOM     21  C   UNL     1      -8.642   7.477 137.947  0.00  0.00    +0.000 C 
BRANCH  21  22
ATOM     22  C   UNL     1      -9.597   8.580 137.574  0.00  0.00    +0.000 C 
ATOM     23  O   UNL     1      -9.892   9.456 138.378  0.00  0.00    +0.000 OA
BRANCH  22  24
ATOM     24  O   UNL     1     -10.103   8.584 136.329  0.00  0.00    +0.000 OA
ATOM     25  H   UNL     1      -9.695   8.010 135.659  0.00  0.00    +0.000 HD
ENDBRANCH  22  24
ENDBRANCH  21  22
ENDBRANCH  20  21
ENDBRANCH  18  20
ENDBRANCH  16  17
ENDBRANCH   2  16
TORSDOF 8
ENDMDL
MODEL 5
REMARK VINA RESULT:      -7.0      1.827      3.463
REMARK  Name = Mycophenolic acid
REMARK  11 active torsions:
REMARK  status: ('A' for Active; 'I' for Inactive)
REMARK    1  A    between atoms: C_1  and  O_2
REMARK    2  A    between atoms: O_2  and  C_3
REMARK    3  A    between atoms: C_4  and  C_5
REMARK    4  A    between atoms: C_5  and  C_6
REMARK    5  A    between atoms: C_7  and  C_8
REMARK    6  A    between atoms: C_7  and  C_9
REMARK    7  A    between atoms: C_9  and  C_10
REMARK    8  A    between atoms: C_10  and  C_11
REMARK    9  A    between atoms: C_11  and  O_12
REMARK   10  A    between atoms: C_14  and  O_15
REMARK   11  A    between atoms: C_22  and  C_23
REMARK                            x       y       z     vdW  Elec       q    Type
REMARK                         _______ _______ _______ _____ _____    ______ ____
ROOT
ATOM      1  C   UNL     1      -7.548   2.538 125.267  0.00  0.00    +0.000 A 
ATOM      2  C   UNL     1      -8.402   2.059 124.238  0.00  0.00    +0.000 A 
ATOM      3  C   UNL     1      -8.961   0.762 124.388  0.00  0.00    +0.000 A 
ATOM      4  C   UNL     1      -8.557  -0.038 125.447  0.00  0.00    +0.000 A 
ATOM      5  C   UNL     1      -8.963  -1.404 125.815  0.00  0.00    +0.000 C 
ATOM      6  O   UNL     1      -9.874  -2.066 125.391  0.00  0.00    +0.000 OA
ATOM      7  O   UNL     1      -8.093  -1.800 126.803  0.00  0.00    +0.000 OA
ATOM      8  C   UNL     1      -7.371  -0.683 127.341  0.00  0.00    +0.000 C 
ATOM      9  C   UNL     1      -7.608   0.388 126.352  0.00  0.00    +0.000 A 
ATOM     10  C   UNL     1      -7.076   1.669 126.278  0.00  0.00    +0.000 A 
ATOM     11  C   UNL     1      -6.003   2.124 127.225  0.00  0.00    +0.000 C 
ENDROOT
BRANCH   1  13
ATOM     12  C   UNL     1      -7.847   4.879 125.705  0.00  0.00    +0.000 C 
ATOM     13  O   UNL     1      -6.998   3.795 125.320  0.00  0.00    +0.000 OA
ENDBRANCH   1  13
BRANCH   3  14
ATOM     14  O   UNL     1      -9.874   0.243 123.515  0.00  0.00    +0.000 OA
ATOM     15  H   UNL     1      -9.825   0.648 122.638  0.00  0.00    +0.000 HD
ENDBRANCH   3  14
BRANCH   2  16
ATOM     16  C   UNL     1      -8.719   2.834 122.968  0.00  0.00    +0.000 C 
BRANCH  16  17
ATOM     17  C   UNL     1      -7.651   2.892 121.900  0.00  0.00    +0.000 C 
ATOM     18  C   UNL     1      -7.756   3.627 120.779  0.00  0.00    +0.000 C 
ATOM     19  C   UNL     1      -9.110   3.907 120.207  0.00  0.00    +0.000 C 
BRANCH  18  20
ATOM     20  C   UNL     1      -6.507   4.126 120.069  0.00  0.00    +0.000 C 
BRANCH  20  21
ATOM     21  C   UNL     1      -5.226   3.879 120.843  0.00  0.00    +0.000 C 
BRANCH  21  22
ATOM     22  C   UNL     1      -4.728   4.989 121.730  0.00  0.00    +0.000 C 
ATOM     23  O   UNL     1      -4.889   4.945 122.943  0.00  0.00    +0.000 OA
BRANCH  22  24
ATOM     24  O   UNL     1      -4.087   6.020 121.152  0.00  0.00    +0.000 OA
ATOM     25  H   UNL     1      -3.115   6.017 121.141  0.00  0.00    +0.000 HD
ENDBRANCH  22  24
ENDBRANCH  21  22
ENDBRANCH  20  21
ENDBRANCH  18  20
ENDBRANCH  16  17
ENDBRANCH   2  16
TORSDOF 8
ENDMDL
MODEL 6
REMARK VINA RESULT:      -6.9      6.794      8.351
REMARK  Name = Mycophenolic acid
REMARK  11 active torsions:
REMARK  status: ('A' for Active; 'I' for Inactive)
REMARK    1  A    between atoms: C_1  and  O_2
REMARK    2  A    between atoms: O_2  and  C_3
REMARK    3  A    between atoms: C_4  and  C_5
REMARK    4  A    between atoms: C_5  and  C_6
REMARK    5  A    between atoms: C_7  and  C_8
REMARK    6  A    between atoms: C_7  and  C_9
REMARK    7  A    between atoms: C_9  and  C_10
REMARK    8  A    between atoms: C_10  and  C_11
REMARK    9  A    between atoms: C_11  and  O_12
REMARK   10  A    between atoms: C_14  and  O_15
REMARK   11  A    between atoms: C_22  and  C_23
REMARK                            x       y       z     vdW  Elec       q    Type
REMARK                         _______ _______ _______ _____ _____    ______ ____
ROOT
ATOM      1  C   UNL     1      -7.412   4.932 130.360  0.00  0.00    +0.000 A 
ATOM      2  C   UNL     1      -8.733   4.864 130.878  0.00  0.00    +0.000 A 
ATOM      3  C   UNL     1      -9.248   3.585 131.219  0.00  0.00    +0.000 A 
ATOM      4  C   UNL     1      -8.513   2.449 130.913  0.00  0.00    +0.000 A 
ATOM      5  C   UNL     1      -8.820   1.027 131.140  0.00  0.00    +0.000 C 
ATOM      6  O   UNL     1      -9.692   0.536 131.810  0.00  0.00    +0.000 OA
ATOM      7  O   UNL     1      -7.869   0.322 130.443  0.00  0.00    +0.000 OA
ATOM      8  C   UNL     1      -6.772   1.163 130.061  0.00  0.00    +0.000 C 
ATOM      9  C   UNL     1      -7.297   2.528 130.268  0.00  0.00    +0.000 A 
ATOM     10  C   UNL     1      -6.728   3.759 129.968  0.00  0.00    +0.000 A 
ATOM     11  C   UNL     1      -5.431   3.857 129.216  0.00  0.00    +0.000 C 
ENDROOT
BRANCH   1  13
ATOM     12  C   UNL     1      -6.149   6.815 131.148  0.00  0.00    +0.000 C 
ATOM     13  O   UNL     1      -6.736   6.090 130.064  0.00  0.00    +0.000 OA
ENDBRANCH   1  13
BRANCH   3  14
ATOM     14  O   UNL     1     -10.462   3.410 131.820  0.00  0.00    +0.000 OA
ATOM     15  H   UNL     1     -10.420   3.516 132.782  0.00  0.00    +0.000 HD
ENDBRANCH   3  14
BRANCH   2  16
ATOM     16  C   UNL     1      -9.642   6.072 131.052  0.00  0.00    +0.000 C 
BRANCH  16  17
ATOM     17  C   UNL     1     -10.387   6.565 129.832  0.00  0.00    +0.000 C 
ATOM     18  C   UNL     1     -11.460   7.374 129.890  0.00  0.00    +0.000 C 
ATOM     19  C   UNL     1     -12.354   7.324 131.089  0.00  0.00    +0.000 C 
BRANCH  18  20
ATOM     20  C   UNL     1     -11.791   8.293 128.725  0.00  0.00    +0.000 C 
BRANCH  20  21
ATOM     21  C   UNL     1     -10.740   8.297 127.633  0.00  0.00    +0.000 C 
BRANCH  21  22
ATOM     22  C   UNL     1     -11.095   7.635 126.328  0.00  0.00    +0.000 C 
ATOM     23  O   UNL     1     -10.795   8.152 125.258  0.00  0.00    +0.000 OA
BRANCH  22  24
ATOM     24  O   UNL     1     -11.736   6.454 126.371  0.00  0.00    +0.000 OA
ATOM     25  H   UNL     1     -11.289   5.697 126.786  0.00  0.00    +0.000 HD
ENDBRANCH  22  24
ENDBRANCH  21  22
ENDBRANCH  20  21
ENDBRANCH  18  20
ENDBRANCH  16  17
ENDBRANCH   2  16
TORSDOF 8
ENDMDL
MODEL 7
REMARK VINA RESULT:      -6.8      7.694      9.543
REMARK  Name = Mycophenolic acid
REMARK  11 active torsions:
REMARK  status: ('A' for Active; 'I' for Inactive)
REMARK    1  A    between atoms: C_1  and  O_2
REMARK    2  A    between atoms: O_2  and  C_3
REMARK    3  A    between atoms: C_4  and  C_5
REMARK    4  A    between atoms: C_5  and  C_6
REMARK    5  A    between atoms: C_7  and  C_8
REMARK    6  A    between atoms: C_7  and  C_9
REMARK    7  A    between atoms: C_9  and  C_10
REMARK    8  A    between atoms: C_10  and  C_11
REMARK    9  A    between atoms: C_11  and  O_12
REMARK   10  A    between atoms: C_14  and  O_15
REMARK   11  A    between atoms: C_22  and  C_23
REMARK                            x       y       z     vdW  Elec       q    Type
REMARK                         _______ _______ _______ _____ _____    ______ ____
ROOT
ATOM      1  C   UNL     1      -7.936   4.785 133.815  0.00  0.00    +0.000 A 
ATOM      2  C   UNL     1      -9.045   4.740 132.928  0.00  0.00    +0.000 A 
ATOM      3  C   UNL     1      -9.445   3.473 132.428  0.00  0.00    +0.000 A 
ATOM      4  C   UNL     1      -8.672   2.354 132.706  0.00  0.00    +0.000 A 
ATOM      5  C   UNL     1      -8.853   0.950 132.303  0.00  0.00    +0.000 C 
ATOM      6  O   UNL     1      -9.810   0.421 131.798  0.00  0.00    +0.000 OA
ATOM      7  O   UNL     1      -7.688   0.308 132.650  0.00  0.00    +0.000 OA
ATOM      8  C   UNL     1      -6.902   1.103 133.548  0.00  0.00    +0.000 C 
ATOM      9  C   UNL     1      -7.511   2.444 133.443  0.00  0.00    +0.000 A 
ATOM     10  C   UNL     1      -7.111   3.652 134.000  0.00  0.00    +0.000 A 
ATOM     11  C   UNL     1      -5.820   3.774 134.758  0.00  0.00    +0.000 C 
ENDROOT
BRANCH   1  13
ATOM     12  C   UNL     1      -7.856   6.106 135.818  0.00  0.00    +0.000 C 
ATOM     13  O   UNL     1      -7.477   5.912 134.453  0.00  0.00    +0.000 OA
ENDBRANCH   1  13
BRANCH   3  14
ATOM     14  O   UNL     1     -10.557   3.297 131.655  0.00  0.00    +0.000 OA
ATOM     15  H   UNL     1     -11.353   3.126 132.179  0.00  0.00    +0.000 HD
ENDBRANCH   3  14
BRANCH   2  16
ATOM     16  C   UNL     1      -9.802   5.970 132.451  0.00  0.00    +0.000 C 
BRANCH  16  17
ATOM     17  C   UNL     1      -9.477   6.499 131.072  0.00  0.00    +0.000 C 
ATOM     18  C   UNL     1     -10.407   6.911 130.193  0.00  0.00    +0.000 C 
ATOM     19  C   UNL     1     -11.776   6.308 130.234  0.00  0.00    +0.000 C 
BRANCH  18  20
ATOM     20  C   UNL     1     -10.056   7.943 129.132  0.00  0.00    +0.000 C 
BRANCH  20  21
ATOM     21  C   UNL     1     -11.021   7.968 127.963  0.00  0.00    +0.000 C 
BRANCH  21  22
ATOM     22  C   UNL     1     -10.542   7.390 126.658  0.00  0.00    +0.000 C 
ATOM     23  O   UNL     1      -9.863   6.370 126.632  0.00  0.00    +0.000 OA
BRANCH  22  24
ATOM     24  O   UNL     1     -10.894   8.017 125.522  0.00  0.00    +0.000 OA
ATOM     25  H   UNL     1     -10.581   7.657 124.675  0.00  0.00    +0.000 HD
ENDBRANCH  22  24
ENDBRANCH  21  22
ENDBRANCH  20  21
ENDBRANCH  18  20
ENDBRANCH  16  17
ENDBRANCH   2  16
TORSDOF 8
ENDMDL
MODEL 8
REMARK VINA RESULT:      -6.7      2.982      6.352
REMARK  Name = Mycophenolic acid
REMARK  11 active torsions:
REMARK  status: ('A' for Active; 'I' for Inactive)
REMARK    1  A    between atoms: C_1  and  O_2
REMARK    2  A    between atoms: O_2  and  C_3
REMARK    3  A    between atoms: C_4  and  C_5
REMARK    4  A    between atoms: C_5  and  C_6
REMARK    5  A    between atoms: C_7  and  C_8
REMARK    6  A    between atoms: C_7  and  C_9
REMARK    7  A    between atoms: C_9  and  C_10
REMARK    8  A    between atoms: C_10  and  C_11
REMARK    9  A    between atoms: C_11  and  O_12
REMARK   10  A    between atoms: C_14  and  O_15
REMARK   11  A    between atoms: C_22  and  C_23
REMARK                            x       y       z     vdW  Elec       q    Type
REMARK                         _______ _______ _______ _____ _____    ______ ____
ROOT
ATOM      1  C   UNL     1      -7.317   0.863 125.587  0.00  0.00    +0.000 A 
ATOM      2  C   UNL     1      -6.585   0.178 126.594  0.00  0.00    +0.000 A 
ATOM      3  C   UNL     1      -5.433   0.815 127.127  0.00  0.00    +0.000 A 
ATOM      4  C   UNL     1      -4.987   2.002 126.565  0.00  0.00    +0.000 A 
ATOM      5  C   UNL     1      -3.831   2.844 126.914  0.00  0.00    +0.000 C 
ATOM      6  O   UNL     1      -3.118   2.792 127.883  0.00  0.00    +0.000 OA
ATOM      7  O   UNL     1      -3.720   3.767 125.901  0.00  0.00    +0.000 OA
ATOM      8  C   UNL     1      -4.909   3.807 125.100  0.00  0.00    +0.000 C 
ATOM      9  C   UNL     1      -5.625   2.574 125.485  0.00  0.00    +0.000 A 
ATOM     10  C   UNL     1      -6.787   2.017 124.967  0.00  0.00    +0.000 A 
ATOM     11  C   UNL     1      -7.459   2.600 123.756  0.00  0.00    +0.000 C 
ENDROOT
BRANCH   1  13
ATOM     12  C   UNL     1      -9.693   0.589 125.797  0.00  0.00    +0.000 C 
ATOM     13  O   UNL     1      -8.495   0.429 125.031  0.00  0.00    +0.000 OA
ENDBRANCH   1  13
BRANCH   3  14
ATOM     14  O   UNL     1      -4.716   0.299 128.168  0.00  0.00    +0.000 OA
ATOM     15  H   UNL     1      -4.605  -0.661 128.106  0.00  0.00    +0.000 HD
ENDBRANCH   3  14
BRANCH   2  16
ATOM     16  C   UNL     1      -6.936  -1.212 127.103  0.00  0.00    +0.000 C 
BRANCH  16  17
ATOM     17  C   UNL     1      -6.942  -2.342 126.099  0.00  0.00    +0.000 C 
ATOM     18  C   UNL     1      -7.989  -3.164 125.908  0.00  0.00    +0.000 C 
ATOM     19  C   UNL     1      -8.923  -3.442 127.044  0.00  0.00    +0.000 C 
BRANCH  18  20
ATOM     20  C   UNL     1      -8.193  -3.846 124.564  0.00  0.00    +0.000 C 
BRANCH  20  21
ATOM     21  C   UNL     1      -9.286  -3.219 123.722  0.00  0.00    +0.000 C 
BRANCH  21  22
ATOM     22  C   UNL     1      -8.930  -1.989 122.929  0.00  0.00    +0.000 C 
ATOM     23  O   UNL     1      -7.813  -1.856 122.443  0.00  0.00    +0.000 OA
BRANCH  22  24
ATOM     24  O   UNL     1      -9.877  -1.052 122.756  0.00  0.00    +0.000 OA
ATOM     25  H   UNL     1     -10.512  -1.159 122.027  0.00  0.00    +0.000 HD
ENDBRANCH  22  24
ENDBRANCH  21  22
ENDBRANCH  20  21
ENDBRANCH  18  20
ENDBRANCH  16  17
ENDBRANCH   2  16
TORSDOF 8
ENDMDL
MODEL 9
REMARK VINA RESULT:      -6.6      3.291      3.899
REMARK  Name = Mycophenolic acid
REMARK  11 active torsions:
REMARK  status: ('A' for Active; 'I' for Inactive)
REMARK    1  A    between atoms: C_1  and  O_2
REMARK    2  A    between atoms: O_2  and  C_3
REMARK    3  A    between atoms: C_4  and  C_5
REMARK    4  A    between atoms: C_5  and  C_6
REMARK    5  A    between atoms: C_7  and  C_8
REMARK    6  A    between atoms: C_7  and  C_9
REMARK    7  A    between atoms: C_9  and  C_10
REMARK    8  A    between atoms: C_10  and  C_11
REMARK    9  A    between atoms: C_11  and  O_12
REMARK   10  A    between atoms: C_14  and  O_15
REMARK   11  A    between atoms: C_22  and  C_23
REMARK                            x       y       z     vdW  Elec       q    Type
REMARK                         _______ _______ _______ _____ _____    ______ ____
ROOT
ATOM      1  C   UNL     1      -7.218  -1.591 125.658  0.00  0.00    +0.000 A 
ATOM      2  C   UNL     1      -6.157  -0.945 126.347  0.00  0.00    +0.000 A 
ATOM      3  C   UNL     1      -5.884  -1.352 127.680  0.00  0.00    +0.000 A 
ATOM      4  C   UNL     1      -6.733  -2.254 128.306  0.00  0.00    +0.000 A 
ATOM      5  C   UNL     1      -6.686  -2.818 129.664  0.00  0.00    +0.000 C 
ATOM      6  O   UNL     1      -5.799  -2.771 130.477  0.00  0.00    +0.000 OA
ATOM      7  O   UNL     1      -7.884  -3.471 129.841  0.00  0.00    +0.000 OA
ATOM      8  C   UNL     1      -8.561  -3.663 128.592  0.00  0.00    +0.000 C 
ATOM      9  C   UNL     1      -7.850  -2.754 127.671  0.00  0.00    +0.000 A 
ATOM     10  C   UNL     1      -8.124  -2.428 126.348  0.00  0.00    +0.000 A 
ATOM     11  C   UNL     1      -9.367  -2.923 125.664  0.00  0.00    +0.000 C 
ENDROOT
BRANCH   1  13
ATOM     12  C   UNL     1      -6.745  -1.996 123.340  0.00  0.00    +0.000 C 
ATOM     13  O   UNL     1      -7.555  -1.379 124.344  0.00  0.00    +0.000 OA
ENDBRANCH   1  13
BRANCH   3  14
ATOM     14  O   UNL     1      -4.825  -0.877 128.399  0.00  0.00    +0.000 OA
ATOM     15  H   UNL     1      -4.895  -1.078 129.343  0.00  0.00    +0.000 HD
ENDBRANCH   3  14
BRANCH   2  16
ATOM     16  C   UNL     1      -5.323   0.183 125.757  0.00  0.00    +0.000 C 
BRANCH  16  17
ATOM     17  C   UNL     1      -6.014   1.504 125.507  0.00  0.00    +0.000 C 
ATOM     18  C   UNL     1      -5.384   2.692 125.535  0.00  0.00    +0.000 C 
ATOM     19  C   UNL     1      -4.181   2.866 126.407  0.00  0.00    +0.000 C 
BRANCH  18  20
ATOM     20  C   UNL     1      -5.921   3.863 124.728  0.00  0.00    +0.000 C 
BRANCH  20  21
ATOM     21  C   UNL     1      -6.707   4.863 125.553  0.00  0.00    +0.000 C 
BRANCH  21  22
ATOM     22  C   UNL     1      -8.207   4.740 125.544  0.00  0.00    +0.000 C 
ATOM     23  O   UNL     1      -8.756   3.769 125.038  0.00  0.00    +0.000 OA
BRANCH  22  24
ATOM     24  O   UNL     1      -8.925   5.719 126.123  0.00  0.00    +0.000 OA
ATOM     25  H   UNL     1      -8.753   6.639 125.861  0.00  0.00    +0.000 HD
ENDBRANCH  22  24
ENDBRANCH  21  22
ENDBRANCH  20  21
ENDBRANCH  18  20
ENDBRANCH  16  17
ENDBRANCH   2  16
TORSDOF 8
ENDMDL
