MODEL 1
REMARK VINA RESULT:      -6.8      0.000      0.000
REMARK  Name = Mycophenolate mofetil
REMARK  14 active torsions:
REMARK  status: ('A' for Active; 'I' for Inactive)
REMARK    1  A    between atoms: C_1  and  O_2
REMARK    2  A    between atoms: O_2  and  C_3
REMARK    3  A    between atoms: C_4  and  C_5
REMARK    4  A    between atoms: C_5  and  C_6
REMARK    5  A    between atoms: C_7  and  C_8
REMARK    6  A    between atoms: C_7  and  C_9
REMARK    7  A    between atoms: C_9  and  C_10
REMARK    8  A    between atoms: C_10  and  C_11
REMARK    9  A    between atoms: C_11  and  O_13
REMARK   10  A    between atoms: O_13  and  C_14
REMARK   11  A    between atoms: C_14  and  C_15
REMARK   12  A    between atoms: C_15  and  N_16
REMARK   13  A    between atoms: C_22  and  O_23
REMARK   14  A    between atoms: C_30  and  C_31
REMARK                            x       y       z     vdW  Elec       q    Type
REMARK                         _______ _______ _______ _____ _____    ______ ____
ROOT
ATOM      1  C   UNL     1      -9.147   1.354 131.629  0.00  0.00    +0.000 C 
ENDROOT
BRANCH   1   3
ATOM      2  C   UNL     1      -6.929   1.137 130.300  0.00  0.00    +0.000 A 
ATOM      3  C   UNL     1      -8.192   1.749 130.512  0.00  0.00    +0.000 A 
ATOM      4  C   UNL     1      -8.565   2.810 129.646  0.00  0.00    +0.000 A 
ATOM      5  C   UNL     1      -7.643   3.306 128.735  0.00  0.00    +0.000 A 
ATOM      6  C   UNL     1      -7.770   4.394 127.749  0.00  0.00    +0.000 C 
ATOM      7  O   UNL     1      -8.757   4.973 127.382  0.00  0.00    +0.000 OA
ATOM      8  O   UNL     1      -6.499   4.621 127.277  0.00  0.00    +0.000 OA
ATOM      9  C   UNL     1      -5.613   3.548 127.624  0.00  0.00    +0.000 C 
ATOM     10  C   UNL     1      -6.361   2.806 128.661  0.00  0.00    +0.000 A 
ATOM     11  C   UNL     1      -5.971   1.727 129.444  0.00  0.00    +0.000 A 
ATOM     12  C   UNL     1      -4.562   1.209 129.413  0.00  0.00    +0.000 C 
BRANCH   2  14
ATOM     13  C   UNL     1      -6.994  -1.247 130.548  0.00  0.00    +0.000 C 
ATOM     14  O   UNL     1      -6.475   0.022 130.958  0.00  0.00    +0.000 OA
ENDBRANCH   2  14
BRANCH   4  15
ATOM     15  O   UNL     1      -9.801   3.391 129.677  0.00  0.00    +0.000 OA
ATOM     16  H   UNL     1     -10.133   3.503 130.579  0.00  0.00    +0.000 HD
ENDBRANCH   4  15
ENDBRANCH   1   3
BRANCH   1  17
ATOM     17  C   UNL     1      -9.439   2.379 132.708  0.00  0.00    +0.000 C 
ATOM     18  C   UNL     1      -8.479   2.986 133.429  0.00  0.00    +0.000 C 
ATOM     19  C   UNL     1      -7.182   2.280 133.675  0.00  0.00    +0.000 C 
BRANCH  18  20
ATOM     20  C   UNL     1      -8.709   4.364 134.034  0.00  0.00    +0.000 C 
BRANCH  20  21
ATOM     21  C   UNL     1      -8.325   5.500 133.097  0.00  0.00    +0.000 C 
BRANCH  21  22
ATOM     22  C   UNL     1      -9.511   6.007 132.339  0.00  0.00    +0.000 C 
ATOM     23  O   UNL     1     -10.535   6.444 132.846  0.00  0.00    +0.000 OA
BRANCH  22  24
ATOM     24  O   UNL     1      -9.275   5.907 130.995  0.00  0.00    +0.000 OA
BRANCH  24  25
ATOM     25  C   UNL     1      -9.109   7.194 130.390  0.00  0.00    +0.000 C 
BRANCH  25  26
ATOM     26  C   UNL     1     -10.300   7.543 129.488  0.00  0.00    +0.000 C 
BRANCH  26  27
ATOM     27  N   UNL     1     -11.662   7.678 130.050  0.00  0.00    +0.000 NA
ATOM     28  C   UNL     1     -12.658   6.592 129.875  0.00  0.00    +0.000 C 
ATOM     29  C   UNL     1     -13.271   6.490 128.464  0.00  0.00    +0.000 C 
ATOM     30  O   UNL     1     -13.775   7.756 128.005  0.00  0.00    +0.000 OA
ATOM     31  C   UNL     1     -12.802   8.798 128.115  0.00  0.00    +0.000 C 
ATOM     32  C   UNL     1     -12.271   8.926 129.548  0.00  0.00    +0.000 C 
ENDBRANCH  26  27
ENDBRANCH  25  26
ENDBRANCH  24  25
ENDBRANCH  22  24
ENDBRANCH  21  22
ENDBRANCH  20  21
ENDBRANCH  18  20
ENDBRANCH   1  17
TORSDOF 11
ENDMDL
MODEL 2
REMARK VINA RESULT:      -6.6      3.103      4.269
REMARK  Name = Mycophenolate mofetil
REMARK  14 active torsions:
REMARK  status: ('A' for Active; 'I' for Inactive)
REMARK    1  A    between atoms: C_1  and  O_2
REMARK    2  A    between atoms: O_2  and  C_3
REMARK    3  A    between atoms: C_4  and  C_5
REMARK    4  A    between atoms: C_5  and  C_6
REMARK    5  A    between atoms: C_7  and  C_8
REMARK    6  A    between atoms: C_7  and  C_9
REMARK    7  A    between atoms: C_9  and  C_10
REMARK    8  A    between atoms: C_10  and  C_11
REMARK    9  A    between atoms: C_11  and  O_13
REMARK   10  A    between atoms: O_13  and  C_14
REMARK   11  A    between atoms: C_14  and  C_15
REMARK   12  A    between atoms: C_15  and  N_16
REMARK   13  A    between atoms: C_22  and  O_23
REMARK   14  A    between atoms: C_30  and  C_31
REMARK                            x       y       z     vdW  Elec       q    Type
REMARK                         _______ _______ _______ _____ _____    ______ ____
ROOT
ATOM      1  C   UNL     1      -7.475   2.377 127.713  0.00  0.00    +0.000 C 
ENDROOT
BRANCH   1   3
ATOM      2  C   UNL     1      -6.440   3.137 125.458  0.00  0.00    +0.000 A 
ATOM      3  C   UNL     1      -7.467   2.490 126.195  0.00  0.00    +0.000 A 
ATOM      4  C   UNL     1      -8.559   1.947 125.470  0.00  0.00    +0.000 A 
ATOM      5  C   UNL     1      -8.663   2.190 124.107  0.00  0.00    +0.000 A 
ATOM      6  C   UNL     1      -9.688   1.762 123.140  0.00  0.00    +0.000 C 
ATOM      7  O   UNL     1     -10.565   0.951 123.275  0.00  0.00    +0.000 OA
ATOM      8  O   UNL     1      -9.434   2.467 121.988  0.00  0.00    +0.000 OA
ATOM      9  C   UNL     1      -8.131   3.064 122.018  0.00  0.00    +0.000 C 
ATOM     10  C   UNL     1      -7.740   2.965 123.439  0.00  0.00    +0.000 A 
ATOM     11  C   UNL     1      -6.622   3.465 124.095  0.00  0.00    +0.000 A 
ATOM     12  C   UNL     1      -5.638   4.356 123.393  0.00  0.00    +0.000 C 
BRANCH   2  14
ATOM     13  C   UNL     1      -4.296   2.624 126.400  0.00  0.00    +0.000 C 
ATOM     14  O   UNL     1      -5.261   3.597 125.989  0.00  0.00    +0.000 OA
ENDBRANCH   2  14
BRANCH   4  15
ATOM     15  O   UNL     1      -9.539   1.200 126.058  0.00  0.00    +0.000 OA
ATOM     16  H   UNL     1     -10.408   1.354 125.660  0.00  0.00    +0.000 HD
ENDBRANCH   4  15
ENDBRANCH   1   3
BRANCH   1  17
ATOM     17  C   UNL     1      -7.958   3.573 128.510  0.00  0.00    +0.000 C 
ATOM     18  C   UNL     1      -8.078   3.568 129.850  0.00  0.00    +0.000 C 
ATOM     19  C   UNL     1      -8.358   2.282 130.562  0.00  0.00    +0.000 C 
BRANCH  18  20
ATOM     20  C   UNL     1      -7.974   4.860 130.650  0.00  0.00    +0.000 C 
BRANCH  20  21
ATOM     21  C   UNL     1      -8.671   4.784 132.001  0.00  0.00    +0.000 C 
BRANCH  21  22
ATOM     22  C   UNL     1      -9.531   5.985 132.240  0.00  0.00    +0.000 C 
ATOM     23  O   UNL     1      -9.735   6.498 133.332  0.00  0.00    +0.000 OA
BRANCH  22  24
ATOM     24  O   UNL     1     -10.052   6.421 131.053  0.00  0.00    +0.000 OA
BRANCH  24  25
ATOM     25  C   UNL     1     -11.481   6.324 131.035  0.00  0.00    +0.000 C 
BRANCH  25  26
ATOM     26  C   UNL     1     -12.007   6.127 129.607  0.00  0.00    +0.000 C 
BRANCH  26  27
ATOM     27  N   UNL     1     -12.645   7.242 128.874  0.00  0.00    +0.000 NA
ATOM     28  C   UNL     1     -12.979   7.101 127.435  0.00  0.00    +0.000 C 
ATOM     29  C   UNL     1     -11.777   7.183 126.474  0.00  0.00    +0.000 C 
ATOM     30  O   UNL     1     -10.970   8.347 126.724  0.00  0.00    +0.000 OA
ATOM     31  C   UNL     1     -10.592   8.460 128.098  0.00  0.00    +0.000 C 
ATOM     32  C   UNL     1     -11.817   8.455 129.022  0.00  0.00    +0.000 C 
ENDBRANCH  26  27
ENDBRANCH  25  26
ENDBRANCH  24  25
ENDBRANCH  22  24
ENDBRANCH  21  22
ENDBRANCH  20  21
ENDBRANCH  18  20
ENDBRANCH   1  17
TORSDOF 11
ENDMDL
MODEL 3
REMARK VINA RESULT:      -6.6      4.378      7.463
REMARK  Name = Mycophenolate mofetil
REMARK  14 active torsions:
REMARK  status: ('A' for Active; 'I' for Inactive)
REMARK    1  A    between atoms: C_1  and  O_2
REMARK    2  A    between atoms: O_2  and  C_3
REMARK    3  A    between atoms: C_4  and  C_5
REMARK    4  A    between atoms: C_5  and  C_6
REMARK    5  A    between atoms: C_7  and  C_8
REMARK    6  A    between atoms: C_7  and  C_9
REMARK    7  A    between atoms: C_9  and  C_10
REMARK    8  A    between atoms: C_10  and  C_11
REMARK    9  A    between atoms: C_11  and  O_13
REMARK   10  A    between atoms: O_13  and  C_14
REMARK   11  A    between atoms: C_14  and  C_15
REMARK   12  A    between atoms: C_15  and  N_16
REMARK   13  A    between atoms: C_22  and  O_23
REMARK   14  A    between atoms: C_30  and  C_31
REMARK                            x       y       z     vdW  Elec       q    Type
REMARK                         _______ _______ _______ _____ _____    ______ ____
ROOT
ATOM      1  C   UNL     1      -6.742  -1.409 128.856  0.00  0.00    +0.000 C 
ENDROOT
BRANCH   1   3
ATOM      2  C   UNL     1      -7.902   0.645 129.936  0.00  0.00    +0.000 A 
ATOM      3  C   UNL     1      -6.911   0.086 129.087  0.00  0.00    +0.000 A 
ATOM      4  C   UNL     1      -6.054   0.980 128.395  0.00  0.00    +0.000 A 
ATOM      5  C   UNL     1      -6.300   2.345 128.451  0.00  0.00    +0.000 A 
ATOM      6  C   UNL     1      -5.582   3.467 127.822  0.00  0.00    +0.000 C 
ATOM      7  O   UNL     1      -4.513   3.471 127.273  0.00  0.00    +0.000 OA
ATOM      8  O   UNL     1      -6.378   4.573 128.011  0.00  0.00    +0.000 OA
ATOM      9  C   UNL     1      -7.386   4.328 129.000  0.00  0.00    +0.000 C 
ATOM     10  C   UNL     1      -7.372   2.857 129.148  0.00  0.00    +0.000 A 
ATOM     11  C   UNL     1      -8.201   2.026 129.891  0.00  0.00    +0.000 A 
ATOM     12  C   UNL     1      -9.405   2.565 130.610  0.00  0.00    +0.000 C 
BRANCH   2  14
ATOM     13  C   UNL     1      -8.175  -0.506 132.022  0.00  0.00    +0.000 C 
ATOM     14  O   UNL     1      -8.720  -0.074 130.771  0.00  0.00    +0.000 OA
ENDBRANCH   2  14
BRANCH   4  15
ATOM     15  O   UNL     1      -4.991   0.557 127.649  0.00  0.00    +0.000 OA
ATOM     16  H   UNL     1      -4.157   0.603 128.137  0.00  0.00    +0.000 HD
ENDBRANCH   4  15
ENDBRANCH   1   3
BRANCH   1  17
ATOM     17  C   UNL     1      -7.304  -1.996 127.575  0.00  0.00    +0.000 C 
ATOM     18  C   UNL     1      -8.349  -2.843 127.547  0.00  0.00    +0.000 C 
ATOM     19  C   UNL     1      -8.612  -3.730 128.723  0.00  0.00    +0.000 C 
BRANCH  18  20
ATOM     20  C   UNL     1      -9.244  -2.940 126.320  0.00  0.00    +0.000 C 
BRANCH  20  21
ATOM     21  C   UNL     1      -8.605  -3.713 125.174  0.00  0.00    +0.000 C 
BRANCH  21  22
ATOM     22  C   UNL     1      -8.735  -2.976 123.879  0.00  0.00    +0.000 C 
ATOM     23  O   UNL     1      -9.784  -2.786 123.279  0.00  0.00    +0.000 OA
BRANCH  22  24
ATOM     24  O   UNL     1      -7.502  -2.546 123.469  0.00  0.00    +0.000 OA
BRANCH  24  25
ATOM     25  C   UNL     1      -7.523  -1.167 123.083  0.00  0.00    +0.000 C 
BRANCH  25  26
ATOM     26  C   UNL     1      -7.611  -0.248 124.309  0.00  0.00    +0.000 C 
BRANCH  26  27
ATOM     27  N   UNL     1      -8.846   0.513 124.598  0.00  0.00    +0.000 NA
ATOM     28  C   UNL     1      -9.604   1.160 123.500  0.00  0.00    +0.000 C 
ATOM     29  C   UNL     1      -8.967   2.446 122.936  0.00  0.00    +0.000 C 
ATOM     30  O   UNL     1      -8.633   3.380 123.977  0.00  0.00    +0.000 OA
ATOM     31  C   UNL     1      -7.851   2.779 125.013  0.00  0.00    +0.000 C 
ATOM     32  C   UNL     1      -8.550   1.550 125.607  0.00  0.00    +0.000 C 
ENDBRANCH  26  27
ENDBRANCH  25  26
ENDBRANCH  24  25
ENDBRANCH  22  24
ENDBRANCH  21  22
ENDBRANCH  20  21
ENDBRANCH  18  20
ENDBRANCH   1  17
TORSDOF 11
ENDMDL
MODEL 4
REMARK VINA RESULT:      -6.6      4.150      5.625
REMARK  Name = Mycophenolate mofetil
REMARK  14 active torsions:
REMARK  status: ('A' for Active; 'I' for Inactive)
REMARK    1  A    between atoms: C_1  and  O_2
REMARK    2  A    between atoms: O_2  and  C_3
REMARK    3  A    between atoms: C_4  and  C_5
REMARK    4  A    between atoms: C_5  and  C_6
REMARK    5  A    between atoms: C_7  and  C_8
REMARK    6  A    between atoms: C_7  and  C_9
REMARK    7  A    between atoms: C_9  and  C_10
REMARK    8  A    between atoms: C_10  and  C_11
REMARK    9  A    between atoms: C_11  and  O_13
REMARK   10  A    between atoms: O_13  and  C_14
REMARK   11  A    between atoms: C_14  and  C_15
REMARK   12  A    between atoms: C_15  and  N_16
REMARK   13  A    between atoms: C_22  and  O_23
REMARK   14  A    between atoms: C_30  and  C_31
REMARK                            x       y       z     vdW  Elec       q    Type
REMARK                         _______ _______ _______ _____ _____    ______ ____
ROOT
ATOM      1  C   UNL     1      -5.557   0.106 125.811  0.00  0.00    +0.000 C 
ENDROOT
BRANCH   1   3
ATOM      2  C   UNL     1      -7.578  -1.301 124.994  0.00  0.00    +0.000 A 
ATOM      3  C   UNL     1      -6.870  -0.073 125.062  0.00  0.00    +0.000 A 
ATOM      4  C   UNL     1      -7.408   1.039 124.364  0.00  0.00    +0.000 A 
ATOM      5  C   UNL     1      -8.505   0.859 123.532  0.00  0.00    +0.000 A 
ATOM      6  C   UNL     1      -9.236   1.828 122.698  0.00  0.00    +0.000 C 
ATOM      7  O   UNL     1      -9.164   3.028 122.691  0.00  0.00    +0.000 OA
ATOM      8  O   UNL     1     -10.078   1.082 121.907  0.00  0.00    +0.000 OA
ATOM      9  C   UNL     1     -10.198  -0.261 122.395  0.00  0.00    +0.000 C 
ATOM     10  C   UNL     1      -9.077  -0.382 123.350  0.00  0.00    +0.000 A 
ATOM     11  C   UNL     1      -8.623  -1.486 124.060  0.00  0.00    +0.000 A 
ATOM     12  C   UNL     1      -9.201  -2.853 123.830  0.00  0.00    +0.000 C 
BRANCH   2  14
ATOM     13  C   UNL     1      -7.832  -2.558 127.021  0.00  0.00    +0.000 C 
ATOM     14  O   UNL     1      -7.268  -2.429 125.712  0.00  0.00    +0.000 OA
ENDBRANCH   2  14
BRANCH   4  15
ATOM     15  O   UNL     1      -6.882   2.296 124.456  0.00  0.00    +0.000 OA
ATOM     16  H   UNL     1      -5.942   2.319 124.225  0.00  0.00    +0.000 HD
ENDBRANCH   4  15
ENDBRANCH   1   3
BRANCH   1  17
ATOM     17  C   UNL     1      -5.613   0.677 127.214  0.00  0.00    +0.000 C 
ATOM     18  C   UNL     1      -5.273   1.945 127.510  0.00  0.00    +0.000 C 
ATOM     19  C   UNL     1      -4.261   2.654 126.665  0.00  0.00    +0.000 C 
BRANCH  18  20
ATOM     20  C   UNL     1      -5.873   2.655 128.716  0.00  0.00    +0.000 C 
BRANCH  20  21
ATOM     21  C   UNL     1      -6.420   4.037 128.385  0.00  0.00    +0.000 C 
BRANCH  21  22
ATOM     22  C   UNL     1      -7.804   3.956 127.824  0.00  0.00    +0.000 C 
ATOM     23  O   UNL     1      -8.079   3.911 126.632  0.00  0.00    +0.000 OA
BRANCH  22  24
ATOM     24  O   UNL     1      -8.714   3.939 128.845  0.00  0.00    +0.000 OA
BRANCH  24  25
ATOM     25  C   UNL     1      -8.694   5.160 129.593  0.00  0.00    +0.000 C 
BRANCH  25  26
ATOM     26  C   UNL     1      -9.802   6.114 129.129  0.00  0.00    +0.000 C 
BRANCH  26  27
ATOM     27  N   UNL     1     -11.228   5.760 129.299  0.00  0.00    +0.000 NA
ATOM     28  C   UNL     1     -12.289   6.752 128.998  0.00  0.00    +0.000 C 
ATOM     29  C   UNL     1     -12.460   7.866 130.050  0.00  0.00    +0.000 C 
ATOM     30  O   UNL     1     -12.589   7.332 131.379  0.00  0.00    +0.000 OA
ATOM     31  C   UNL     1     -11.537   6.419 131.701  0.00  0.00    +0.000 C 
ATOM     32  C   UNL     1     -11.446   5.280 130.678  0.00  0.00    +0.000 C 
ENDBRANCH  26  27
ENDBRANCH  25  26
ENDBRANCH  24  25
ENDBRANCH  22  24
ENDBRANCH  21  22
ENDBRANCH  20  21
ENDBRANCH  18  20
ENDBRANCH   1  17
TORSDOF 11
ENDMDL
MODEL 5
REMARK VINA RESULT:      -6.6      2.802      3.620
REMARK  Name = Mycophenolate mofetil
REMARK  14 active torsions:
REMARK  status: ('A' for Active; 'I' for Inactive)
REMARK    1  A    between atoms: C_1  and  O_2
REMARK    2  A    between atoms: O_2  and  C_3
REMARK    3  A    between atoms: C_4  and  C_5
REMARK    4  A    between atoms: C_5  and  C_6
REMARK    5  A    between atoms: C_7  and  C_8
REMARK    6  A    between atoms: C_7  and  C_9
REMARK    7  A    between atoms: C_9  and  C_10
REMARK    8  A    between atoms: C_10  and  C_11
REMARK    9  A    between atoms: C_11  and  O_13
REMARK   10  A    between atoms: O_13  and  C_14
REMARK   11  A    between atoms: C_14  and  C_15
REMARK   12  A    between atoms: C_15  and  N_16
REMARK   13  A    between atoms: C_22  and  O_23
REMARK   14  A    between atoms: C_30  and  C_31
REMARK                            x       y       z     vdW  Elec       q    Type
REMARK                         _______ _______ _______ _____ _____    ______ ____
ROOT
ATOM      1  C   UNL     1      -7.998   2.445 129.009  0.00  0.00    +0.000 C 
ENDROOT
BRANCH   1   3
ATOM      2  C   UNL     1      -7.785  -0.135 129.193  0.00  0.00    +0.000 A 
ATOM      3  C   UNL     1      -8.115   1.032 128.455  0.00  0.00    +0.000 A 
ATOM      4  C   UNL     1      -8.549   0.864 127.114  0.00  0.00    +0.000 A 
ATOM      5  C   UNL     1      -8.497  -0.395 126.531  0.00  0.00    +0.000 A 
ATOM      6  C   UNL     1      -8.868  -0.830 125.173  0.00  0.00    +0.000 C 
ATOM      7  O   UNL     1      -9.474  -0.232 124.325  0.00  0.00    +0.000 OA
ATOM      8  O   UNL     1      -8.400  -2.117 125.052  0.00  0.00    +0.000 OA
ATOM      9  C   UNL     1      -8.056  -2.670 126.330  0.00  0.00    +0.000 C 
ATOM     10  C   UNL     1      -8.013  -1.488 127.216  0.00  0.00    +0.000 A 
ATOM     11  C   UNL     1      -7.636  -1.384 128.548  0.00  0.00    +0.000 A 
ATOM     12  C   UNL     1      -7.055  -2.554 129.289  0.00  0.00    +0.000 C 
BRANCH   2  14
ATOM     13  C   UNL     1      -8.562  -0.129 131.462  0.00  0.00    +0.000 C 
ATOM     14  O   UNL     1      -7.476  -0.159 130.531  0.00  0.00    +0.000 OA
ENDBRANCH   2  14
BRANCH   4  15
ATOM     15  O   UNL     1      -9.008   1.899 126.350  0.00  0.00    +0.000 OA
ATOM     16  H   UNL     1      -8.502   2.711 126.489  0.00  0.00    +0.000 HD
ENDBRANCH   4  15
ENDBRANCH   1   3
BRANCH   1  17
ATOM     17  C   UNL     1      -9.235   3.070 129.624  0.00  0.00    +0.000 C 
ATOM     18  C   UNL     1      -9.204   3.833 130.732  0.00  0.00    +0.000 C 
ATOM     19  C   UNL     1      -8.133   3.609 131.753  0.00  0.00    +0.000 C 
BRANCH  18  20
ATOM     20  C   UNL     1     -10.268   4.893 130.981  0.00  0.00    +0.000 C 
BRANCH  20  21
ATOM     21  C   UNL     1      -9.694   6.207 131.492  0.00  0.00    +0.000 C 
BRANCH  21  22
ATOM     22  C   UNL     1      -8.847   6.873 130.454  0.00  0.00    +0.000 C 
ATOM     23  O   UNL     1      -7.715   7.299 130.637  0.00  0.00    +0.000 OA
BRANCH  22  24
ATOM     24  O   UNL     1      -9.531   6.932 129.270  0.00  0.00    +0.000 OA
BRANCH  24  25
ATOM     25  C   UNL     1      -9.845   8.281 128.907  0.00  0.00    +0.000 C 
BRANCH  25  26
ATOM     26  C   UNL     1     -10.845   8.325 127.745  0.00  0.00    +0.000 C 
BRANCH  26  27
ATOM     27  N   UNL     1     -12.276   8.611 127.986  0.00  0.00    +0.000 NA
ATOM     28  C   UNL     1     -12.716   9.204 129.273  0.00  0.00    +0.000 C 
ATOM     29  C   UNL     1     -12.728   8.233 130.469  0.00  0.00    +0.000 C 
ATOM     30  O   UNL     1     -13.441   7.020 130.169  0.00  0.00    +0.000 OA
ATOM     31  C   UNL     1     -12.983   6.409 128.960  0.00  0.00    +0.000 C 
ATOM     32  C   UNL     1     -13.059   7.378 127.773  0.00  0.00    +0.000 C 
ENDBRANCH  26  27
ENDBRANCH  25  26
ENDBRANCH  24  25
ENDBRANCH  22  24
ENDBRANCH  21  22
ENDBRANCH  20  21
ENDBRANCH  18  20
ENDBRANCH   1  17
TORSDOF 11
ENDMDL
MODEL 6
REMARK VINA RESULT:      -6.5      3.256      6.563
REMARK  Name = Mycophenolate mofetil
REMARK  14 active torsions:
REMARK  status: ('A' for Active; 'I' for Inactive)
REMARK    1  A    between atoms: C_1  and  O_2
REMARK    2  A    between atoms: O_2  and  C_3
REMARK    3  A    between atoms: C_4  and  C_5
REMARK    4  A    between atoms: C_5  and  C_6
REMARK    5  A    between atoms: C_7  and  C_8
REMARK    6  A    between atoms: C_7  and  C_9
REMARK    7  A    between atoms: C_9  and  C_10
REMARK    8  A    between atoms: C_10  and  C_11
REMARK    9  A    between atoms: C_11  and  O_13
REMARK   10  A    between atoms: O_13  and  C_14
REMARK   11  A    between atoms: C_14  and  C_15
REMARK   12  A    between atoms: C_15  and  N_16
REMARK   13  A    between atoms: C_22  and  O_23
REMARK   14  A    between atoms: C_30  and  C_31
REMARK                            x       y       z     vdW  Elec       q    Type
REMARK                         _______ _______ _______ _____ _____    ______ ____
ROOT
ATOM      1  C   UNL     1      -5.331  -0.008 125.755  0.00  0.00    +0.000 C 
ENDROOT
BRANCH   1   3
ATOM      2  C   UNL     1      -7.279  -1.720 125.830  0.00  0.00    +0.000 A 
ATOM      3  C   UNL     1      -6.165  -1.082 126.437  0.00  0.00    +0.000 A 
ATOM      4  C   UNL     1      -5.838  -1.452 127.768  0.00  0.00    +0.000 A 
ATOM      5  C   UNL     1      -6.686  -2.297 128.471  0.00  0.00    +0.000 A 
ATOM      6  C   UNL     1      -6.585  -2.814 129.847  0.00  0.00    +0.000 C 
ATOM      7  O   UNL     1      -5.655  -2.772 130.606  0.00  0.00    +0.000 OA
ATOM      8  O   UNL     1      -7.796  -3.409 130.112  0.00  0.00    +0.000 OA
ATOM      9  C   UNL     1      -8.550  -3.617 128.910  0.00  0.00    +0.000 C 
ATOM     10  C   UNL     1      -7.853  -2.772 127.917  0.00  0.00    +0.000 A 
ATOM     11  C   UNL     1      -8.183  -2.488 126.598  0.00  0.00    +0.000 A 
ATOM     12  C   UNL     1      -9.480  -2.954 126.000  0.00  0.00    +0.000 C 
BRANCH   2  14
ATOM     13  C   UNL     1      -6.910  -2.310 123.535  0.00  0.00    +0.000 C 
ATOM     14  O   UNL     1      -7.648  -1.575 124.516  0.00  0.00    +0.000 OA
ENDBRANCH   2  14
BRANCH   4  15
ATOM     15  O   UNL     1      -4.720  -0.997 128.408  0.00  0.00    +0.000 OA
ATOM     16  H   UNL     1      -4.754  -1.152 129.363  0.00  0.00    +0.000 HD
ENDBRANCH   4  15
ENDBRANCH   1   3
BRANCH   1  17
ATOM     17  C   UNL     1      -5.914   1.388 125.658  0.00  0.00    +0.000 C 
ATOM     18  C   UNL     1      -5.214   2.503 125.939  0.00  0.00    +0.000 C 
ATOM     19  C   UNL     1      -4.093   2.441 126.928  0.00  0.00    +0.000 C 
BRANCH  18  20
ATOM     20  C   UNL     1      -5.574   3.835 125.296  0.00  0.00    +0.000 C 
BRANCH  20  21
ATOM     21  C   UNL     1      -6.450   4.709 126.182  0.00  0.00    +0.000 C 
BRANCH  21  22
ATOM     22  C   UNL     1      -7.862   4.217 126.210  0.00  0.00    +0.000 C 
ATOM     23  O   UNL     1      -8.652   4.291 125.278  0.00  0.00    +0.000 OA
BRANCH  22  24
ATOM     24  O   UNL     1      -8.134   3.671 127.434  0.00  0.00    +0.000 OA
BRANCH  24  25
ATOM     25  C   UNL     1      -7.643   4.491 128.501  0.00  0.00    +0.000 C 
BRANCH  25  26
ATOM     26  C   UNL     1      -8.796   5.122 129.293  0.00  0.00    +0.000 C 
BRANCH  26  27
ATOM     27  N   UNL     1      -8.620   6.418 129.984  0.00  0.00    +0.000 NA
ATOM     28  C   UNL     1      -7.665   6.543 131.113  0.00  0.00    +0.000 C 
ATOM     29  C   UNL     1      -8.139   5.921 132.441  0.00  0.00    +0.000 C 
ATOM     30  O   UNL     1      -9.456   6.369 132.803  0.00  0.00    +0.000 OA
ATOM     31  C   UNL     1     -10.398   6.197 131.741  0.00  0.00    +0.000 C 
ATOM     32  C   UNL     1      -9.934   6.896 130.457  0.00  0.00    +0.000 C 
ENDBRANCH  26  27
ENDBRANCH  25  26
ENDBRANCH  24  25
ENDBRANCH  22  24
ENDBRANCH  21  22
ENDBRANCH  20  21
ENDBRANCH  18  20
ENDBRANCH   1  17
TORSDOF 11
ENDMDL
MODEL 7
REMARK VINA RESULT:      -6.5      3.837      5.399
REMARK  Name = Mycophenolate mofetil
REMARK  14 active torsions:
REMARK  status: ('A' for Active; 'I' for Inactive)
REMARK    1  A    between atoms: C_1  and  O_2
REMARK    2  A    between atoms: O_2  and  C_3
REMARK    3  A    between atoms: C_4  and  C_5
REMARK    4  A    between atoms: C_5  and  C_6
REMARK    5  A    between atoms: C_7  and  C_8
REMARK    6  A    between atoms: C_7  and  C_9
REMARK    7  A    between atoms: C_9  and  C_10
REMARK    8  A    between atoms: C_10  and  C_11
REMARK    9  A    between atoms: C_11  and  O_13
REMARK   10  A    between atoms: O_13  and  C_14
REMARK   11  A    between atoms: C_14  and  C_15
REMARK   12  A    between atoms: C_15  and  N_16
REMARK   13  A    between atoms: C_22  and  O_23
REMARK   14  A    between atoms: C_30  and  C_31
REMARK                            x       y       z     vdW  Elec       q    Type
REMARK                         _______ _______ _______ _____ _____    ______ ____
ROOT
ATOM      1  C   UNL     1      -7.022  -0.907 127.382  0.00  0.00    +0.000 C 
ENDROOT
BRANCH   1   3
ATOM      2  C   UNL     1      -8.375  -1.115 125.177  0.00  0.00    +0.000 A 
ATOM      3  C   UNL     1      -7.792  -0.326 126.204  0.00  0.00    +0.000 A 
ATOM      4  C   UNL     1      -7.913   1.084 126.103  0.00  0.00    +0.000 A 
ATOM      5  C   UNL     1      -8.454   1.643 124.953  0.00  0.00    +0.000 A 
ATOM      6  C   UNL     1      -8.674   3.055 124.595  0.00  0.00    +0.000 C 
ATOM      7  O   UNL     1      -8.608   4.033 125.291  0.00  0.00    +0.000 OA
ATOM      8  O   UNL     1      -9.016   3.054 123.263  0.00  0.00    +0.000 OA
ATOM      9  C   UNL     1      -9.363   1.738 122.814  0.00  0.00    +0.000 C 
ATOM     10  C   UNL     1      -8.862   0.863 123.894  0.00  0.00    +0.000 A 
ATOM     11  C   UNL     1      -8.821  -0.523 123.973  0.00  0.00    +0.000 A 
ATOM     12  C   UNL     1      -9.209  -1.384 122.805  0.00  0.00    +0.000 C 
BRANCH   2  14
ATOM     13  C   UNL     1      -9.538  -3.073 125.928  0.00  0.00    +0.000 C 
ATOM     14  O   UNL     1      -8.462  -2.485 125.191  0.00  0.00    +0.000 OA
ENDBRANCH   2  14
BRANCH   4  15
ATOM     15  O   UNL     1      -7.500   1.935 127.088  0.00  0.00    +0.000 OA
ATOM     16  H   UNL     1      -7.875   1.709 127.951  0.00  0.00    +0.000 HD
ENDBRANCH   4  15
ENDBRANCH   1   3
BRANCH   1  17
ATOM     17  C   UNL     1      -7.599  -0.713 128.770  0.00  0.00    +0.000 C 
ATOM     18  C   UNL     1      -7.741  -1.715 129.657  0.00  0.00    +0.000 C 
ATOM     19  C   UNL     1      -7.945  -3.114 129.165  0.00  0.00    +0.000 C 
BRANCH  18  20
ATOM     20  C   UNL     1      -7.740  -1.440 131.155  0.00  0.00    +0.000 C 
BRANCH  20  21
ATOM     21  C   UNL     1      -7.513   0.026 131.494  0.00  0.00    +0.000 C 
BRANCH  21  22
ATOM     22  C   UNL     1      -8.722   0.632 132.134  0.00  0.00    +0.000 C 
ATOM     23  O   UNL     1      -9.879   0.314 131.895  0.00  0.00    +0.000 OA
BRANCH  22  24
ATOM     24  O   UNL     1      -8.336   1.594 133.027  0.00  0.00    +0.000 OA
BRANCH  24  25
ATOM     25  C   UNL     1      -9.135   2.776 132.910  0.00  0.00    +0.000 C 
BRANCH  25  26
ATOM     26  C   UNL     1      -8.618   3.687 131.789  0.00  0.00    +0.000 C 
BRANCH  26  27
ATOM     27  N   UNL     1      -9.090   3.518 130.397  0.00  0.00    +0.000 NA
ATOM     28  C   UNL     1      -8.681   4.480 129.344  0.00  0.00    +0.000 C 
ATOM     29  C   UNL     1      -9.389   5.848 129.397  0.00  0.00    +0.000 C 
ATOM     30  O   UNL     1     -10.818   5.709 129.468  0.00  0.00    +0.000 OA
ATOM     31  C   UNL     1     -11.226   4.830 130.519  0.00  0.00    +0.000 C 
ATOM     32  C   UNL     1     -10.565   3.452 130.391  0.00  0.00    +0.000 C 
ENDBRANCH  26  27
ENDBRANCH  25  26
ENDBRANCH  24  25
ENDBRANCH  22  24
ENDBRANCH  21  22
ENDBRANCH  20  21
ENDBRANCH  18  20
ENDBRANCH   1  17
TORSDOF 11
ENDMDL
MODEL 8
REMARK VINA RESULT:      -6.5      5.110      8.248
REMARK  Name = Mycophenolate mofetil
REMARK  14 active torsions:
REMARK  status: ('A' for Active; 'I' for Inactive)
REMARK    1  A    between atoms: C_1  and  O_2
REMARK    2  A    between atoms: O_2  and  C_3
REMARK    3  A    between atoms: C_4  and  C_5
REMARK    4  A    between atoms: C_5  and  C_6
REMARK    5  A    between atoms: C_7  and  C_8
REMARK    6  A    between atoms: C_7  and  C_9
REMARK    7  A    between atoms: C_9  and  C_10
REMARK    8  A    between atoms: C_10  and  C_11
REMARK    9  A    between atoms: C_11  and  O_13
REMARK   10  A    between atoms: O_13  and  C_14
REMARK   11  A    between atoms: C_14  and  C_15
REMARK   12  A    between atoms: C_15  and  N_16
REMARK   13  A    between atoms: C_22  and  O_23
REMARK   14  A    between atoms: C_30  and  C_31
REMARK                            x       y       z     vdW  Elec       q    Type
REMARK                         _______ _______ _______ _____ _____    ______ ____
ROOT
ATOM      1  C   UNL     1      -7.000   2.744 128.180  0.00  0.00    +0.000 C 
ENDROOT
BRANCH   1   3
ATOM      2  C   UNL     1      -6.157   3.250 125.778  0.00  0.00    +0.000 A 
ATOM      3  C   UNL     1      -7.129   2.714 126.664  0.00  0.00    +0.000 A 
ATOM      4  C   UNL     1      -8.299   2.147 126.095  0.00  0.00    +0.000 A 
ATOM      5  C   UNL     1      -8.522   2.265 124.730  0.00  0.00    +0.000 A 
ATOM      6  C   UNL     1      -9.645   1.786 123.905  0.00  0.00    +0.000 C 
ATOM      7  O   UNL     1     -10.528   1.025 124.195  0.00  0.00    +0.000 OA
ATOM      8  O   UNL     1      -9.478   2.371 122.671  0.00  0.00    +0.000 OA
ATOM      9  C   UNL     1      -8.161   2.918 122.527  0.00  0.00    +0.000 C 
ATOM     10  C   UNL     1      -7.643   2.938 123.910  0.00  0.00    +0.000 A 
ATOM     11  C   UNL     1      -6.455   3.455 124.412  0.00  0.00    +0.000 A 
ATOM     12  C   UNL     1      -5.516   4.239 123.541  0.00  0.00    +0.000 C 
BRANCH   2  14
ATOM     13  C   UNL     1      -3.932   2.744 126.515  0.00  0.00    +0.000 C 
ATOM     14  O   UNL     1      -4.921   3.713 126.155  0.00  0.00    +0.000 OA
ENDBRANCH   2  14
BRANCH   4  15
ATOM     15  O   UNL     1      -9.242   1.495 126.838  0.00  0.00    +0.000 OA
ATOM     16  H   UNL     1      -9.243   0.541 126.677  0.00  0.00    +0.000 HD
ENDBRANCH   4  15
ENDBRANCH   1   3
BRANCH   1  17
ATOM     17  C   UNL     1      -6.435   1.517 128.868  0.00  0.00    +0.000 C 
ATOM     18  C   UNL     1      -7.187   0.658 129.581  0.00  0.00    +0.000 C 
ATOM     19  C   UNL     1      -8.426   1.150 130.261  0.00  0.00    +0.000 C 
BRANCH  18  20
ATOM     20  C   UNL     1      -6.772  -0.798 129.742  0.00  0.00    +0.000 C 
BRANCH  20  21
ATOM     21  C   UNL     1      -7.949  -1.732 129.984  0.00  0.00    +0.000 C 
BRANCH  21  22
ATOM     22  C   UNL     1      -7.725  -3.068 129.350  0.00  0.00    +0.000 C 
ATOM     23  O   UNL     1      -6.867  -3.873 129.689  0.00  0.00    +0.000 OA
BRANCH  22  24
ATOM     24  O   UNL     1      -8.625  -3.253 128.336  0.00  0.00    +0.000 OA
BRANCH  24  25
ATOM     25  C   UNL     1      -8.143  -2.721 127.097  0.00  0.00    +0.000 C 
BRANCH  25  26
ATOM     26  C   UNL     1      -9.098  -3.049 125.943  0.00  0.00    +0.000 C 
BRANCH  26  27
ATOM     27  N   UNL     1      -8.608  -3.723 124.721  0.00  0.00    +0.000 NA
ATOM     28  C   UNL     1      -7.176  -3.643 124.343  0.00  0.00    +0.000 C 
ATOM     29  C   UNL     1      -6.731  -2.291 123.752  0.00  0.00    +0.000 C 
ATOM     30  O   UNL     1      -7.591  -1.865 122.681  0.00  0.00    +0.000 OA
ATOM     31  C   UNL     1      -8.972  -1.882 123.055  0.00  0.00    +0.000 C 
ATOM     32  C   UNL     1      -9.401  -3.264 123.563  0.00  0.00    +0.000 C 
ENDBRANCH  26  27
ENDBRANCH  25  26
ENDBRANCH  24  25
ENDBRANCH  22  24
ENDBRANCH  21  22
ENDBRANCH  20  21
ENDBRANCH  18  20
ENDBRANCH   1  17
TORSDOF 11
ENDMDL
MODEL 9
REMARK VINA RESULT:      -6.5      3.215      5.789
REMARK  Name = Mycophenolate mofetil
REMARK  14 active torsions:
REMARK  status: ('A' for Active; 'I' for Inactive)
REMARK    1  A    between atoms: C_1  and  O_2
REMARK    2  A    between atoms: O_2  and  C_3
REMARK    3  A    between atoms: C_4  and  C_5
REMARK    4  A    between atoms: C_5  and  C_6
REMARK    5  A    between atoms: C_7  and  C_8
REMARK    6  A    between atoms: C_7  and  C_9
REMARK    7  A    between atoms: C_9  and  C_10
REMARK    8  A    between atoms: C_10  and  C_11
REMARK    9  A    between atoms: C_11  and  O_13
REMARK   10  A    between atoms: O_13  and  C_14
REMARK   11  A    between atoms: C_14  and  C_15
REMARK   12  A    between atoms: C_15  and  N_16
REMARK   13  A    between atoms: C_22  and  O_23
REMARK   14  A    between atoms: C_30  and  C_31
REMARK                            x       y       z     vdW  Elec       q    Type
REMARK                         _______ _______ _______ _____ _____    ______ ____
ROOT
ATOM      1  C   UNL     1      -5.212   0.240 125.858  0.00  0.00    +0.000 C 
ENDROOT
BRANCH   1   3
ATOM      2  C   UNL     1      -7.205  -1.419 125.758  0.00  0.00    +0.000 A 
ATOM      3  C   UNL     1      -6.074  -0.879 126.426  0.00  0.00    +0.000 A 
ATOM      4  C   UNL     1      -5.755  -1.396 127.708  0.00  0.00    +0.000 A 
ATOM      5  C   UNL     1      -6.624  -2.288 128.322  0.00  0.00    +0.000 A 
ATOM      6  C   UNL     1      -6.535  -2.951 129.634  0.00  0.00    +0.000 C 
ATOM      7  O   UNL     1      -5.603  -3.014 130.390  0.00  0.00    +0.000 OA
ATOM      8  O   UNL     1      -7.761  -3.539 129.839  0.00  0.00    +0.000 OA
ATOM      9  C   UNL     1      -8.521  -3.598 128.625  0.00  0.00    +0.000 C 
ATOM     10  C   UNL     1      -7.804  -2.672 127.724  0.00  0.00    +0.000 A 
ATOM     11  C   UNL     1      -8.128  -2.241 126.445  0.00  0.00    +0.000 A 
ATOM     12  C   UNL     1      -9.437  -2.607 125.805  0.00  0.00    +0.000 C 
BRANCH   2  14
ATOM     13  C   UNL     1      -6.847  -1.764 123.412  0.00  0.00    +0.000 C 
ATOM     14  O   UNL     1      -7.572  -1.126 124.469  0.00  0.00    +0.000 OA
ENDBRANCH   2  14
BRANCH   4  15
ATOM     15  O   UNL     1      -4.625  -1.041 128.389  0.00  0.00    +0.000 OA
ATOM     16  H   UNL     1      -4.637  -0.113 128.662  0.00  0.00    +0.000 HD
ENDBRANCH   4  15
ENDBRANCH   1   3
BRANCH   1  17
ATOM     17  C   UNL     1      -5.192   1.564 126.597  0.00  0.00    +0.000 C 
ATOM     18  C   UNL     1      -6.263   2.374 126.690  0.00  0.00    +0.000 C 
ATOM     19  C   UNL     1      -7.294   2.363 125.605  0.00  0.00    +0.000 C 
BRANCH  18  20
ATOM     20  C   UNL     1      -6.419   3.332 127.863  0.00  0.00    +0.000 C 
BRANCH  20  21
ATOM     21  C   UNL     1      -7.817   3.923 127.970  0.00  0.00    +0.000 C 
BRANCH  21  22
ATOM     22  C   UNL     1      -8.314   3.900 129.381  0.00  0.00    +0.000 C 
ATOM     23  O   UNL     1      -7.609   4.000 130.376  0.00  0.00    +0.000 OA
BRANCH  22  24
ATOM     24  O   UNL     1      -9.674   3.750 129.388  0.00  0.00    +0.000 OA
BRANCH  24  25
ATOM     25  C   UNL     1     -10.273   4.405 130.511  0.00  0.00    +0.000 C 
BRANCH  25  26
ATOM     26  C   UNL     1     -10.758   5.813 130.141  0.00  0.00    +0.000 C 
BRANCH  26  27
ATOM     27  N   UNL     1     -11.271   6.105 128.785  0.00  0.00    +0.000 NA
ATOM     28  C   UNL     1     -10.549   7.048 127.896  0.00  0.00    +0.000 C 
ATOM     29  C   UNL     1     -10.708   8.538 128.256  0.00  0.00    +0.000 C 
ATOM     30  O   UNL     1     -12.088   8.906 128.416  0.00  0.00    +0.000 OA
ATOM     31  C   UNL     1     -12.780   8.039 129.318  0.00  0.00    +0.000 C 
ATOM     32  C   UNL     1     -12.668   6.571 128.887  0.00  0.00    +0.000 C 
ENDBRANCH  26  27
ENDBRANCH  25  26
ENDBRANCH  24  25
ENDBRANCH  22  24
ENDBRANCH  21  22
ENDBRANCH  20  21
ENDBRANCH  18  20
ENDBRANCH   1  17
TORSDOF 11
ENDMDL
