MODEL 1
REMARK VINA RESULT:      -6.6      0.000      0.000
REMARK  Name = N-acetyltyrosine
REMARK  7 active torsions:
REMARK  status: ('A' for Active; 'I' for Inactive)
REMARK    1  A    between atoms: C_1  and  C_2
REMARK    2  A    between atoms: N_4  and  CA_5
REMARK    3  A    between atoms: CA_5  and  CB_6
REMARK    4  A    between atoms: CA_5  and  C_14
REMARK    5  A    between atoms: CB_6  and  CG_7
REMARK    6  A    between atoms: CZ_10  and  OH_11
REMARK    7  A    between atoms: C_14  and  O_15
REMARK                            x       y       z     vdW  Elec       q    Type
REMARK                         _______ _______ _______ _____ _____    ______ ____
ROOT
ATOM      1  CA  TYR A   1     -10.826   7.901 127.791  0.00  0.00    +0.000 C 
ENDROOT
BRANCH   1   5
ATOM      2  C   UNK A   0     -13.532  10.299 129.123  0.00  0.00    +0.000 C 
ATOM      3  C   UNK A   0     -12.950   9.052 128.538  0.00  0.00    +0.000 C 
ATOM      4  O   UNK A   0     -13.707   8.131 128.254  0.00  0.00    +0.000 OA
ATOM      5  N   TYR A   1     -11.573   9.016 128.445  0.00  0.00    +0.000 N 
ATOM      6  H   TYR A   1     -11.107   9.701 129.012  0.00  0.00    +0.000 HD
ENDBRANCH   1   5
BRANCH   1   7
ATOM      7  C   TYR A   1     -11.198   7.575 126.319  0.00  0.00    +0.000 C 
ATOM      8  OXT TYR A   1     -10.696   8.147 125.358  0.00  0.00    +0.000 OA
BRANCH   7   9
ATOM      9  O   TYR A   1     -12.121   6.612 126.117  0.00  0.00    +0.000 OA
ATOM     10  H   TYR A   1     -12.068   5.817 126.662  0.00  0.00    +0.000 HD
ENDBRANCH   7   9
ENDBRANCH   1   7
BRANCH   1  11
ATOM     11  CB  TYR A   1     -10.963   6.562 128.578  0.00  0.00    +0.000 C 
BRANCH  11  12
ATOM     12  CG  TYR A   1     -10.451   6.591 130.002  0.00  0.00    +0.000 A 
ATOM     13  CD1 TYR A   1     -11.334   6.417 131.084  0.00  0.00    +0.000 A 
ATOM     14  CE1 TYR A   1     -10.846   6.220 132.380  0.00  0.00    +0.000 A 
ATOM     15  CZ  TYR A   1      -9.477   6.286 132.609  0.00  0.00    +0.000 A 
ATOM     16  CE2 TYR A   1      -8.594   6.529 131.563  0.00  0.00    +0.000 A 
ATOM     17  CD2 TYR A   1      -9.076   6.669 130.259  0.00  0.00    +0.000 A 
BRANCH  15  18
ATOM     18  OH  TYR A   1      -8.951   6.087 133.851  0.00  0.00    +0.000 OA
ATOM     19  HH  TYR A   1      -8.037   6.418 133.850  0.00  0.00    +0.000 HD
ENDBRANCH  15  18
ENDBRANCH  11  12
ENDBRANCH   1  11
TORSDOF 6
ENDMDL
MODEL 2
REMARK VINA RESULT:      -6.2      9.839     11.580
REMARK  Name = N-acetyltyrosine
REMARK  7 active torsions:
REMARK  status: ('A' for Active; 'I' for Inactive)
REMARK    1  A    between atoms: C_1  and  C_2
REMARK    2  A    between atoms: N_4  and  CA_5
REMARK    3  A    between atoms: CA_5  and  CB_6
REMARK    4  A    between atoms: CA_5  and  C_14
REMARK    5  A    between atoms: CB_6  and  CG_7
REMARK    6  A    between atoms: CZ_10  and  OH_11
REMARK    7  A    between atoms: C_14  and  O_15
REMARK                            x       y       z     vdW  Elec       q    Type
REMARK                         _______ _______ _______ _____ _____    ______ ____
ROOT
ATOM      1  CA  TYR A   1      -7.932  -2.512 124.264  0.00  0.00    +0.000 C 
ENDROOT
BRANCH   1   5
ATOM      2  C   UNK A   0      -4.636  -4.433 123.734  0.00  0.00    +0.000 C 
ATOM      3  C   UNK A   0      -5.533  -3.284 124.062  0.00  0.00    +0.000 C 
ATOM      4  O   UNK A   0      -5.022  -2.214 124.375  0.00  0.00    +0.000 OA
ATOM      5  N   TYR A   1      -6.886  -3.558 124.065  0.00  0.00    +0.000 N 
ATOM      6  H   TYR A   1      -7.105  -4.537 124.109  0.00  0.00    +0.000 HD
ENDBRANCH   1   5
BRANCH   1   7
ATOM      7  C   TYR A   1      -9.380  -3.008 124.529  0.00  0.00    +0.000 C 
ATOM      8  OXT TYR A   1      -9.907  -2.976 125.635  0.00  0.00    +0.000 OA
BRANCH   7   9
ATOM      9  O   TYR A   1     -10.067  -3.493 123.473  0.00  0.00    +0.000 OA
ATOM     10  H   TYR A   1     -10.202  -2.907 122.718  0.00  0.00    +0.000 HD
ENDBRANCH   7   9
ENDBRANCH   1   7
BRANCH   1  11
ATOM     11  CB  TYR A   1      -8.025  -1.536 123.051  0.00  0.00    +0.000 C 
BRANCH  11  12
ATOM     12  CG  TYR A   1      -8.262  -0.083 123.403  0.00  0.00    +0.000 A 
ATOM     13  CD1 TYR A   1      -9.537   0.492 123.254  0.00  0.00    +0.000 A 
ATOM     14  CE1 TYR A   1      -9.818   1.757 123.781  0.00  0.00    +0.000 A 
ATOM     15  CZ  TYR A   1      -8.797   2.485 124.380  0.00  0.00    +0.000 A 
ATOM     16  CE2 TYR A   1      -7.512   1.963 124.473  0.00  0.00    +0.000 A 
ATOM     17  CD2 TYR A   1      -7.244   0.677 123.998  0.00  0.00    +0.000 A 
BRANCH  15  18
ATOM     18  OH  TYR A   1      -9.022   3.716 124.923  0.00  0.00    +0.000 OA
ATOM     19  HH  TYR A   1      -9.690   3.621 125.622  0.00  0.00    +0.000 HD
ENDBRANCH  15  18
ENDBRANCH  11  12
ENDBRANCH   1  11
TORSDOF 6
ENDMDL
MODEL 3
REMARK VINA RESULT:      -6.0      8.001     10.342
REMARK  Name = N-acetyltyrosine
REMARK  7 active torsions:
REMARK  status: ('A' for Active; 'I' for Inactive)
REMARK    1  A    between atoms: C_1  and  C_2
REMARK    2  A    between atoms: N_4  and  CA_5
REMARK    3  A    between atoms: CA_5  and  CB_6
REMARK    4  A    between atoms: CA_5  and  C_14
REMARK    5  A    between atoms: CB_6  and  CG_7
REMARK    6  A    between atoms: CZ_10  and  OH_11
REMARK    7  A    between atoms: C_14  and  O_15
REMARK                            x       y       z     vdW  Elec       q    Type
REMARK                         _______ _______ _______ _____ _____    ______ ____
ROOT
ATOM      1  CA  TYR A   1      -7.886   1.537 123.905  0.00  0.00    +0.000 C 
ENDROOT
BRANCH   1   5
ATOM      2  C   UNK A   0      -8.463  -2.137 122.898  0.00  0.00    +0.000 C 
ATOM      3  C   UNK A   0      -8.789  -0.700 123.146  0.00  0.00    +0.000 C 
ATOM      4  O   UNK A   0      -9.935  -0.316 122.937  0.00  0.00    +0.000 OA
ATOM      5  N   TYR A   1      -7.730   0.104 123.515  0.00  0.00    +0.000 N 
ATOM      6  H   TYR A   1      -6.828  -0.293 123.322  0.00  0.00    +0.000 HD
ENDBRANCH   1   5
BRANCH   1   7
ATOM      7  C   TYR A   1      -9.020   1.870 124.912  0.00  0.00    +0.000 C 
ATOM      8  OXT TYR A   1      -8.882   1.787 126.127  0.00  0.00    +0.000 OA
BRANCH   7   9
ATOM      9  O   TYR A   1     -10.203   2.267 124.398  0.00  0.00    +0.000 OA
ATOM     10  H   TYR A   1     -10.237   3.128 123.962  0.00  0.00    +0.000 HD
ENDBRANCH   7   9
ENDBRANCH   1   7
BRANCH   1  11
ATOM     11  CB  TYR A   1      -8.121   2.459 122.669  0.00  0.00    +0.000 C 
BRANCH  11  12
ATOM     12  CG  TYR A   1      -6.918   3.259 122.218  0.00  0.00    +0.000 A 
ATOM     13  CD1 TYR A   1      -6.760   3.613 120.866  0.00  0.00    +0.000 A 
ATOM     14  CE1 TYR A   1      -5.780   4.532 120.477  0.00  0.00    +0.000 A 
ATOM     15  CZ  TYR A   1      -4.898   5.029 121.430  0.00  0.00    +0.000 A 
ATOM     16  CE2 TYR A   1      -4.993   4.635 122.759  0.00  0.00    +0.000 A 
ATOM     17  CD2 TYR A   1      -6.007   3.761 123.158  0.00  0.00    +0.000 A 
BRANCH  15  18
ATOM     18  OH  TYR A   1      -3.935   5.938 121.105  0.00  0.00    +0.000 OA
ATOM     19  HH  TYR A   1      -4.206   6.389 120.288  0.00  0.00    +0.000 HD
ENDBRANCH  15  18
ENDBRANCH  11  12
ENDBRANCH   1  11
TORSDOF 6
ENDMDL
MODEL 4
REMARK VINA RESULT:      -5.9      8.609     10.950
REMARK  Name = N-acetyltyrosine
REMARK  7 active torsions:
REMARK  status: ('A' for Active; 'I' for Inactive)
REMARK    1  A    between atoms: C_1  and  C_2
REMARK    2  A    between atoms: N_4  and  CA_5
REMARK    3  A    between atoms: CA_5  and  CB_6
REMARK    4  A    between atoms: CA_5  and  C_14
REMARK    5  A    between atoms: CB_6  and  CG_7
REMARK    6  A    between atoms: CZ_10  and  OH_11
REMARK    7  A    between atoms: C_14  and  O_15
REMARK                            x       y       z     vdW  Elec       q    Type
REMARK                         _______ _______ _______ _____ _____    ______ ____
ROOT
ATOM      1  CA  TYR A   1      -8.274   1.125 123.942  0.00  0.00    +0.000 C 
ENDROOT
BRANCH   1   5
ATOM      2  C   UNK A   0      -6.249  -1.864 122.599  0.00  0.00    +0.000 C 
ATOM      3  C   UNK A   0      -7.205  -1.117 123.472  0.00  0.00    +0.000 C 
ATOM      4  O   UNK A   0      -7.771  -1.726 124.374  0.00  0.00    +0.000 OA
ATOM      5  N   TYR A   1      -7.435   0.198 123.125  0.00  0.00    +0.000 N 
ATOM      6  H   TYR A   1      -7.151   0.431 122.191  0.00  0.00    +0.000 HD
ENDBRANCH   1   5
BRANCH   1   7
ATOM      7  C   TYR A   1      -9.808   1.082 123.699  0.00  0.00    +0.000 C 
ATOM      8  OXT TYR A   1     -10.334   0.350 122.868  0.00  0.00    +0.000 OA
BRANCH   7   9
ATOM      9  O   TYR A   1     -10.573   1.899 124.453  0.00  0.00    +0.000 OA
ATOM     10  H   TYR A   1     -10.890   1.562 125.300  0.00  0.00    +0.000 HD
ENDBRANCH   7   9
ENDBRANCH   1   7
BRANCH   1  11
ATOM     11  CB  TYR A   1      -7.851   2.615 123.759  0.00  0.00    +0.000 C 
BRANCH  11  12
ATOM     12  CG  TYR A   1      -7.608   3.050 122.329  0.00  0.00    +0.000 A 
ATOM     13  CD1 TYR A   1      -8.688   3.341 121.475  0.00  0.00    +0.000 A 
ATOM     14  CE1 TYR A   1      -8.475   3.952 120.236  0.00  0.00    +0.000 A 
ATOM     15  CZ  TYR A   1      -7.174   4.191 119.810  0.00  0.00    +0.000 A 
ATOM     16  CE2 TYR A   1      -6.091   3.844 120.609  0.00  0.00    +0.000 A 
ATOM     17  CD2 TYR A   1      -6.304   3.285 121.872  0.00  0.00    +0.000 A 
BRANCH  15  18
ATOM     18  OH  TYR A   1      -6.914   4.798 118.617  0.00  0.00    +0.000 OA
ATOM     19  HH  TYR A   1      -6.468   4.155 118.040  0.00  0.00    +0.000 HD
ENDBRANCH  15  18
ENDBRANCH  11  12
ENDBRANCH   1  11
TORSDOF 6
ENDMDL
MODEL 5
REMARK VINA RESULT:      -5.9      6.918      9.761
REMARK  Name = N-acetyltyrosine
REMARK  7 active torsions:
REMARK  status: ('A' for Active; 'I' for Inactive)
REMARK    1  A    between atoms: C_1  and  C_2
REMARK    2  A    between atoms: N_4  and  CA_5
REMARK    3  A    between atoms: CA_5  and  CB_6
REMARK    4  A    between atoms: CA_5  and  C_14
REMARK    5  A    between atoms: CB_6  and  CG_7
REMARK    6  A    between atoms: CZ_10  and  OH_11
REMARK    7  A    between atoms: C_14  and  O_15
REMARK                            x       y       z     vdW  Elec       q    Type
REMARK                         _______ _______ _______ _____ _____    ______ ____
ROOT
ATOM      1  CA  TYR A   1      -6.632   3.910 124.826  0.00  0.00    +0.000 C 
ENDROOT
BRANCH   1   5
ATOM      2  C   UNK A   0      -3.745   4.044 127.373  0.00  0.00    +0.000 C 
ATOM      3  C   UNK A   0      -4.864   4.544 126.518  0.00  0.00    +0.000 C 
ATOM      4  O   UNK A   0      -5.140   5.739 126.557  0.00  0.00    +0.000 OA
ATOM      5  N   TYR A   1      -5.557   3.584 125.809  0.00  0.00    +0.000 N 
ATOM      6  H   TYR A   1      -5.414   2.648 126.141  0.00  0.00    +0.000 HD
ENDBRANCH   1   5
BRANCH   1   7
ATOM      7  C   TYR A   1      -8.016   4.312 125.406  0.00  0.00    +0.000 C 
ATOM      8  OXT TYR A   1      -9.024   3.629 125.267  0.00  0.00    +0.000 OA
BRANCH   7   9
ATOM      9  O   TYR A   1      -8.083   5.473 126.089  0.00  0.00    +0.000 OA
ATOM     10  H   TYR A   1      -8.055   5.429 127.053  0.00  0.00    +0.000 HD
ENDBRANCH   7   9
ENDBRANCH   1   7
BRANCH   1  11
ATOM     11  CB  TYR A   1      -6.903   2.731 123.841  0.00  0.00    +0.000 C 
BRANCH  11  12
ATOM     12  CG  TYR A   1      -7.033   3.120 122.384  0.00  0.00    +0.000 A 
ATOM     13  CD1 TYR A   1      -8.302   3.257 121.790  0.00  0.00    +0.000 A 
ATOM     14  CE1 TYR A   1      -8.439   3.828 120.521  0.00  0.00    +0.000 A 
ATOM     15  CZ  TYR A   1      -7.300   4.179 119.806  0.00  0.00    +0.000 A 
ATOM     16  CE2 TYR A   1      -6.035   3.984 120.348  0.00  0.00    +0.000 A 
ATOM     17  CD2 TYR A   1      -5.898   3.467 121.639  0.00  0.00    +0.000 A 
BRANCH  15  18
ATOM     18  OH  TYR A   1      -7.380   4.752 118.572  0.00  0.00    +0.000 OA
ATOM     19  HH  TYR A   1      -7.989   4.222 118.031  0.00  0.00    +0.000 HD
ENDBRANCH  15  18
ENDBRANCH  11  12
ENDBRANCH   1  11
TORSDOF 6
ENDMDL
MODEL 6
REMARK VINA RESULT:      -5.8      2.840      5.833
REMARK  Name = N-acetyltyrosine
REMARK  7 active torsions:
REMARK  status: ('A' for Active; 'I' for Inactive)
REMARK    1  A    between atoms: C_1  and  C_2
REMARK    2  A    between atoms: N_4  and  CA_5
REMARK    3  A    between atoms: CA_5  and  CB_6
REMARK    4  A    between atoms: CA_5  and  C_14
REMARK    5  A    between atoms: CB_6  and  CG_7
REMARK    6  A    between atoms: CZ_10  and  OH_11
REMARK    7  A    between atoms: C_14  and  O_15
REMARK                            x       y       z     vdW  Elec       q    Type
REMARK                         _______ _______ _______ _____ _____    ______ ____
ROOT
ATOM      1  CA  TYR A   1      -9.643   5.337 131.514  0.00  0.00    +0.000 C 
ENDROOT
BRANCH   1   5
ATOM      2  C   UNK A   0      -7.659   4.192 134.612  0.00  0.00    +0.000 C 
ATOM      3  C   UNK A   0      -8.768   4.226 133.610  0.00  0.00    +0.000 C 
ATOM      4  O   UNK A   0      -9.703   3.445 133.747  0.00  0.00    +0.000 OA
ATOM      5  N   TYR A   1      -8.596   5.093 132.550  0.00  0.00    +0.000 N 
ATOM      6  H   TYR A   1      -7.650   5.403 132.425  0.00  0.00    +0.000 HD
ENDBRANCH   1   5
BRANCH   1   7
ATOM      7  C   TYR A   1      -9.995   4.149 130.578  0.00  0.00    +0.000 C 
ATOM      8  OXT TYR A   1      -9.431   3.950 129.508  0.00  0.00    +0.000 OA
BRANCH   7   9
ATOM      9  O   TYR A   1     -10.973   3.313 130.985  0.00  0.00    +0.000 OA
ATOM     10  H   TYR A   1     -10.955   3.014 131.903  0.00  0.00    +0.000 HD
ENDBRANCH   7   9
ENDBRANCH   1   7
BRANCH   1  11
ATOM     11  CB  TYR A   1      -9.276   6.530 130.579  0.00  0.00    +0.000 C 
BRANCH  11  12
ATOM     12  CG  TYR A   1     -10.452   7.253 129.958  0.00  0.00    +0.000 A 
ATOM     13  CD1 TYR A   1     -11.654   7.413 130.673  0.00  0.00    +0.000 A 
ATOM     14  CE1 TYR A   1     -12.658   8.264 130.202  0.00  0.00    +0.000 A 
ATOM     15  CZ  TYR A   1     -12.500   8.886 128.969  0.00  0.00    +0.000 A 
ATOM     16  CE2 TYR A   1     -11.351   8.683 128.214  0.00  0.00    +0.000 A 
ATOM     17  CD2 TYR A   1     -10.322   7.878 128.710  0.00  0.00    +0.000 A 
BRANCH  15  18
ATOM     18  OH  TYR A   1     -13.443   9.736 128.472  0.00  0.00    +0.000 OA
ATOM     19  HH  TYR A   1     -13.205   9.951 127.555  0.00  0.00    +0.000 HD
ENDBRANCH  15  18
ENDBRANCH  11  12
ENDBRANCH   1  11
TORSDOF 6
ENDMDL
MODEL 7
REMARK VINA RESULT:      -5.7      8.420     10.083
REMARK  Name = N-acetyltyrosine
REMARK  7 active torsions:
REMARK  status: ('A' for Active; 'I' for Inactive)
REMARK    1  A    between atoms: C_1  and  C_2
REMARK    2  A    between atoms: N_4  and  CA_5
REMARK    3  A    between atoms: CA_5  and  CB_6
REMARK    4  A    between atoms: CA_5  and  C_14
REMARK    5  A    between atoms: CB_6  and  CG_7
REMARK    6  A    between atoms: CZ_10  and  OH_11
REMARK    7  A    between atoms: C_14  and  O_15
REMARK                            x       y       z     vdW  Elec       q    Type
REMARK                         _______ _______ _______ _____ _____    ______ ____
ROOT
ATOM      1  CA  TYR A   1      -7.499   2.213 123.518  0.00  0.00    +0.000 C 
ENDROOT
BRANCH   1   5
ATOM      2  C   UNK A   0      -5.313   4.144 121.002  0.00  0.00    +0.000 C 
ATOM      3  C   UNK A   0      -6.553   3.568 121.604  0.00  0.00    +0.000 C 
ATOM      4  O   UNK A   0      -7.621   3.752 121.031  0.00  0.00    +0.000 OA
ATOM      5  N   TYR A   1      -6.395   2.938 122.822  0.00  0.00    +0.000 N 
ATOM      6  H   TYR A   1      -5.536   3.162 123.290  0.00  0.00    +0.000 HD
ENDBRANCH   1   5
BRANCH   1   7
ATOM      7  C   TYR A   1      -8.444   3.063 124.410  0.00  0.00    +0.000 C 
ATOM      8  OXT TYR A   1      -9.411   2.594 124.999  0.00  0.00    +0.000 OA
BRANCH   7   9
ATOM      9  O   TYR A   1      -8.165   4.379 124.524  0.00  0.00    +0.000 OA
ATOM     10  H   TYR A   1      -7.480   4.744 123.949  0.00  0.00    +0.000 HD
ENDBRANCH   7   9
ENDBRANCH   1   7
BRANCH   1  11
ATOM     11  CB  TYR A   1      -6.965   1.064 124.428  0.00  0.00    +0.000 C 
BRANCH  11  12
ATOM     12  CG  TYR A   1      -7.656  -0.272 124.259  0.00  0.00    +0.000 A 
ATOM     13  CD1 TYR A   1      -8.257  -0.911 125.359  0.00  0.00    +0.000 A 
ATOM     14  CE1 TYR A   1      -9.083  -2.024 125.176  0.00  0.00    +0.000 A 
ATOM     15  CZ  TYR A   1      -9.236  -2.554 123.900  0.00  0.00    +0.000 A 
ATOM     16  CE2 TYR A   1      -8.592  -1.979 122.811  0.00  0.00    +0.000 A 
ATOM     17  CD2 TYR A   1      -7.813  -0.833 122.984  0.00  0.00    +0.000 A 
BRANCH  15  18
ATOM     18  OH  TYR A   1     -10.042  -3.629 123.666  0.00  0.00    +0.000 OA
ATOM     19  HH  TYR A   1     -10.610  -3.422 122.905  0.00  0.00    +0.000 HD
ENDBRANCH  15  18
ENDBRANCH  11  12
ENDBRANCH   1  11
TORSDOF 6
ENDMDL
MODEL 8
REMARK VINA RESULT:      -5.7      9.797     10.947
REMARK  Name = N-acetyltyrosine
REMARK  7 active torsions:
REMARK  status: ('A' for Active; 'I' for Inactive)
REMARK    1  A    between atoms: C_1  and  C_2
REMARK    2  A    between atoms: N_4  and  CA_5
REMARK    3  A    between atoms: CA_5  and  CB_6
REMARK    4  A    between atoms: CA_5  and  C_14
REMARK    5  A    between atoms: CB_6  and  CG_7
REMARK    6  A    between atoms: CZ_10  and  OH_11
REMARK    7  A    between atoms: C_14  and  O_15
REMARK                            x       y       z     vdW  Elec       q    Type
REMARK                         _______ _______ _______ _____ _____    ______ ____
ROOT
ATOM      1  CA  TYR A   1      -8.517   0.314 123.350  0.00  0.00    +0.000 C 
ENDROOT
BRANCH   1   5
ATOM      2  C   UNK A   0      -8.674   1.191 127.098  0.00  0.00    +0.000 C 
ATOM      3  C   UNK A   0      -9.152   0.718 125.764  0.00  0.00    +0.000 C 
ATOM      4  O   UNK A   0     -10.316   0.347 125.658  0.00  0.00    +0.000 OA
ATOM      5  N   TYR A   1      -8.199   0.660 124.767  0.00  0.00    +0.000 N 
ATOM      6  H   TYR A   1      -7.254   0.684 125.104  0.00  0.00    +0.000 HD
ENDBRANCH   1   5
BRANCH   1   7
ATOM      7  C   TYR A   1      -9.689   1.085 122.685  0.00  0.00    +0.000 C 
ATOM      8  OXT TYR A   1      -9.589   2.237 122.280  0.00  0.00    +0.000 OA
BRANCH   7   9
ATOM      9  O   TYR A   1     -10.864   0.431 122.561  0.00  0.00    +0.000 OA
ATOM     10  H   TYR A   1     -10.846  -0.453 122.174  0.00  0.00    +0.000 HD
ENDBRANCH   7   9
ENDBRANCH   1   7
BRANCH   1  11
ATOM     11  CB  TYR A   1      -8.841  -1.201 123.174  0.00  0.00    +0.000 C 
BRANCH  11  12
ATOM     12  CG  TYR A   1      -7.660  -2.138 123.313  0.00  0.00    +0.000 A 
ATOM     13  CD1 TYR A   1      -6.429  -1.834 122.704  0.00  0.00    +0.000 A 
ATOM     14  CE1 TYR A   1      -5.279  -2.570 123.008  0.00  0.00    +0.000 A 
ATOM     15  CZ  TYR A   1      -5.379  -3.669 123.853  0.00  0.00    +0.000 A 
ATOM     16  CE2 TYR A   1      -6.602  -4.028 124.407  0.00  0.00    +0.000 A 
ATOM     17  CD2 TYR A   1      -7.740  -3.259 124.150  0.00  0.00    +0.000 A 
BRANCH  15  18
ATOM     18  OH  TYR A   1      -4.286  -4.410 124.192  0.00  0.00    +0.000 OA
ATOM     19  HH  TYR A   1      -4.568  -5.333 124.303  0.00  0.00    +0.000 HD
ENDBRANCH  15  18
ENDBRANCH  11  12
ENDBRANCH   1  11
TORSDOF 6
ENDMDL
MODEL 9
REMARK VINA RESULT:      -5.7      2.959      5.743
REMARK  Name = N-acetyltyrosine
REMARK  7 active torsions:
REMARK  status: ('A' for Active; 'I' for Inactive)
REMARK    1  A    between atoms: C_1  and  C_2
REMARK    2  A    between atoms: N_4  and  CA_5
REMARK    3  A    between atoms: CA_5  and  CB_6
REMARK    4  A    between atoms: CA_5  and  C_14
REMARK    5  A    between atoms: CB_6  and  CG_7
REMARK    6  A    between atoms: CZ_10  and  OH_11
REMARK    7  A    between atoms: C_14  and  O_15
REMARK                            x       y       z     vdW  Elec       q    Type
REMARK                         _______ _______ _______ _____ _____    ______ ____
ROOT
ATOM      1  CA  TYR A   1      -9.812   5.206 130.535  0.00  0.00    +0.000 C 
ENDROOT
BRANCH   1   5
ATOM      2  C   UNK A   0      -8.636   1.543 130.333  0.00  0.00    +0.000 C 
ATOM      3  C   UNK A   0      -9.011   2.908 129.852  0.00  0.00    +0.000 C 
ATOM      4  O   UNK A   0      -8.952   3.140 128.649  0.00  0.00    +0.000 OA
ATOM      5  N   TYR A   1      -9.315   3.830 130.832  0.00  0.00    +0.000 N 
ATOM      6  H   TYR A   1      -9.001   3.571 131.750  0.00  0.00    +0.000 HD
ENDBRANCH   1   5
BRANCH   1   7
ATOM      7  C   TYR A   1      -9.304   6.350 131.454  0.00  0.00    +0.000 C 
ATOM      8  OXT TYR A   1      -8.546   7.233 131.068  0.00  0.00    +0.000 OA
BRANCH   7   9
ATOM      9  O   TYR A   1      -9.731   6.347 132.734  0.00  0.00    +0.000 OA
ATOM     10  H   TYR A   1     -10.364   5.666 132.995  0.00  0.00    +0.000 HD
ENDBRANCH   7   9
ENDBRANCH   1   7
BRANCH   1  11
ATOM     11  CB  TYR A   1     -11.369   5.287 130.567  0.00  0.00    +0.000 C 
BRANCH  11  12
ATOM     12  CG  TYR A   1     -11.962   6.592 130.079  0.00  0.00    +0.000 A 
ATOM     13  CD1 TYR A   1     -12.687   7.421 130.955  0.00  0.00    +0.000 A 
ATOM     14  CE1 TYR A   1     -13.043   8.720 130.579  0.00  0.00    +0.000 A 
ATOM     15  CZ  TYR A   1     -12.753   9.160 129.293  0.00  0.00    +0.000 A 
ATOM     16  CE2 TYR A   1     -12.101   8.329 128.389  0.00  0.00    +0.000 A 
ATOM     17  CD2 TYR A   1     -11.694   7.051 128.782  0.00  0.00    +0.000 A 
BRANCH  15  18
ATOM     18  OH  TYR A   1     -13.066  10.422 128.882  0.00  0.00    +0.000 OA
ATOM     19  HH  TYR A   1     -12.583  10.601 128.059  0.00  0.00    +0.000 HD
ENDBRANCH  15  18
ENDBRANCH  11  12
ENDBRANCH   1  11
TORSDOF 6
ENDMDL
