MODEL 1
REMARK VINA RESULT:      -5.4      0.000      0.000
REMARK  Name = N-Acetylglucosamine
REMARK  11 active torsions:
REMARK  status: ('A' for Active; 'I' for Inactive)
REMARK    1  A    between atoms: C_2  and  CA_4
REMARK    2  A    between atoms: CA_4  and  N_5
REMARK    3  A    between atoms: CA_4  and  C_9
REMARK    4  A    between atoms: C_6  and  C_7
REMARK    5  A    between atoms: C_9  and  O_10
REMARK    6  A    between atoms: C_9  and  C_11
REMARK    7  A    between atoms: C_11  and  O_12
REMARK    8  A    between atoms: C_11  and  C_13
REMARK    9  A    between atoms: C_13  and  O_14
REMARK   10  A    between atoms: C_13  and  C_15
REMARK   11  A    between atoms: C_15  and  O_16
REMARK                            x       y       z     vdW  Elec       q    Type
REMARK                         _______ _______ _______ _____ _____    ______ ____
ROOT
ATOM      1  C   UNL     1     -12.345   6.792 130.292  0.00  0.00    +0.000 C 
ENDROOT
BRANCH   1   2
ATOM      2  O   UNL     1     -13.143   7.229 131.403  0.00  0.00    +0.000 OA
ATOM      3  H   UNL     1     -12.960   6.653 132.163  0.00  0.00    +0.000 HD
ENDBRANCH   1   2
BRANCH   1   4
ATOM      4  CA  UNL     1     -11.688   8.000 129.544  0.00  0.00    +0.000 C 
BRANCH   4   5
ATOM      5  N   UNL     1     -10.937   7.616 128.320  0.00  0.00    +0.000 N 
ATOM      6  C   UNL     1     -11.264   7.132 127.082  0.00  0.00    +0.000 C 
ATOM      7  C   UNL     1     -12.690   7.046 126.546  0.00  0.00    +0.000 C 
ATOM      8  O   UNL     1     -10.322   6.716 126.401  0.00  0.00    +0.000 OA
ATOM      9  H   UNL     1      -9.931   7.539 128.449  0.00  0.00    +0.000 HD
ENDBRANCH   4   5
BRANCH   4  10
ATOM     10  C   UNL     1     -12.691   9.137 129.394  0.00  0.00    +0.000 C 
ATOM     11  O   UNL     1     -13.063   9.884 130.312  0.00  0.00    +0.000 OA
ENDBRANCH   4  10
ENDBRANCH   1   4
BRANCH   1  12
ATOM     12  C   UNL     1     -11.379   5.649 130.707  0.00  0.00    +0.000 C 
BRANCH  12  13
ATOM     13  O   UNL     1     -10.860   5.042 129.544  0.00  0.00    +0.000 OA
ATOM     14  H   UNL     1     -11.673   4.917 129.013  0.00  0.00    +0.000 HD
ENDBRANCH  12  13
BRANCH  12  15
ATOM     15  C   UNL     1     -10.154   5.939 131.627  0.00  0.00    +0.000 C 
BRANCH  15  16
ATOM     16  O   UNL     1     -10.513   6.463 132.891  0.00  0.00    +0.000 OA
ATOM     17  H   UNL     1     -11.141   5.841 133.304  0.00  0.00    +0.000 HD
ENDBRANCH  15  16
BRANCH  15  18
ATOM     18  C   UNL     1      -9.035   6.815 131.012  0.00  0.00    +0.000 C 
BRANCH  18  19
ATOM     19  O   UNL     1      -8.459   6.234 129.849  0.00  0.00    +0.000 OA
ATOM     20  H   UNL     1      -7.520   6.480 129.767  0.00  0.00    +0.000 HD
ENDBRANCH  18  19
ENDBRANCH  15  18
ENDBRANCH  12  15
ENDBRANCH   1  12
TORSDOF 10
ENDMDL
MODEL 2
REMARK VINA RESULT:      -5.3      2.231      4.610
REMARK  Name = N-Acetylglucosamine
REMARK  11 active torsions:
REMARK  status: ('A' for Active; 'I' for Inactive)
REMARK    1  A    between atoms: C_2  and  CA_4
REMARK    2  A    between atoms: CA_4  and  N_5
REMARK    3  A    between atoms: CA_4  and  C_9
REMARK    4  A    between atoms: C_6  and  C_7
REMARK    5  A    between atoms: C_9  and  O_10
REMARK    6  A    between atoms: C_9  and  C_11
REMARK    7  A    between atoms: C_11  and  O_12
REMARK    8  A    between atoms: C_11  and  C_13
REMARK    9  A    between atoms: C_13  and  O_14
REMARK   10  A    between atoms: C_13  and  C_15
REMARK   11  A    between atoms: C_15  and  O_16
REMARK                            x       y       z     vdW  Elec       q    Type
REMARK                         _______ _______ _______ _____ _____    ______ ____
ROOT
ATOM      1  C   UNL     1     -11.243   6.429 129.770  0.00  0.00    +0.000 C 
ENDROOT
BRANCH   1   2
ATOM      2  O   UNL     1     -12.361   5.881 129.055  0.00  0.00    +0.000 OA
ATOM      3  H   UNL     1     -12.082   5.052 128.631  0.00  0.00    +0.000 HD
ENDBRANCH   1   2
BRANCH   1   4
ATOM      4  CA  UNL     1     -10.607   5.379 130.740  0.00  0.00    +0.000 C 
BRANCH   4   5
ATOM      5  N   UNL     1     -10.026   4.195 130.052  0.00  0.00    +0.000 N 
ATOM      6  C   UNL     1      -9.632   2.940 130.428  0.00  0.00    +0.000 C 
ATOM      7  C   UNL     1      -9.921   2.326 131.795  0.00  0.00    +0.000 C 
ATOM      8  O   UNL     1      -8.975   2.310 129.594  0.00  0.00    +0.000 OA
ATOM      9  H   UNL     1      -9.687   4.380 129.111  0.00  0.00    +0.000 HD
ENDBRANCH   4   5
BRANCH   4  10
ATOM     10  C   UNL     1      -9.714   6.075 131.760  0.00  0.00    +0.000 C 
ATOM     11  O   UNL     1     -10.084   6.474 132.874  0.00  0.00    +0.000 OA
ENDBRANCH   4  10
ENDBRANCH   1   4
BRANCH   1  12
ATOM     12  C   UNL     1     -10.255   7.144 128.809  0.00  0.00    +0.000 C 
BRANCH  12  13
ATOM     13  O   UNL     1      -9.586   6.173 128.033  0.00  0.00    +0.000 OA
ATOM     14  H   UNL     1      -9.235   5.579 128.728  0.00  0.00    +0.000 HD
ENDBRANCH  12  13
BRANCH  12  15
ATOM     15  C   UNL     1     -10.762   8.224 127.805  0.00  0.00    +0.000 C 
BRANCH  15  16
ATOM     16  O   UNL     1     -11.922   8.902 128.250  0.00  0.00    +0.000 OA
ATOM     17  H   UNL     1     -12.064   9.666 127.660  0.00  0.00    +0.000 HD
ENDBRANCH  15  16
BRANCH  15  18
ATOM     18  C   UNL     1     -10.979   7.749 126.347  0.00  0.00    +0.000 C 
BRANCH  18  19
ATOM     19  O   UNL     1     -11.854   6.631 126.259  0.00  0.00    +0.000 OA
ATOM     20  H   UNL     1     -11.492   5.954 125.659  0.00  0.00    +0.000 HD
ENDBRANCH  18  19
ENDBRANCH  15  18
ENDBRANCH  12  15
ENDBRANCH   1  12
TORSDOF 10
ENDMDL
MODEL 3
REMARK VINA RESULT:      -5.1      1.920      3.680
REMARK  Name = N-Acetylglucosamine
REMARK  11 active torsions:
REMARK  status: ('A' for Active; 'I' for Inactive)
REMARK    1  A    between atoms: C_2  and  CA_4
REMARK    2  A    between atoms: CA_4  and  N_5
REMARK    3  A    between atoms: CA_4  and  C_9
REMARK    4  A    between atoms: C_6  and  C_7
REMARK    5  A    between atoms: C_9  and  O_10
REMARK    6  A    between atoms: C_9  and  C_11
REMARK    7  A    between atoms: C_11  and  O_12
REMARK    8  A    between atoms: C_11  and  C_13
REMARK    9  A    between atoms: C_13  and  O_14
REMARK   10  A    between atoms: C_13  and  C_15
REMARK   11  A    between atoms: C_15  and  O_16
REMARK                            x       y       z     vdW  Elec       q    Type
REMARK                         _______ _______ _______ _____ _____    ______ ____
ROOT
ATOM      1  C   UNL     1     -10.733   7.651 129.390  0.00  0.00    +0.000 C 
ENDROOT
BRANCH   1   2
ATOM      2  O   UNL     1      -9.395   8.090 129.110  0.00  0.00    +0.000 OA
ATOM      3  H   UNL     1      -8.778   7.382 129.358  0.00  0.00    +0.000 HD
ENDBRANCH   1   2
BRANCH   1   4
ATOM      4  CA  UNL     1     -11.704   7.973 128.206  0.00  0.00    +0.000 C 
BRANCH   4   5
ATOM      5  N   UNL     1     -12.454   9.247 128.367  0.00  0.00    +0.000 N 
ATOM      6  C   UNL     1     -13.141   9.857 129.380  0.00  0.00    +0.000 C 
ATOM      7  C   UNL     1     -13.127   9.384 130.830  0.00  0.00    +0.000 C 
ATOM      8  O   UNL     1     -13.832  10.827 129.054  0.00  0.00    +0.000 OA
ATOM      9  H   UNL     1     -12.651   9.733 127.495  0.00  0.00    +0.000 HD
ENDBRANCH   4   5
BRANCH   4  10
ATOM     10  C   UNL     1     -10.995   7.769 126.872  0.00  0.00    +0.000 C 
ATOM     11  O   UNL     1     -10.519   6.694 126.476  0.00  0.00    +0.000 OA
ENDBRANCH   4  10
ENDBRANCH   1   4
BRANCH   1  12
ATOM     12  C   UNL     1     -10.751   6.184 129.897  0.00  0.00    +0.000 C 
BRANCH  12  13
ATOM     13  O   UNL     1     -11.807   5.493 129.267  0.00  0.00    +0.000 OA
ATOM     14  H   UNL     1     -12.046   4.837 129.954  0.00  0.00    +0.000 HD
ENDBRANCH  12  13
BRANCH  12  15
ATOM     15  C   UNL     1      -9.492   5.276 129.749  0.00  0.00    +0.000 C 
BRANCH  15  16
ATOM     16  O   UNL     1      -8.946   5.282 128.443  0.00  0.00    +0.000 OA
ATOM     17  H   UNL     1      -8.416   4.471 128.339  0.00  0.00    +0.000 HD
ENDBRANCH  15  16
BRANCH  15  18
ATOM     18  C   UNL     1      -9.650   3.811 130.226  0.00  0.00    +0.000 C 
BRANCH  18  19
ATOM     19  O   UNL     1      -9.413   2.867 129.189  0.00  0.00    +0.000 OA
ATOM     20  H   UNL     1      -8.503   2.521 129.237  0.00  0.00    +0.000 HD
ENDBRANCH  18  19
ENDBRANCH  15  18
ENDBRANCH  12  15
ENDBRANCH   1  12
TORSDOF 10
ENDMDL
MODEL 4
REMARK VINA RESULT:      -5.1      2.066      4.330
REMARK  Name = N-Acetylglucosamine
REMARK  11 active torsions:
REMARK  status: ('A' for Active; 'I' for Inactive)
REMARK    1  A    between atoms: C_2  and  CA_4
REMARK    2  A    between atoms: CA_4  and  N_5
REMARK    3  A    between atoms: CA_4  and  C_9
REMARK    4  A    between atoms: C_6  and  C_7
REMARK    5  A    between atoms: C_9  and  O_10
REMARK    6  A    between atoms: C_9  and  C_11
REMARK    7  A    between atoms: C_11  and  O_12
REMARK    8  A    between atoms: C_11  and  C_13
REMARK    9  A    between atoms: C_13  and  O_14
REMARK   10  A    between atoms: C_13  and  C_15
REMARK   11  A    between atoms: C_15  and  O_16
REMARK                            x       y       z     vdW  Elec       q    Type
REMARK                         _______ _______ _______ _____ _____    ______ ____
ROOT
ATOM      1  C   UNL     1     -11.247   6.496 130.829  0.00  0.00    +0.000 C 
ENDROOT
BRANCH   1   2
ATOM      2  O   UNL     1     -12.216   6.204 131.848  0.00  0.00    +0.000 OA
ATOM      3  H   UNL     1     -13.084   6.522 131.552  0.00  0.00    +0.000 HD
ENDBRANCH   1   2
BRANCH   1   4
ATOM      4  CA  UNL     1      -9.923   5.691 131.045  0.00  0.00    +0.000 C 
BRANCH   4   5
ATOM      5  N   UNL     1      -9.748   4.553 130.104  0.00  0.00    +0.000 N 
ATOM      6  C   UNL     1      -9.650   3.192 130.220  0.00  0.00    +0.000 C 
ATOM      7  C   UNL     1      -9.930   2.421 131.506  0.00  0.00    +0.000 C 
ATOM      8  O   UNL     1      -9.276   2.591 129.208  0.00  0.00    +0.000 OA
ATOM      9  H   UNL     1      -9.482   4.823 129.160  0.00  0.00    +0.000 HD
ENDBRANCH   4   5
BRANCH   4  10
ATOM     10  C   UNL     1      -8.741   6.644 131.180  0.00  0.00    +0.000 C 
ATOM     11  O   UNL     1      -8.321   7.388 130.281  0.00  0.00    +0.000 OA
ENDBRANCH   4  10
ENDBRANCH   1   4
BRANCH   1  12
ATOM     12  C   UNL     1     -11.873   6.398 129.412  0.00  0.00    +0.000 C 
BRANCH  12  13
ATOM     13  O   UNL     1     -13.203   6.868 129.464  0.00  0.00    +0.000 OA
ATOM     14  H   UNL     1     -13.111   7.753 129.053  0.00  0.00    +0.000 HD
ENDBRANCH  12  13
BRANCH  12  15
ATOM     15  C   UNL     1     -11.209   7.115 128.197  0.00  0.00    +0.000 C 
BRANCH  15  16
ATOM     16  O   UNL     1      -9.994   6.517 127.788  0.00  0.00    +0.000 OA
ATOM     17  H   UNL     1      -9.740   5.865 128.468  0.00  0.00    +0.000 HD
ENDBRANCH  15  16
BRANCH  15  18
ATOM     18  C   UNL     1     -10.999   8.643 128.343  0.00  0.00    +0.000 C 
BRANCH  18  19
ATOM     19  O   UNL     1     -12.212   9.343 128.589  0.00  0.00    +0.000 OA
ATOM     20  H   UNL     1     -12.946   8.956 128.077  0.00  0.00    +0.000 HD
ENDBRANCH  18  19
ENDBRANCH  15  18
ENDBRANCH  12  15
ENDBRANCH   1  12
TORSDOF 10
ENDMDL
MODEL 5
REMARK VINA RESULT:      -5.1      1.358      3.557
REMARK  Name = N-Acetylglucosamine
REMARK  11 active torsions:
REMARK  status: ('A' for Active; 'I' for Inactive)
REMARK    1  A    between atoms: C_2  and  CA_4
REMARK    2  A    between atoms: CA_4  and  N_5
REMARK    3  A    between atoms: CA_4  and  C_9
REMARK    4  A    between atoms: C_6  and  C_7
REMARK    5  A    between atoms: C_9  and  O_10
REMARK    6  A    between atoms: C_9  and  C_11
REMARK    7  A    between atoms: C_11  and  O_12
REMARK    8  A    between atoms: C_11  and  C_13
REMARK    9  A    between atoms: C_13  and  O_14
REMARK   10  A    between atoms: C_13  and  C_15
REMARK   11  A    between atoms: C_15  and  O_16
REMARK                            x       y       z     vdW  Elec       q    Type
REMARK                         _______ _______ _______ _____ _____    ______ ____
ROOT
ATOM      1  C   UNL     1     -10.116   6.921 128.196  0.00  0.00    +0.000 C 
ENDROOT
BRANCH   1   2
ATOM      2  O   UNL     1      -9.526   6.176 127.119  0.00  0.00    +0.000 OA
ATOM      3  H   UNL     1      -9.200   5.331 127.469  0.00  0.00    +0.000 HD
ENDBRANCH   1   2
BRANCH   1   4
ATOM      4  CA  UNL     1     -11.554   7.419 127.832  0.00  0.00    +0.000 C 
BRANCH   4   5
ATOM      5  N   UNL     1     -11.993   8.614 128.601  0.00  0.00    +0.000 N 
ATOM      6  C   UNL     1     -12.640   8.832 129.787  0.00  0.00    +0.000 C 
ATOM      7  C   UNL     1     -12.924   7.744 130.818  0.00  0.00    +0.000 C 
ATOM      8  O   UNL     1     -13.032   9.986 129.982  0.00  0.00    +0.000 OA
ATOM      9  H   UNL     1     -11.955   9.487 128.080  0.00  0.00    +0.000 HD
ENDBRANCH   4   5
BRANCH   4  10
ATOM     10  C   UNL     1     -11.720   7.491 126.318  0.00  0.00    +0.000 C 
ATOM     11  O   UNL     1     -10.892   7.976 125.533  0.00  0.00    +0.000 OA
ENDBRANCH   4  10
ENDBRANCH   1   4
BRANCH   1  12
ATOM     12  C   UNL     1      -9.986   6.161 129.544  0.00  0.00    +0.000 C 
BRANCH  12  13
ATOM     13  O   UNL     1      -9.306   4.945 129.322  0.00  0.00    +0.000 OA
ATOM     14  H   UNL     1      -9.332   4.544 130.216  0.00  0.00    +0.000 HD
ENDBRANCH  12  13
BRANCH  12  15
ATOM     15  C   UNL     1      -9.289   6.829 130.769  0.00  0.00    +0.000 C 
BRANCH  15  16
ATOM     16  O   UNL     1      -7.975   7.275 130.492  0.00  0.00    +0.000 OA
ATOM     17  H   UNL     1      -7.374   6.839 131.124  0.00  0.00    +0.000 HD
ENDBRANCH  15  16
BRANCH  15  18
ATOM     18  C   UNL     1      -9.280   6.002 132.079  0.00  0.00    +0.000 C 
BRANCH  18  19
ATOM     19  O   UNL     1     -10.281   6.420 132.998  0.00  0.00    +0.000 OA
ATOM     20  H   UNL     1     -10.980   5.746 133.079  0.00  0.00    +0.000 HD
ENDBRANCH  18  19
ENDBRANCH  15  18
ENDBRANCH  12  15
ENDBRANCH   1  12
TORSDOF 10
ENDMDL
MODEL 6
REMARK VINA RESULT:      -5.0      7.386      9.713
REMARK  Name = N-Acetylglucosamine
REMARK  11 active torsions:
REMARK  status: ('A' for Active; 'I' for Inactive)
REMARK    1  A    between atoms: C_2  and  CA_4
REMARK    2  A    between atoms: CA_4  and  N_5
REMARK    3  A    between atoms: CA_4  and  C_9
REMARK    4  A    between atoms: C_6  and  C_7
REMARK    5  A    between atoms: C_9  and  O_10
REMARK    6  A    between atoms: C_9  and  C_11
REMARK    7  A    between atoms: C_11  and  O_12
REMARK    8  A    between atoms: C_11  and  C_13
REMARK    9  A    between atoms: C_13  and  O_14
REMARK   10  A    between atoms: C_13  and  C_15
REMARK   11  A    between atoms: C_15  and  O_16
REMARK                            x       y       z     vdW  Elec       q    Type
REMARK                         _______ _______ _______ _____ _____    ______ ____
ROOT
ATOM      1  C   UNL     1      -6.542   3.453 123.328  0.00  0.00    +0.000 C 
ENDROOT
BRANCH   1   2
ATOM      2  O   UNL     1      -6.309   4.787 123.807  0.00  0.00    +0.000 OA
ATOM      3  H   UNL     1      -6.864   5.401 123.298  0.00  0.00    +0.000 HD
ENDBRANCH   1   2
BRANCH   1   4
ATOM      4  CA  UNL     1      -7.866   2.856 123.911  0.00  0.00    +0.000 C 
BRANCH   4   5
ATOM      5  N   UNL     1      -7.932   1.371 123.862  0.00  0.00    +0.000 N 
ATOM      6  C   UNL     1      -8.847   0.444 123.444  0.00  0.00    +0.000 C 
ATOM      7  C   UNL     1     -10.103   0.782 122.646  0.00  0.00    +0.000 C 
ATOM      8  O   UNL     1      -8.626  -0.723 123.782  0.00  0.00    +0.000 OA
ATOM      9  H   UNL     1      -7.206   0.900 124.398  0.00  0.00    +0.000 HD
ENDBRANCH   4   5
BRANCH   4  10
ATOM     10  C   UNL     1      -8.193   3.504 125.251  0.00  0.00    +0.000 C 
ATOM     11  O   UNL     1      -8.807   4.572 125.394  0.00  0.00    +0.000 OA
ENDBRANCH   4  10
ENDBRANCH   1   4
BRANCH   1  12
ATOM     12  C   UNL     1      -6.388   3.374 121.785  0.00  0.00    +0.000 C 
BRANCH  12  13
ATOM     13  O   UNL     1      -7.552   3.895 121.180  0.00  0.00    +0.000 OA
ATOM     14  H   UNL     1      -8.163   3.133 121.249  0.00  0.00    +0.000 HD
ENDBRANCH  12  13
BRANCH  12  15
ATOM     15  C   UNL     1      -5.185   4.060 121.069  0.00  0.00    +0.000 C 
BRANCH  15  16
ATOM     16  O   UNL     1      -4.315   4.735 121.957  0.00  0.00    +0.000 OA
ATOM     17  H   UNL     1      -3.437   4.781 121.536  0.00  0.00    +0.000 HD
ENDBRANCH  15  16
BRANCH  15  18
ATOM     18  C   UNL     1      -5.542   5.002 119.893  0.00  0.00    +0.000 C 
BRANCH  18  19
ATOM     19  O   UNL     1      -4.928   6.280 120.007  0.00  0.00    +0.000 OA
ATOM     20  H   UNL     1      -4.885   6.723 119.141  0.00  0.00    +0.000 HD
ENDBRANCH  18  19
ENDBRANCH  15  18
ENDBRANCH  12  15
ENDBRANCH   1  12
TORSDOF 10
ENDMDL
MODEL 7
REMARK VINA RESULT:      -4.9      2.159      4.214
REMARK  Name = N-Acetylglucosamine
REMARK  11 active torsions:
REMARK  status: ('A' for Active; 'I' for Inactive)
REMARK    1  A    between atoms: C_2  and  CA_4
REMARK    2  A    between atoms: CA_4  and  N_5
REMARK    3  A    between atoms: CA_4  and  C_9
REMARK    4  A    between atoms: C_6  and  C_7
REMARK    5  A    between atoms: C_9  and  O_10
REMARK    6  A    between atoms: C_9  and  C_11
REMARK    7  A    between atoms: C_11  and  O_12
REMARK    8  A    between atoms: C_11  and  C_13
REMARK    9  A    between atoms: C_13  and  O_14
REMARK   10  A    between atoms: C_13  and  C_15
REMARK   11  A    between atoms: C_15  and  O_16
REMARK                            x       y       z     vdW  Elec       q    Type
REMARK                         _______ _______ _______ _____ _____    ______ ____
ROOT
ATOM      1  C   UNL     1     -10.372   6.699 131.074  0.00  0.00    +0.000 C 
ENDROOT
BRANCH   1   2
ATOM      2  O   UNL     1     -11.488   5.919 131.529  0.00  0.00    +0.000 OA
ATOM      3  H   UNL     1     -12.155   5.891 130.823  0.00  0.00    +0.000 HD
ENDBRANCH   1   2
BRANCH   1   4
ATOM      4  CA  UNL     1      -9.100   5.813 130.856  0.00  0.00    +0.000 C 
BRANCH   4   5
ATOM      5  N   UNL     1      -8.976   5.261 129.481  0.00  0.00    +0.000 N 
ATOM      6  C   UNL     1      -8.503   4.101 128.930  0.00  0.00    +0.000 C 
ATOM      7  C   UNL     1      -8.118   2.865 129.739  0.00  0.00    +0.000 C 
ATOM      8  O   UNL     1      -8.360   4.106 127.704  0.00  0.00    +0.000 OA
ATOM      9  H   UNL     1      -9.129   5.940 128.739  0.00  0.00    +0.000 HD
ENDBRANCH   4   5
BRANCH   4  10
ATOM     10  C   UNL     1      -7.867   6.513 131.417  0.00  0.00    +0.000 C 
ATOM     11  O   UNL     1      -7.144   7.297 130.785  0.00  0.00    +0.000 OA
ENDBRANCH   4  10
ENDBRANCH   1   4
BRANCH   1  12
ATOM     12  C   UNL     1     -10.770   7.611 129.882  0.00  0.00    +0.000 C 
BRANCH  12  13
ATOM     13  O   UNL     1      -9.598   8.087 129.256  0.00  0.00    +0.000 OA
ATOM     14  H   UNL     1      -9.645   7.634 128.390  0.00  0.00    +0.000 HD
ENDBRANCH  12  13
BRANCH  12  15
ATOM     15  C   UNL     1     -11.682   7.072 128.738  0.00  0.00    +0.000 C 
BRANCH  15  16
ATOM     16  O   UNL     1     -12.017   5.706 128.884  0.00  0.00    +0.000 OA
ATOM     17  H   UNL     1     -11.941   5.481 129.830  0.00  0.00    +0.000 HD
ENDBRANCH  15  16
BRANCH  15  18
ATOM     18  C   UNL     1     -11.178   7.320 127.294  0.00  0.00    +0.000 C 
BRANCH  18  19
ATOM     19  O   UNL     1     -10.012   6.567 126.983  0.00  0.00    +0.000 OA
ATOM     20  H   UNL     1      -9.873   6.527 126.019  0.00  0.00    +0.000 HD
ENDBRANCH  18  19
ENDBRANCH  15  18
ENDBRANCH  12  15
ENDBRANCH   1  12
TORSDOF 10
ENDMDL
MODEL 8
REMARK VINA RESULT:      -4.9      2.165      5.082
REMARK  Name = N-Acetylglucosamine
REMARK  11 active torsions:
REMARK  status: ('A' for Active; 'I' for Inactive)
REMARK    1  A    between atoms: C_2  and  CA_4
REMARK    2  A    between atoms: CA_4  and  N_5
REMARK    3  A    between atoms: CA_4  and  C_9
REMARK    4  A    between atoms: C_6  and  C_7
REMARK    5  A    between atoms: C_9  and  O_10
REMARK    6  A    between atoms: C_9  and  C_11
REMARK    7  A    between atoms: C_11  and  O_12
REMARK    8  A    between atoms: C_11  and  C_13
REMARK    9  A    between atoms: C_13  and  O_14
REMARK   10  A    between atoms: C_13  and  C_15
REMARK   11  A    between atoms: C_15  and  O_16
REMARK                            x       y       z     vdW  Elec       q    Type
REMARK                         _______ _______ _______ _____ _____    ______ ____
ROOT
ATOM      1  C   UNL     1     -11.011   6.206 129.754  0.00  0.00    +0.000 C 
ENDROOT
BRANCH   1   2
ATOM      2  O   UNL     1     -12.207   5.686 129.152  0.00  0.00    +0.000 OA
ATOM      3  H   UNL     1     -12.381   6.177 128.333  0.00  0.00    +0.000 HD
ENDBRANCH   1   2
BRANCH   1   4
ATOM      4  CA  UNL     1     -10.211   5.090 130.505  0.00  0.00    +0.000 C 
BRANCH   4   5
ATOM      5  N   UNL     1      -9.723   5.497 131.849  0.00  0.00    +0.000 N 
ATOM      6  C   UNL     1      -8.566   6.028 132.351  0.00  0.00    +0.000 C 
ATOM      7  C   UNL     1      -7.430   6.572 131.490  0.00  0.00    +0.000 C 
ATOM      8  O   UNL     1      -8.457   6.016 133.581  0.00  0.00    +0.000 OA
ATOM      9  H   UNL     1     -10.303   5.179 132.622  0.00  0.00    +0.000 HD
ENDBRANCH   4   5
BRANCH   4  10
ATOM     10  C   UNL     1     -10.959   3.764 130.430  0.00  0.00    +0.000 C 
ATOM     11  O   UNL     1     -10.632   2.728 131.028  0.00  0.00    +0.000 OA
ENDBRANCH   4  10
ENDBRANCH   1   4
BRANCH   1  12
ATOM     12  C   UNL     1     -10.195   7.056 128.742  0.00  0.00    +0.000 C 
BRANCH  12  13
ATOM     13  O   UNL     1      -9.530   6.191 127.847  0.00  0.00    +0.000 OA
ATOM     14  H   UNL     1     -10.258   5.593 127.580  0.00  0.00    +0.000 HD
ENDBRANCH  12  13
BRANCH  12  15
ATOM     15  C   UNL     1     -10.897   8.133 127.860  0.00  0.00    +0.000 C 
BRANCH  15  16
ATOM     16  O   UNL     1     -12.119   8.595 128.404  0.00  0.00    +0.000 OA
ATOM     17  H   UNL     1     -12.250   8.147 129.260  0.00  0.00    +0.000 HD
ENDBRANCH  15  16
BRANCH  15  18
ATOM     18  C   UNL     1     -11.113   7.757 126.373  0.00  0.00    +0.000 C 
BRANCH  18  19
ATOM     19  O   UNL     1     -11.906   6.588 126.211  0.00  0.00    +0.000 OA
ATOM     20  H   UNL     1     -11.351   5.787 126.232  0.00  0.00    +0.000 HD
ENDBRANCH  18  19
ENDBRANCH  15  18
ENDBRANCH  12  15
ENDBRANCH   1  12
TORSDOF 10
ENDMDL
MODEL 9
REMARK VINA RESULT:      -4.9      7.354      9.264
REMARK  Name = N-Acetylglucosamine
REMARK  11 active torsions:
REMARK  status: ('A' for Active; 'I' for Inactive)
REMARK    1  A    between atoms: C_2  and  CA_4
REMARK    2  A    between atoms: CA_4  and  N_5
REMARK    3  A    between atoms: CA_4  and  C_9
REMARK    4  A    between atoms: C_6  and  C_7
REMARK    5  A    between atoms: C_9  and  O_10
REMARK    6  A    between atoms: C_9  and  C_11
REMARK    7  A    between atoms: C_11  and  O_12
REMARK    8  A    between atoms: C_11  and  C_13
REMARK    9  A    between atoms: C_13  and  O_14
REMARK   10  A    between atoms: C_13  and  C_15
REMARK   11  A    between atoms: C_15  and  O_16
REMARK                            x       y       z     vdW  Elec       q    Type
REMARK                         _______ _______ _______ _____ _____    ______ ____
ROOT
ATOM      1  C   UNL     1      -8.748   1.716 124.369  0.00  0.00    +0.000 C 
ENDROOT
BRANCH   1   2
ATOM      2  O   UNL     1     -10.024   2.328 124.611  0.00  0.00    +0.000 OA
ATOM      3  H   UNL     1      -9.886   3.269 124.807  0.00  0.00    +0.000 HD
ENDBRANCH   1   2
BRANCH   1   4
ATOM      4  CA  UNL     1      -8.901   0.305 123.709  0.00  0.00    +0.000 C 
BRANCH   4   5
ATOM      5  N   UNL     1      -9.100  -0.800 124.683  0.00  0.00    +0.000 N 
ATOM      6  C   UNL     1      -9.257  -2.157 124.606  0.00  0.00    +0.000 C 
ATOM      7  C   UNL     1      -9.042  -2.972 123.335  0.00  0.00    +0.000 C 
ATOM      8  O   UNL     1      -9.630  -2.716 125.642  0.00  0.00    +0.000 OA
ATOM      9  H   UNL     1      -9.330  -0.494 125.626  0.00  0.00    +0.000 HD
ENDBRANCH   4   5
BRANCH   4  10
ATOM     10  C   UNL     1      -9.888   0.370 122.548  0.00  0.00    +0.000 C 
ATOM     11  O   UNL     1     -11.122   0.388 122.664  0.00  0.00    +0.000 OA
ENDBRANCH   4  10
ENDBRANCH   1   4
BRANCH   1  12
ATOM     12  C   UNL     1      -7.781   2.696 123.649  0.00  0.00    +0.000 C 
BRANCH  12  13
ATOM     13  O   UNL     1      -8.531   3.546 122.808  0.00  0.00    +0.000 OA
ATOM     14  H   UNL     1      -8.027   3.481 121.971  0.00  0.00    +0.000 HD
ENDBRANCH  12  13
BRANCH  12  15
ATOM     15  C   UNL     1      -6.835   3.625 124.469  0.00  0.00    +0.000 C 
BRANCH  15  16
ATOM     16  O   UNL     1      -5.639   2.989 124.876  0.00  0.00    +0.000 OA
ATOM     17  H   UNL     1      -5.420   2.313 124.209  0.00  0.00    +0.000 HD
ENDBRANCH  15  16
BRANCH  15  18
ATOM     18  C   UNL     1      -7.472   4.337 125.689  0.00  0.00    +0.000 C 
BRANCH  18  19
ATOM     19  O   UNL     1      -8.696   4.987 125.367  0.00  0.00    +0.000 OA
ATOM     20  H   UNL     1      -8.924   4.853 124.429  0.00  0.00    +0.000 HD
ENDBRANCH  18  19
ENDBRANCH  15  18
ENDBRANCH  12  15
ENDBRANCH   1  12
TORSDOF 10
ENDMDL
