MODEL 1
REMARK VINA RESULT:      -7.5      0.000      0.000
REMARK  Name = Nabilone
REMARK  12 active torsions:
REMARK  status: ('A' for Active; 'I' for Inactive)
REMARK    1  A    between atoms: C_10  and  C_11
REMARK    2  A    between atoms: C_10  and  C_12
REMARK    3  A    between atoms: C_16  and  C_21
REMARK    4  A    between atoms: C_18  and  O_19
REMARK    5  A    between atoms: C_21  and  C_22
REMARK    6  A    between atoms: C_21  and  C_23
REMARK    7  A    between atoms: C_21  and  C_24
REMARK    8  A    between atoms: C_24  and  C_25
REMARK    9  A    between atoms: C_25  and  C_26
REMARK   10  A    between atoms: C_26  and  C_27
REMARK   11  A    between atoms: C_27  and  C_28
REMARK   12  A    between atoms: C_28  and  C_29
REMARK                            x       y       z     vdW  Elec       q    Type
REMARK                         _______ _______ _______ _____ _____    ______ ____
ROOT
ATOM      1  C   UNL     1      -5.430   2.199 127.191  0.00  0.00    +0.000 C 
ATOM      2  C   UNL     1      -4.847   3.341 126.366  0.00  0.00    +0.000 C 
ATOM      3  C   UNL     1      -4.501   4.462 127.284  0.00  0.00    +0.000 C 
ATOM      4  O   UNL     1      -5.005   5.582 127.177  0.00  0.00    +0.000 OA
ATOM      5  C   UNL     1      -3.476   4.131 128.318  0.00  0.00    +0.000 C 
ATOM      6  C   UNL     1      -3.973   2.968 129.159  0.00  0.00    +0.000 C 
ATOM      7  C   UNL     1      -4.445   1.781 128.307  0.00  0.00    +0.000 C 
ATOM      8  C   UNL     1      -5.091   0.623 129.108  0.00  0.00    +0.000 C 
ATOM      9  C   UNL     1      -4.232   0.296 130.349  0.00  0.00    +0.000 C 
ATOM     10  C   UNL     1      -6.513   0.916 129.627  0.00  0.00    +0.000 C 
ATOM     11  O   UNL     1      -5.149  -0.537 128.243  0.00  0.00    +0.000 OA
ATOM     12  C   UNL     1      -5.562  -0.305 126.942  0.00  0.00    +0.000 A 
ATOM     13  C   UNL     1      -5.779  -1.438 126.158  0.00  0.00    +0.000 A 
ATOM     14  C   UNL     1      -6.211  -1.334 124.818  0.00  0.00    +0.000 A 
ATOM     15  C   UNL     1      -6.431  -0.059 124.291  0.00  0.00    +0.000 A 
ATOM     16  C   UNL     1      -6.232   1.063 125.068  0.00  0.00    +0.000 A 
ATOM     17  C   UNL     1      -5.749   0.968 126.380  0.00  0.00    +0.000 A 
ENDROOT
BRANCH  14  18
ATOM     18  C   UNL     1      -6.484  -2.541 123.913  0.00  0.00    +0.000 C 
ATOM     19  C   UNL     1      -6.973  -2.036 122.534  0.00  0.00    +0.000 C 
ATOM     20  C   UNL     1      -5.173  -3.341 123.728  0.00  0.00    +0.000 C 
BRANCH  18  21
ATOM     21  C   UNL     1      -7.560  -3.454 124.534  0.00  0.00    +0.000 C 
BRANCH  21  22
ATOM     22  C   UNL     1      -8.934  -2.819 124.595  0.00  0.00    +0.000 C 
BRANCH  22  23
ATOM     23  C   UNL     1      -9.490  -2.911 125.995  0.00  0.00    +0.000 C 
BRANCH  23  24
ATOM     24  C   UNL     1      -8.573  -3.805 126.807  0.00  0.00    +0.000 C 
BRANCH  24  25
ATOM     25  C   UNL     1      -8.838  -3.609 128.285  0.00  0.00    +0.000 C 
ATOM     26  C   UNL     1      -7.603  -3.060 128.965  0.00  0.00    +0.000 C 
ENDBRANCH  24  25
ENDBRANCH  23  24
ENDBRANCH  22  23
ENDBRANCH  21  22
ENDBRANCH  18  21
ENDBRANCH  14  18
BRANCH  16  27
ATOM     27  O   UNL     1      -6.544   2.275 124.530  0.00  0.00    +0.000 OA
ATOM     28  H   UNL     1      -5.745   2.740 124.236  0.00  0.00    +0.000 HD
ENDBRANCH  16  27
TORSDOF 7
ENDMDL
MODEL 2
REMARK VINA RESULT:      -7.2      2.847      6.083
REMARK  Name = Nabilone
REMARK  12 active torsions:
REMARK  status: ('A' for Active; 'I' for Inactive)
REMARK    1  A    between atoms: C_10  and  C_11
REMARK    2  A    between atoms: C_10  and  C_12
REMARK    3  A    between atoms: C_16  and  C_21
REMARK    4  A    between atoms: C_18  and  O_19
REMARK    5  A    between atoms: C_21  and  C_22
REMARK    6  A    between atoms: C_21  and  C_23
REMARK    7  A    between atoms: C_21  and  C_24
REMARK    8  A    between atoms: C_24  and  C_25
REMARK    9  A    between atoms: C_25  and  C_26
REMARK   10  A    between atoms: C_26  and  C_27
REMARK   11  A    between atoms: C_27  and  C_28
REMARK   12  A    between atoms: C_28  and  C_29
REMARK                            x       y       z     vdW  Elec       q    Type
REMARK                         _______ _______ _______ _____ _____    ______ ____
ROOT
ATOM      1  C   UNL     1      -8.311   0.411 124.970  0.00  0.00    +0.000 C 
ATOM      2  C   UNL     1      -9.137   1.685 124.828  0.00  0.00    +0.000 C 
ATOM      3  C   UNL     1      -9.395   1.924 123.381  0.00  0.00    +0.000 C 
ATOM      4  O   UNL     1      -9.019   2.947 122.804  0.00  0.00    +0.000 OA
ATOM      5  C   UNL     1     -10.171   0.848 122.696  0.00  0.00    +0.000 C 
ATOM      6  C   UNL     1      -9.424  -0.468 122.832  0.00  0.00    +0.000 C 
ATOM      7  C   UNL     1      -9.024  -0.775 124.282  0.00  0.00    +0.000 C 
ATOM      8  C   UNL     1      -8.140  -2.034 124.459  0.00  0.00    +0.000 C 
ATOM      9  C   UNL     1      -8.714  -3.204 123.629  0.00  0.00    +0.000 C 
ATOM     10  C   UNL     1      -6.675  -1.859 124.010  0.00  0.00    +0.000 C 
ATOM     11  O   UNL     1      -8.149  -2.391 125.863  0.00  0.00    +0.000 OA
ATOM     12  C   UNL     1      -8.015  -1.342 126.756  0.00  0.00    +0.000 A 
ATOM     13  C   UNL     1      -7.856  -1.696 128.096  0.00  0.00    +0.000 A 
ATOM     14  C   UNL     1      -7.699  -0.719 129.103  0.00  0.00    +0.000 A 
ATOM     15  C   UNL     1      -7.694   0.626 128.723  0.00  0.00    +0.000 A 
ATOM     16  C   UNL     1      -7.836   0.979 127.398  0.00  0.00    +0.000 A 
ATOM     17  C   UNL     1      -8.049   0.016 126.402  0.00  0.00    +0.000 A 
ENDROOT
BRANCH  14  18
ATOM     18  C   UNL     1      -7.502  -1.047 130.587  0.00  0.00    +0.000 C 
ATOM     19  C   UNL     1      -6.124  -0.508 131.043  0.00  0.00    +0.000 C 
ATOM     20  C   UNL     1      -8.616  -0.357 131.409  0.00  0.00    +0.000 C 
BRANCH  18  21
ATOM     21  C   UNL     1      -7.559  -2.570 130.820  0.00  0.00    +0.000 C 
BRANCH  21  22
ATOM     22  C   UNL     1      -6.913  -3.010 132.117  0.00  0.00    +0.000 C 
BRANCH  22  23
ATOM     23  C   UNL     1      -5.877  -4.075 131.848  0.00  0.00    +0.000 C 
BRANCH  23  24
ATOM     24  C   UNL     1      -5.777  -4.266 130.347  0.00  0.00    +0.000 C 
BRANCH  24  25
ATOM     25  C   UNL     1      -4.374  -3.939 129.879  0.00  0.00    +0.000 C 
ATOM     26  C   UNL     1      -4.423  -2.884 128.795  0.00  0.00    +0.000 C 
ENDBRANCH  24  25
ENDBRANCH  23  24
ENDBRANCH  22  23
ENDBRANCH  21  22
ENDBRANCH  18  21
ENDBRANCH  14  18
BRANCH  16  27
ATOM     27  O   UNL     1      -7.738   2.300 127.076  0.00  0.00    +0.000 OA
ATOM     28  H   UNL     1      -7.066   2.740 127.619  0.00  0.00    +0.000 HD
ENDBRANCH  16  27
TORSDOF 7
ENDMDL
MODEL 3
REMARK VINA RESULT:      -7.1      2.660      6.713
REMARK  Name = Nabilone
REMARK  12 active torsions:
REMARK  status: ('A' for Active; 'I' for Inactive)
REMARK    1  A    between atoms: C_10  and  C_11
REMARK    2  A    between atoms: C_10  and  C_12
REMARK    3  A    between atoms: C_16  and  C_21
REMARK    4  A    between atoms: C_18  and  O_19
REMARK    5  A    between atoms: C_21  and  C_22
REMARK    6  A    between atoms: C_21  and  C_23
REMARK    7  A    between atoms: C_21  and  C_24
REMARK    8  A    between atoms: C_24  and  C_25
REMARK    9  A    between atoms: C_25  and  C_26
REMARK   10  A    between atoms: C_26  and  C_27
REMARK   11  A    between atoms: C_27  and  C_28
REMARK   12  A    between atoms: C_28  and  C_29
REMARK                            x       y       z     vdW  Elec       q    Type
REMARK                         _______ _______ _______ _____ _____    ______ ____
ROOT
ATOM      1  C   UNL     1      -8.464  -2.022 125.831  0.00  0.00    +0.000 C 
ATOM      2  C   UNL     1      -8.642  -3.344 125.090  0.00  0.00    +0.000 C 
ATOM      3  C   UNL     1      -9.092  -3.051 123.700  0.00  0.00    +0.000 C 
ATOM      4  O   UNL     1     -10.162  -3.470 123.252  0.00  0.00    +0.000 OA
ATOM      5  C   UNL     1      -8.134  -2.245 122.888  0.00  0.00    +0.000 C 
ATOM      6  C   UNL     1      -7.877  -0.922 123.588  0.00  0.00    +0.000 C 
ATOM      7  C   UNL     1      -7.491  -1.099 125.064  0.00  0.00    +0.000 C 
ATOM      8  C   UNL     1      -7.353   0.222 125.861  0.00  0.00    +0.000 C 
ATOM      9  C   UNL     1      -6.541   1.250 125.044  0.00  0.00    +0.000 C 
ATOM     10  C   UNL     1      -8.691   0.903 126.213  0.00  0.00    +0.000 C 
ATOM     11  O   UNL     1      -6.652  -0.075 127.094  0.00  0.00    +0.000 OA
ATOM     12  C   UNL     1      -7.048  -1.225 127.756  0.00  0.00    +0.000 A 
ATOM     13  C   UNL     1      -6.496  -1.423 129.022  0.00  0.00    +0.000 A 
ATOM     14  C   UNL     1      -6.828  -2.552 129.802  0.00  0.00    +0.000 A 
ATOM     15  C   UNL     1      -7.742  -3.471 129.279  0.00  0.00    +0.000 A 
ATOM     16  C   UNL     1      -8.301  -3.270 128.035  0.00  0.00    +0.000 A 
ATOM     17  C   UNL     1      -7.932  -2.181 127.233  0.00  0.00    +0.000 A 
ENDROOT
BRANCH  14  18
ATOM     18  C   UNL     1      -6.268  -2.815 131.204  0.00  0.00    +0.000 C 
ATOM     19  C   UNL     1      -5.736  -4.267 131.270  0.00  0.00    +0.000 C 
ATOM     20  C   UNL     1      -5.105  -1.832 131.476  0.00  0.00    +0.000 C 
BRANCH  18  21
ATOM     21  C   UNL     1      -7.364  -2.623 132.271  0.00  0.00    +0.000 C 
BRANCH  21  22
ATOM     22  C   UNL     1      -7.434  -1.215 132.824  0.00  0.00    +0.000 C 
BRANCH  22  23
ATOM     23  C   UNL     1      -8.520  -0.434 132.125  0.00  0.00    +0.000 C 
BRANCH  23  24
ATOM     24  C   UNL     1      -7.924   0.877 131.650  0.00  0.00    +0.000 C 
BRANCH  24  25
ATOM     25  C   UNL     1      -8.535   1.271 130.322  0.00  0.00    +0.000 C 
ATOM     26  C   UNL     1      -7.609   2.212 129.583  0.00  0.00    +0.000 C 
ENDBRANCH  24  25
ENDBRANCH  23  24
ENDBRANCH  22  23
ENDBRANCH  21  22
ENDBRANCH  18  21
ENDBRANCH  14  18
BRANCH  16  27
ATOM     27  O   UNL     1      -9.250  -4.153 127.613  0.00  0.00    +0.000 OA
ATOM     28  H   UNL     1      -9.767  -4.490 128.361  0.00  0.00    +0.000 HD
ENDBRANCH  16  27
TORSDOF 7
ENDMDL
MODEL 4
REMARK VINA RESULT:      -7.0      2.710      4.464
REMARK  Name = Nabilone
REMARK  12 active torsions:
REMARK  status: ('A' for Active; 'I' for Inactive)
REMARK    1  A    between atoms: C_10  and  C_11
REMARK    2  A    between atoms: C_10  and  C_12
REMARK    3  A    between atoms: C_16  and  C_21
REMARK    4  A    between atoms: C_18  and  O_19
REMARK    5  A    between atoms: C_21  and  C_22
REMARK    6  A    between atoms: C_21  and  C_23
REMARK    7  A    between atoms: C_21  and  C_24
REMARK    8  A    between atoms: C_24  and  C_25
REMARK    9  A    between atoms: C_25  and  C_26
REMARK   10  A    between atoms: C_26  and  C_27
REMARK   11  A    between atoms: C_27  and  C_28
REMARK   12  A    between atoms: C_28  and  C_29
REMARK                            x       y       z     vdW  Elec       q    Type
REMARK                         _______ _______ _______ _____ _____    ______ ____
ROOT
ATOM      1  C   UNL     1      -7.202   0.343 129.659  0.00  0.00    +0.000 C 
ATOM      2  C   UNL     1      -6.880  -1.060 130.163  0.00  0.00    +0.000 C 
ATOM      3  C   UNL     1      -6.783  -1.019 131.649  0.00  0.00    +0.000 C 
ATOM      4  O   UNL     1      -5.753  -1.333 132.251  0.00  0.00    +0.000 OA
ATOM      5  C   UNL     1      -8.034  -0.603 132.348  0.00  0.00    +0.000 C 
ATOM      6  C   UNL     1      -8.440   0.778 131.863  0.00  0.00    +0.000 C 
ATOM      7  C   UNL     1      -8.486   0.878 130.332  0.00  0.00    +0.000 C 
ATOM      8  C   UNL     1      -8.758   2.300 129.782  0.00  0.00    +0.000 C 
ATOM      9  C   UNL     1      -9.921   2.954 130.561  0.00  0.00    +0.000 C 
ATOM     10  C   UNL     1      -7.564   3.270 129.888  0.00  0.00    +0.000 C 
ATOM     11  O   UNL     1      -9.124   2.174 128.386  0.00  0.00    +0.000 OA
ATOM     12  C   UNL     1      -8.362   1.296 127.635  0.00  0.00    +0.000 A 
ATOM     13  C   UNL     1      -8.602   1.298 126.261  0.00  0.00    +0.000 A 
ATOM     14  C   UNL     1      -7.883   0.455 125.386  0.00  0.00    +0.000 A 
ATOM     15  C   UNL     1      -6.906  -0.382 125.931  0.00  0.00    +0.000 A 
ATOM     16  C   UNL     1      -6.655  -0.376 127.287  0.00  0.00    +0.000 A 
ATOM     17  C   UNL     1      -7.404   0.417 128.166  0.00  0.00    +0.000 A 
ENDROOT
BRANCH  14  18
ATOM     18  C   UNL     1      -8.089   0.426 123.868  0.00  0.00    +0.000 C 
ATOM     19  C   UNL     1      -9.498   0.979 123.540  0.00  0.00    +0.000 C 
ATOM     20  C   UNL     1      -7.021   1.320 123.195  0.00  0.00    +0.000 C 
BRANCH  18  21
ATOM     21  C   UNL     1      -7.968  -1.014 123.331  0.00  0.00    +0.000 C 
BRANCH  21  22
ATOM     22  C   UNL     1      -9.300  -1.651 122.993  0.00  0.00    +0.000 C 
BRANCH  22  23
ATOM     23  C   UNL     1      -9.296  -3.109 123.385  0.00  0.00    +0.000 C 
BRANCH  23  24
ATOM     24  C   UNL     1      -8.547  -3.241 124.696  0.00  0.00    +0.000 C 
BRANCH  24  25
ATOM     25  C   UNL     1      -9.498  -3.037 125.857  0.00  0.00    +0.000 C 
ATOM     26  C   UNL     1      -8.817  -3.409 127.156  0.00  0.00    +0.000 C 
ENDBRANCH  24  25
ENDBRANCH  23  24
ENDBRANCH  22  23
ENDBRANCH  21  22
ENDBRANCH  18  21
ENDBRANCH  14  18
BRANCH  16  27
ATOM     27  O   UNL     1      -5.633  -1.150 127.749  0.00  0.00    +0.000 OA
ATOM     28  H   UNL     1      -5.754  -1.357 128.689  0.00  0.00    +0.000 HD
ENDBRANCH  16  27
TORSDOF 7
ENDMDL
MODEL 5
REMARK VINA RESULT:      -7.0      3.439      6.936
REMARK  Name = Nabilone
REMARK  12 active torsions:
REMARK  status: ('A' for Active; 'I' for Inactive)
REMARK    1  A    between atoms: C_10  and  C_11
REMARK    2  A    between atoms: C_10  and  C_12
REMARK    3  A    between atoms: C_16  and  C_21
REMARK    4  A    between atoms: C_18  and  O_19
REMARK    5  A    between atoms: C_21  and  C_22
REMARK    6  A    between atoms: C_21  and  C_23
REMARK    7  A    between atoms: C_21  and  C_24
REMARK    8  A    between atoms: C_24  and  C_25
REMARK    9  A    between atoms: C_25  and  C_26
REMARK   10  A    between atoms: C_26  and  C_27
REMARK   11  A    between atoms: C_27  and  C_28
REMARK   12  A    between atoms: C_28  and  C_29
REMARK                            x       y       z     vdW  Elec       q    Type
REMARK                         _______ _______ _______ _____ _____    ______ ____
ROOT
ATOM      1  C   UNL     1      -8.419  -1.983 125.874  0.00  0.00    +0.000 C 
ATOM      2  C   UNL     1      -8.606  -3.279 125.091  0.00  0.00    +0.000 C 
ATOM      3  C   UNL     1      -9.036  -2.937 123.706  0.00  0.00    +0.000 C 
ATOM      4  O   UNL     1     -10.106  -3.328 123.233  0.00  0.00    +0.000 OA
ATOM      5  C   UNL     1      -8.059  -2.119 122.929  0.00  0.00    +0.000 C 
ATOM      6  C   UNL     1      -7.792  -0.822 123.673  0.00  0.00    +0.000 C 
ATOM      7  C   UNL     1      -7.425  -1.050 125.147  0.00  0.00    +0.000 C 
ATOM      8  C   UNL     1      -7.279   0.244 125.987  0.00  0.00    +0.000 C 
ATOM      9  C   UNL     1      -6.445   1.286 125.211  0.00  0.00    +0.000 C 
ATOM     10  C   UNL     1      -8.612   0.931 126.344  0.00  0.00    +0.000 C 
ATOM     11  O   UNL     1      -6.597  -0.101 127.218  0.00  0.00    +0.000 OA
ATOM     12  C   UNL     1      -7.015  -1.265 127.839  0.00  0.00    +0.000 A 
ATOM     13  C   UNL     1      -6.480  -1.509 129.104  0.00  0.00    +0.000 A 
ATOM     14  C   UNL     1      -6.835  -2.657 129.845  0.00  0.00    +0.000 A 
ATOM     15  C   UNL     1      -7.755  -3.547 129.283  0.00  0.00    +0.000 A 
ATOM     16  C   UNL     1      -8.298  -3.300 128.040  0.00  0.00    +0.000 A 
ATOM     17  C   UNL     1      -7.906  -2.193 127.277  0.00  0.00    +0.000 A 
ENDROOT
BRANCH  14  18
ATOM     18  C   UNL     1      -6.295  -2.970 131.244  0.00  0.00    +0.000 C 
ATOM     19  C   UNL     1      -5.668  -4.386 131.236  0.00  0.00    +0.000 C 
ATOM     20  C   UNL     1      -5.208  -1.933 131.611  0.00  0.00    +0.000 C 
BRANCH  18  21
ATOM     21  C   UNL     1      -7.428  -2.919 132.288  0.00  0.00    +0.000 C 
BRANCH  21  22
ATOM     22  C   UNL     1      -7.142  -1.991 133.450  0.00  0.00    +0.000 C 
BRANCH  22  23
ATOM     23  C   UNL     1      -7.476  -2.671 134.756  0.00  0.00    +0.000 C 
BRANCH  23  24
ATOM     24  C   UNL     1      -8.151  -3.991 134.439  0.00  0.00    +0.000 C 
BRANCH  24  25
ATOM     25  C   UNL     1      -7.566  -5.089 135.302  0.00  0.00    +0.000 C 
ATOM     26  C   UNL     1      -6.327  -5.659 134.647  0.00  0.00    +0.000 C 
ENDBRANCH  24  25
ENDBRANCH  23  24
ENDBRANCH  22  23
ENDBRANCH  21  22
ENDBRANCH  18  21
ENDBRANCH  14  18
BRANCH  16  27
ATOM     27  O   UNL     1      -9.253  -4.157 127.580  0.00  0.00    +0.000 OA
ATOM     28  H   UNL     1      -9.941  -3.679 127.093  0.00  0.00    +0.000 HD
ENDBRANCH  16  27
TORSDOF 7
ENDMDL
MODEL 6
REMARK VINA RESULT:      -6.9      5.386      8.538
REMARK  Name = Nabilone
REMARK  12 active torsions:
REMARK  status: ('A' for Active; 'I' for Inactive)
REMARK    1  A    between atoms: C_10  and  C_11
REMARK    2  A    between atoms: C_10  and  C_12
REMARK    3  A    between atoms: C_16  and  C_21
REMARK    4  A    between atoms: C_18  and  O_19
REMARK    5  A    between atoms: C_21  and  C_22
REMARK    6  A    between atoms: C_21  and  C_23
REMARK    7  A    between atoms: C_21  and  C_24
REMARK    8  A    between atoms: C_24  and  C_25
REMARK    9  A    between atoms: C_25  and  C_26
REMARK   10  A    between atoms: C_26  and  C_27
REMARK   11  A    between atoms: C_27  and  C_28
REMARK   12  A    between atoms: C_28  and  C_29
REMARK                            x       y       z     vdW  Elec       q    Type
REMARK                         _______ _______ _______ _____ _____    ______ ____
ROOT
ATOM      1  C   UNL     1      -4.487   5.435 130.096  0.00  0.00    +0.000 C 
ATOM      2  C   UNL     1      -3.704   6.623 130.647  0.00  0.00    +0.000 C 
ATOM      3  C   UNL     1      -2.270   6.456 130.281  0.00  0.00    +0.000 C 
ATOM      4  O   UNL     1      -1.378   6.380 131.130  0.00  0.00    +0.000 OA
ATOM      5  C   UNL     1      -1.996   6.422 128.815  0.00  0.00    +0.000 C 
ATOM      6  C   UNL     1      -2.778   5.281 128.187  0.00  0.00    +0.000 C 
ATOM      7  C   UNL     1      -4.265   5.301 128.572  0.00  0.00    +0.000 C 
ATOM      8  C   UNL     1      -5.080   4.082 128.074  0.00  0.00    +0.000 C 
ATOM      9  C   UNL     1      -4.745   3.791 126.595  0.00  0.00    +0.000 C 
ATOM     10  C   UNL     1      -4.818   2.774 128.847  0.00  0.00    +0.000 C 
ATOM     11  O   UNL     1      -6.487   4.410 128.193  0.00  0.00    +0.000 OA
ATOM     12  C   UNL     1      -6.866   5.042 129.365  0.00  0.00    +0.000 A 
ATOM     13  C   UNL     1      -8.238   5.207 129.554  0.00  0.00    +0.000 A 
ATOM     14  C   UNL     1      -8.752   5.827 130.713  0.00  0.00    +0.000 A 
ATOM     15  C   UNL     1      -7.848   6.267 131.684  0.00  0.00    +0.000 A 
ATOM     16  C   UNL     1      -6.492   6.091 131.507  0.00  0.00    +0.000 A 
ATOM     17  C   UNL     1      -5.974   5.528 130.334  0.00  0.00    +0.000 A 
ENDROOT
BRANCH  14  18
ATOM     18  C   UNL     1     -10.248   6.021 130.986  0.00  0.00    +0.000 C 
ATOM     19  C   UNL     1     -11.022   4.796 130.439  0.00  0.00    +0.000 C 
ATOM     20  C   UNL     1     -10.474   6.127 132.513  0.00  0.00    +0.000 C 
BRANCH  18  21
ATOM     21  C   UNL     1     -10.765   7.301 130.299  0.00  0.00    +0.000 C 
BRANCH  21  22
ATOM     22  C   UNL     1     -12.273   7.357 130.176  0.00  0.00    +0.000 C 
BRANCH  22  23
ATOM     23  C   UNL     1     -12.666   8.004 128.870  0.00  0.00    +0.000 C 
BRANCH  23  24
ATOM     24  C   UNL     1     -13.232   6.927 127.964  0.00  0.00    +0.000 C 
BRANCH  24  25
ATOM     25  C   UNL     1     -12.602   7.025 126.591  0.00  0.00    +0.000 C 
ATOM     26  C   UNL     1     -11.161   7.471 126.713  0.00  0.00    +0.000 C 
ENDBRANCH  24  25
ENDBRANCH  23  24
ENDBRANCH  22  23
ENDBRANCH  21  22
ENDBRANCH  18  21
ENDBRANCH  14  18
BRANCH  16  27
ATOM     27  O   UNL     1      -5.663   6.461 132.524  0.00  0.00    +0.000 OA
ATOM     28  H   UNL     1      -4.745   6.217 132.329  0.00  0.00    +0.000 HD
ENDBRANCH  16  27
TORSDOF 7
ENDMDL
MODEL 7
REMARK VINA RESULT:      -6.8      2.473      5.512
REMARK  Name = Nabilone
REMARK  12 active torsions:
REMARK  status: ('A' for Active; 'I' for Inactive)
REMARK    1  A    between atoms: C_10  and  C_11
REMARK    2  A    between atoms: C_10  and  C_12
REMARK    3  A    between atoms: C_16  and  C_21
REMARK    4  A    between atoms: C_18  and  O_19
REMARK    5  A    between atoms: C_21  and  C_22
REMARK    6  A    between atoms: C_21  and  C_23
REMARK    7  A    between atoms: C_21  and  C_24
REMARK    8  A    between atoms: C_24  and  C_25
REMARK    9  A    between atoms: C_25  and  C_26
REMARK   10  A    between atoms: C_26  and  C_27
REMARK   11  A    between atoms: C_27  and  C_28
REMARK   12  A    between atoms: C_28  and  C_29
REMARK                            x       y       z     vdW  Elec       q    Type
REMARK                         _______ _______ _______ _____ _____    ______ ____
ROOT
ATOM      1  C   UNL     1      -7.444   0.380 124.856  0.00  0.00    +0.000 C 
ATOM      2  C   UNL     1      -8.023   1.716 125.311  0.00  0.00    +0.000 C 
ATOM      3  C   UNL     1      -8.767   2.322 124.172  0.00  0.00    +0.000 C 
ATOM      4  O   UNL     1      -8.465   3.420 123.698  0.00  0.00    +0.000 OA
ATOM      5  C   UNL     1      -9.921   1.516 123.676  0.00  0.00    +0.000 C 
ATOM      6  C   UNL     1      -9.423   0.149 123.240  0.00  0.00    +0.000 C 
ATOM      7  C   UNL     1      -8.562  -0.536 124.310  0.00  0.00    +0.000 C 
ATOM      8  C   UNL     1      -7.913  -1.871 123.865  0.00  0.00    +0.000 C 
ATOM      9  C   UNL     1      -8.956  -2.748 123.138  0.00  0.00    +0.000 C 
ATOM     10  C   UNL     1      -6.724  -1.715 122.896  0.00  0.00    +0.000 C 
ATOM     11  O   UNL     1      -7.450  -2.558 125.053  0.00  0.00    +0.000 OA
ATOM     12  C   UNL     1      -6.803  -1.775 125.994  0.00  0.00    +0.000 A 
ATOM     13  C   UNL     1      -6.210  -2.459 127.055  0.00  0.00    +0.000 A 
ATOM     14  C   UNL     1      -5.513  -1.775 128.074  0.00  0.00    +0.000 A 
ATOM     15  C   UNL     1      -5.416  -0.383 127.990  0.00  0.00    +0.000 A 
ATOM     16  C   UNL     1      -5.988   0.294 126.933  0.00  0.00    +0.000 A 
ATOM     17  C   UNL     1      -6.729  -0.374 125.950  0.00  0.00    +0.000 A 
ENDROOT
BRANCH  14  18
ATOM     18  C   UNL     1      -4.827  -2.471 129.254  0.00  0.00    +0.000 C 
ATOM     19  C   UNL     1      -3.692  -3.377 128.715  0.00  0.00    +0.000 C 
ATOM     20  C   UNL     1      -4.222  -1.400 130.192  0.00  0.00    +0.000 C 
BRANCH  18  21
ATOM     21  C   UNL     1      -5.836  -3.332 130.040  0.00  0.00    +0.000 C 
BRANCH  21  22
ATOM     22  C   UNL     1      -6.651  -2.545 131.045  0.00  0.00    +0.000 C 
BRANCH  22  23
ATOM     23  C   UNL     1      -7.979  -2.150 130.446  0.00  0.00    +0.000 C 
BRANCH  23  24
ATOM     24  C   UNL     1      -8.100  -0.640 130.527  0.00  0.00    +0.000 C 
BRANCH  24  25
ATOM     25  C   UNL     1      -8.533  -0.232 131.919  0.00  0.00    +0.000 C 
ATOM     26  C   UNL     1      -9.430   0.986 131.847  0.00  0.00    +0.000 C 
ENDBRANCH  24  25
ENDBRANCH  23  24
ENDBRANCH  22  23
ENDBRANCH  21  22
ENDBRANCH  18  21
ENDBRANCH  14  18
BRANCH  16  27
ATOM     27  O   UNL     1      -5.789   1.641 126.858  0.00  0.00    +0.000 OA
ATOM     28  H   UNL     1      -5.602   2.013 127.733  0.00  0.00    +0.000 HD
ENDBRANCH  16  27
TORSDOF 7
ENDMDL
MODEL 8
REMARK VINA RESULT:      -6.8      7.739     11.867
REMARK  Name = Nabilone
REMARK  12 active torsions:
REMARK  status: ('A' for Active; 'I' for Inactive)
REMARK    1  A    between atoms: C_10  and  C_11
REMARK    2  A    between atoms: C_10  and  C_12
REMARK    3  A    between atoms: C_16  and  C_21
REMARK    4  A    between atoms: C_18  and  O_19
REMARK    5  A    between atoms: C_21  and  C_22
REMARK    6  A    between atoms: C_21  and  C_23
REMARK    7  A    between atoms: C_21  and  C_24
REMARK    8  A    between atoms: C_24  and  C_25
REMARK    9  A    between atoms: C_25  and  C_26
REMARK   10  A    between atoms: C_26  and  C_27
REMARK   11  A    between atoms: C_27  and  C_28
REMARK   12  A    between atoms: C_28  and  C_29
REMARK                            x       y       z     vdW  Elec       q    Type
REMARK                         _______ _______ _______ _____ _____    ______ ____
ROOT
ATOM      1  C   UNL     1      -7.072   6.165 131.392  0.00  0.00    +0.000 C 
ATOM      2  C   UNL     1      -7.749   7.285 130.608  0.00  0.00    +0.000 C 
ATOM      3  C   UNL     1      -9.143   6.866 130.291  0.00  0.00    +0.000 C 
ATOM      4  O   UNL     1      -9.554   6.767 129.133  0.00  0.00    +0.000 OA
ATOM      5  C   UNL     1     -10.007   6.611 131.481  0.00  0.00    +0.000 C 
ATOM      6  C   UNL     1      -9.371   5.527 132.336  0.00  0.00    +0.000 C 
ATOM      7  C   UNL     1      -7.896   5.811 132.651  0.00  0.00    +0.000 C 
ATOM      8  C   UNL     1      -7.161   4.672 133.400  0.00  0.00    +0.000 C 
ATOM      9  C   UNL     1      -8.037   4.153 134.561  0.00  0.00    +0.000 C 
ATOM     10  C   UNL     1      -6.820   3.446 132.530  0.00  0.00    +0.000 C 
ATOM     11  O   UNL     1      -5.927   5.214 133.933  0.00  0.00    +0.000 OA
ATOM     12  C   UNL     1      -5.208   6.035 133.082  0.00  0.00    +0.000 A 
ATOM     13  C   UNL     1      -3.944   6.421 133.529  0.00  0.00    +0.000 A 
ATOM     14  C   UNL     1      -3.108   7.249 132.749  0.00  0.00    +0.000 A 
ATOM     15  C   UNL     1      -3.574   7.669 131.499  0.00  0.00    +0.000 A 
ATOM     16  C   UNL     1      -4.816   7.277 131.048  0.00  0.00    +0.000 A 
ATOM     17  C   UNL     1      -5.672   6.502 131.842  0.00  0.00    +0.000 A 
ENDROOT
BRANCH  14  18
ATOM     18  C   UNL     1      -1.705   7.691 133.177  0.00  0.00    +0.000 C 
ATOM     19  C   UNL     1      -1.497   7.332 134.669  0.00  0.00    +0.000 C 
ATOM     20  C   UNL     1      -0.655   6.943 132.321  0.00  0.00    +0.000 C 
BRANCH  18  21
ATOM     21  C   UNL     1      -1.532   9.212 132.989  0.00  0.00    +0.000 C 
BRANCH  21  22
ATOM     22  C   UNL     1      -0.500   9.825 133.912  0.00  0.00    +0.000 C 
BRANCH  22  23
ATOM     23  C   UNL     1       0.502  10.625 133.117  0.00  0.00    +0.000 C 
BRANCH  23  24
ATOM     24  C   UNL     1       0.177  12.096 133.295  0.00  0.00    +0.000 C 
BRANCH  24  25
ATOM     25  C   UNL     1       1.088  12.935 132.425  0.00  0.00    +0.000 C 
ATOM     26  C   UNL     1       0.637  12.864 130.982  0.00  0.00    +0.000 C 
ENDBRANCH  24  25
ENDBRANCH  23  24
ENDBRANCH  22  23
ENDBRANCH  21  22
ENDBRANCH  18  21
ENDBRANCH  14  18
BRANCH  16  27
ATOM     27  O   UNL     1      -5.183   7.646 129.789  0.00  0.00    +0.000 OA
ATOM     28  H   UNL     1      -6.143   7.577 129.673  0.00  0.00    +0.000 HD
ENDBRANCH  16  27
TORSDOF 7
ENDMDL
MODEL 9
REMARK VINA RESULT:      -6.8      3.880      6.685
REMARK  Name = Nabilone
REMARK  12 active torsions:
REMARK  status: ('A' for Active; 'I' for Inactive)
REMARK    1  A    between atoms: C_10  and  C_11
REMARK    2  A    between atoms: C_10  and  C_12
REMARK    3  A    between atoms: C_16  and  C_21
REMARK    4  A    between atoms: C_18  and  O_19
REMARK    5  A    between atoms: C_21  and  C_22
REMARK    6  A    between atoms: C_21  and  C_23
REMARK    7  A    between atoms: C_21  and  C_24
REMARK    8  A    between atoms: C_24  and  C_25
REMARK    9  A    between atoms: C_25  and  C_26
REMARK   10  A    between atoms: C_26  and  C_27
REMARK   11  A    between atoms: C_27  and  C_28
REMARK   12  A    between atoms: C_28  and  C_29
REMARK                            x       y       z     vdW  Elec       q    Type
REMARK                         _______ _______ _______ _____ _____    ______ ____
ROOT
ATOM      1  C   UNL     1      -4.880  -3.499 132.217  0.00  0.00    +0.000 C 
ATOM      2  C   UNL     1      -3.731  -4.493 132.073  0.00  0.00    +0.000 C 
ATOM      3  C   UNL     1      -3.312  -4.933 133.432  0.00  0.00    +0.000 C 
ATOM      4  O   UNL     1      -2.168  -4.755 133.859  0.00  0.00    +0.000 OA
ATOM      5  C   UNL     1      -4.370  -5.631 134.220  0.00  0.00    +0.000 C 
ATOM      6  C   UNL     1      -5.569  -4.711 134.371  0.00  0.00    +0.000 C 
ATOM      7  C   UNL     1      -6.035  -4.122 133.032  0.00  0.00    +0.000 C 
ATOM      8  C   UNL     1      -7.165  -3.069 133.145  0.00  0.00    +0.000 C 
ATOM      9  C   UNL     1      -8.262  -3.572 134.108  0.00  0.00    +0.000 C 
ATOM     10  C   UNL     1      -6.713  -1.696 133.680  0.00  0.00    +0.000 C 
ATOM     11  O   UNL     1      -7.732  -2.882 131.825  0.00  0.00    +0.000 OA
ATOM     12  C   UNL     1      -6.826  -2.790 130.782  0.00  0.00    +0.000 A 
ATOM     13  C   UNL     1      -7.357  -2.443 129.540  0.00  0.00    +0.000 A 
ATOM     14  C   UNL     1      -6.535  -2.307 128.400  0.00  0.00    +0.000 A 
ATOM     15  C   UNL     1      -5.161  -2.517 128.547  0.00  0.00    +0.000 A 
ATOM     16  C   UNL     1      -4.631  -2.844 129.777  0.00  0.00    +0.000 A 
ATOM     17  C   UNL     1      -5.449  -3.036 130.899  0.00  0.00    +0.000 A 
ENDROOT
BRANCH  14  18
ATOM     18  C   UNL     1      -7.056  -1.912 127.014  0.00  0.00    +0.000 C 
ATOM     19  C   UNL     1      -7.906  -0.625 127.144  0.00  0.00    +0.000 C 
ATOM     20  C   UNL     1      -5.853  -1.637 126.081  0.00  0.00    +0.000 C 
BRANCH  18  21
ATOM     21  C   UNL     1      -7.923  -3.039 126.418  0.00  0.00    +0.000 C 
BRANCH  21  22
ATOM     22  C   UNL     1      -9.217  -2.549 125.802  0.00  0.00    +0.000 C 
BRANCH  22  23
ATOM     23  C   UNL     1      -9.423  -3.182 124.447  0.00  0.00    +0.000 C 
BRANCH  23  24
ATOM     24  C   UNL     1      -8.082  -3.226 123.740  0.00  0.00    +0.000 C 
BRANCH  24  25
ATOM     25  C   UNL     1      -7.922  -2.003 122.861  0.00  0.00    +0.000 C 
ATOM     26  C   UNL     1      -6.465  -1.813 122.499  0.00  0.00    +0.000 C 
ENDBRANCH  24  25
ENDBRANCH  23  24
ENDBRANCH  22  23
ENDBRANCH  21  22
ENDBRANCH  18  21
ENDBRANCH  14  18
BRANCH  16  27
ATOM     27  O   UNL     1      -3.276  -2.952 129.880  0.00  0.00    +0.000 OA
ATOM     28  H   UNL     1      -3.015  -3.867 130.067  0.00  0.00    +0.000 HD
ENDBRANCH  16  27
TORSDOF 7
ENDMDL
