MODEL 1
REMARK VINA RESULT:      -6.8      0.000      0.000
REMARK  Name = Nabumetone
REMARK  6 active torsions:
REMARK  status: ('A' for Active; 'I' for Inactive)
REMARK    1  A    between atoms: C_1  and  O_2
REMARK    2  A    between atoms: O_2  and  C_3
REMARK    3  A    between atoms: C_10  and  C_11
REMARK    4  A    between atoms: C_11  and  C_12
REMARK    5  A    between atoms: C_12  and  C_13
REMARK    6  A    between atoms: C_13  and  C_14
REMARK                            x       y       z     vdW  Elec       q    Type
REMARK                         _______ _______ _______ _____ _____    ______ ____
ROOT
ATOM      1  C   UNL     1     -11.980   7.733 129.036  0.00  0.00    +0.000 A 
ATOM      2  C   UNL     1     -10.596   7.668 129.189  0.00  0.00    +0.000 A 
ATOM      3  C   UNL     1     -10.026   7.111 130.338  0.00  0.00    +0.000 A 
ATOM      4  C   UNL     1     -10.859   6.609 131.362  0.00  0.00    +0.000 A 
ATOM      5  C   UNL     1     -12.251   6.708 131.212  0.00  0.00    +0.000 A 
ATOM      6  C   UNL     1     -12.809   7.257 130.050  0.00  0.00    +0.000 A 
ATOM      7  C   UNL     1     -10.273   6.014 132.490  0.00  0.00    +0.000 A 
ATOM      8  C   UNL     1      -8.877   5.924 132.615  0.00  0.00    +0.000 A 
ATOM      9  C   UNL     1      -8.073   6.438 131.593  0.00  0.00    +0.000 A 
ATOM     10  C   UNL     1      -8.639   7.028 130.470  0.00  0.00    +0.000 A 
ENDROOT
BRANCH   1  12
ATOM     11  C   UNL     1     -12.293   7.253 126.744  0.00  0.00    +0.000 C 
ATOM     12  O   UNL     1     -12.405   8.178 127.816  0.00  0.00    +0.000 OA
ENDBRANCH   1  12
BRANCH   8  13
ATOM     13  C   UNL     1      -8.291   5.284 133.846  0.00  0.00    +0.000 C 
BRANCH  13  14
ATOM     14  C   UNL     1      -8.959   3.981 134.270  0.00  0.00    +0.000 C 
BRANCH  14  15
ATOM     15  C   UNL     1      -8.621   2.769 133.437  0.00  0.00    +0.000 C 
ATOM     16  C   UNL     1      -9.535   2.318 132.332  0.00  0.00    +0.000 C 
ATOM     17  O   UNL     1      -7.581   2.144 133.671  0.00  0.00    +0.000 OA
ENDBRANCH  14  15
ENDBRANCH  13  14
ENDBRANCH   8  13
TORSDOF 4
ENDMDL
MODEL 2
REMARK VINA RESULT:      -6.6      1.274      2.264
REMARK  Name = Nabumetone
REMARK  6 active torsions:
REMARK  status: ('A' for Active; 'I' for Inactive)
REMARK    1  A    between atoms: C_1  and  O_2
REMARK    2  A    between atoms: O_2  and  C_3
REMARK    3  A    between atoms: C_10  and  C_11
REMARK    4  A    between atoms: C_11  and  C_12
REMARK    5  A    between atoms: C_12  and  C_13
REMARK    6  A    between atoms: C_13  and  C_14
REMARK                            x       y       z     vdW  Elec       q    Type
REMARK                         _______ _______ _______ _____ _____    ______ ____
ROOT
ATOM      1  C   UNL     1     -12.494   8.861 128.799  0.00  0.00    +0.000 A 
ATOM      2  C   UNL     1     -12.688   8.198 130.009  0.00  0.00    +0.000 A 
ATOM      3  C   UNL     1     -11.660   7.447 130.588  0.00  0.00    +0.000 A 
ATOM      4  C   UNL     1     -10.409   7.353 129.940  0.00  0.00    +0.000 A 
ATOM      5  C   UNL     1     -10.236   7.998 128.706  0.00  0.00    +0.000 A 
ATOM      6  C   UNL     1     -11.269   8.757 128.143  0.00  0.00    +0.000 A 
ATOM      7  C   UNL     1      -9.374   6.631 130.555  0.00  0.00    +0.000 A 
ATOM      8  C   UNL     1      -9.572   5.996 131.792  0.00  0.00    +0.000 A 
ATOM      9  C   UNL     1     -10.823   6.096 132.408  0.00  0.00    +0.000 A 
ATOM     10  C   UNL     1     -11.856   6.808 131.814  0.00  0.00    +0.000 A 
ENDROOT
BRANCH   1  12
ATOM     11  C   UNL     1     -13.765  10.810 129.215  0.00  0.00    +0.000 C 
ATOM     12  O   UNL     1     -13.530   9.664 128.409  0.00  0.00    +0.000 OA
ENDBRANCH   1  12
BRANCH   8  13
ATOM     13  C   UNL     1      -8.436   5.226 132.411  0.00  0.00    +0.000 C 
BRANCH  13  14
ATOM     14  C   UNL     1      -8.843   4.261 133.519  0.00  0.00    +0.000 C 
BRANCH  14  15
ATOM     15  C   UNL     1      -8.744   2.795 133.180  0.00  0.00    +0.000 C 
ATOM     16  C   UNL     1      -9.748   2.147 132.268  0.00  0.00    +0.000 C 
ATOM     17  O   UNL     1      -7.824   2.123 133.660  0.00  0.00    +0.000 OA
ENDBRANCH  14  15
ENDBRANCH  13  14
ENDBRANCH   8  13
TORSDOF 4
ENDMDL
MODEL 3
REMARK VINA RESULT:      -6.3      8.629      9.910
REMARK  Name = Nabumetone
REMARK  6 active torsions:
REMARK  status: ('A' for Active; 'I' for Inactive)
REMARK    1  A    between atoms: C_1  and  O_2
REMARK    2  A    between atoms: O_2  and  C_3
REMARK    3  A    between atoms: C_10  and  C_11
REMARK    4  A    between atoms: C_11  and  C_12
REMARK    5  A    between atoms: C_12  and  C_13
REMARK    6  A    between atoms: C_13  and  C_14
REMARK                            x       y       z     vdW  Elec       q    Type
REMARK                         _______ _______ _______ _____ _____    ______ ____
ROOT
ATOM      1  C   UNL     1      -6.488   4.307 120.493  0.00  0.00    +0.000 A 
ATOM      2  C   UNL     1      -6.065   3.830 121.732  0.00  0.00    +0.000 A 
ATOM      3  C   UNL     1      -6.948   3.153 122.580  0.00  0.00    +0.000 A 
ATOM      4  C   UNL     1      -8.288   2.952 122.181  0.00  0.00    +0.000 A 
ATOM      5  C   UNL     1      -8.711   3.465 120.945  0.00  0.00    +0.000 A 
ATOM      6  C   UNL     1      -7.813   4.130 120.100  0.00  0.00    +0.000 A 
ATOM      7  C   UNL     1      -9.151   2.234 123.024  0.00  0.00    +0.000 A 
ATOM      8  C   UNL     1      -8.702   1.728 124.255  0.00  0.00    +0.000 A 
ATOM      9  C   UNL     1      -7.374   1.949 124.631  0.00  0.00    +0.000 A 
ATOM     10  C   UNL     1      -6.508   2.656 123.807  0.00  0.00    +0.000 A 
ENDROOT
BRANCH   1  12
ATOM     11  C   UNL     1      -5.926   5.679 118.653  0.00  0.00    +0.000 C 
ATOM     12  O   UNL     1      -5.498   4.831 119.709  0.00  0.00    +0.000 OA
ENDBRANCH   1  12
BRANCH   8  13
ATOM     13  C   UNL     1      -9.665   0.970 125.130  0.00  0.00    +0.000 C 
BRANCH  13  14
ATOM     14  C   UNL     1      -9.051  -0.196 125.898  0.00  0.00    +0.000 C 
BRANCH  14  15
ATOM     15  C   UNL     1      -9.091  -1.533 125.202  0.00  0.00    +0.000 C 
ATOM     16  C   UNL     1      -8.263  -1.785 123.973  0.00  0.00    +0.000 C 
ATOM     17  O   UNL     1      -9.815  -2.429 125.652  0.00  0.00    +0.000 OA
ENDBRANCH  14  15
ENDBRANCH  13  14
ENDBRANCH   8  13
TORSDOF 4
ENDMDL
MODEL 4
REMARK VINA RESULT:      -6.2      9.553     10.177
REMARK  Name = Nabumetone
REMARK  6 active torsions:
REMARK  status: ('A' for Active; 'I' for Inactive)
REMARK    1  A    between atoms: C_1  and  O_2
REMARK    2  A    between atoms: O_2  and  C_3
REMARK    3  A    between atoms: C_10  and  C_11
REMARK    4  A    between atoms: C_11  and  C_12
REMARK    5  A    between atoms: C_12  and  C_13
REMARK    6  A    between atoms: C_13  and  C_14
REMARK                            x       y       z     vdW  Elec       q    Type
REMARK                         _______ _______ _______ _____ _____    ______ ____
ROOT
ATOM      1  C   UNL     1      -8.637  -1.772 124.428  0.00  0.00    +0.000 A 
ATOM      2  C   UNL     1      -9.152  -2.656 125.375  0.00  0.00    +0.000 A 
ATOM      3  C   UNL     1      -8.506  -2.853 126.600  0.00  0.00    +0.000 A 
ATOM      4  C   UNL     1      -7.313  -2.153 126.883  0.00  0.00    +0.000 A 
ATOM      5  C   UNL     1      -6.786  -1.291 125.910  0.00  0.00    +0.000 A 
ATOM      6  C   UNL     1      -7.450  -1.092 124.693  0.00  0.00    +0.000 A 
ATOM      7  C   UNL     1      -6.698  -2.330 128.134  0.00  0.00    +0.000 A 
ATOM      8  C   UNL     1      -7.248  -3.197 129.092  0.00  0.00    +0.000 A 
ATOM      9  C   UNL     1      -8.424  -3.886 128.783  0.00  0.00    +0.000 A 
ATOM     10  C   UNL     1      -9.045  -3.721 127.551  0.00  0.00    +0.000 A 
ENDROOT
BRANCH   1  12
ATOM     11  C   UNL     1      -9.570  -0.225 122.906  0.00  0.00    +0.000 C 
ATOM     12  O   UNL     1      -9.431  -1.572 123.334  0.00  0.00    +0.000 OA
ENDBRANCH   1  12
BRANCH   8  13
ATOM     13  C   UNL     1      -6.551  -3.361 130.417  0.00  0.00    +0.000 C 
BRANCH  13  14
ATOM     14  C   UNL     1      -5.429  -4.392 130.428  0.00  0.00    +0.000 C 
BRANCH  14  15
ATOM     15  C   UNL     1      -4.027  -3.836 130.382  0.00  0.00    +0.000 C 
ATOM     16  C   UNL     1      -3.312  -3.662 129.071  0.00  0.00    +0.000 C 
ATOM     17  O   UNL     1      -3.465  -3.522 131.437  0.00  0.00    +0.000 OA
ENDBRANCH  14  15
ENDBRANCH  13  14
ENDBRANCH   8  13
TORSDOF 4
ENDMDL
MODEL 5
REMARK VINA RESULT:      -6.2      1.782      2.387
REMARK  Name = Nabumetone
REMARK  6 active torsions:
REMARK  status: ('A' for Active; 'I' for Inactive)
REMARK    1  A    between atoms: C_1  and  O_2
REMARK    2  A    between atoms: O_2  and  C_3
REMARK    3  A    between atoms: C_10  and  C_11
REMARK    4  A    between atoms: C_11  and  C_12
REMARK    5  A    between atoms: C_12  and  C_13
REMARK    6  A    between atoms: C_13  and  C_14
REMARK                            x       y       z     vdW  Elec       q    Type
REMARK                         _______ _______ _______ _____ _____    ______ ____
ROOT
ATOM      1  C   UNL     1     -11.758   7.545 129.688  0.00  0.00    +0.000 A 
ATOM      2  C   UNL     1     -10.367   7.598 129.622  0.00  0.00    +0.000 A 
ATOM      3  C   UNL     1      -9.578   7.044 130.635  0.00  0.00    +0.000 A 
ATOM      4  C   UNL     1     -10.194   6.426 131.745  0.00  0.00    +0.000 A 
ATOM      5  C   UNL     1     -11.595   6.407 131.818  0.00  0.00    +0.000 A 
ATOM      6  C   UNL     1     -12.374   6.954 130.790  0.00  0.00    +0.000 A 
ATOM      7  C   UNL     1      -9.389   5.837 132.733  0.00  0.00    +0.000 A 
ATOM      8  C   UNL     1      -7.988   5.868 132.635  0.00  0.00    +0.000 A 
ATOM      9  C   UNL     1      -7.403   6.494 131.531  0.00  0.00    +0.000 A 
ATOM     10  C   UNL     1      -8.186   7.080 130.545  0.00  0.00    +0.000 A 
ENDROOT
BRANCH   1  12
ATOM     11  C   UNL     1     -13.424   7.157 128.058  0.00  0.00    +0.000 C 
ATOM     12  O   UNL     1     -12.407   8.003 128.576  0.00  0.00    +0.000 OA
ENDBRANCH   1  12
BRANCH   8  13
ATOM     13  C   UNL     1      -7.164   5.229 133.722  0.00  0.00    +0.000 C 
BRANCH  13  14
ATOM     14  C   UNL     1      -7.892   5.031 135.047  0.00  0.00    +0.000 C 
BRANCH  14  15
ATOM     15  C   UNL     1      -7.268   5.703 136.244  0.00  0.00    +0.000 C 
ATOM     16  C   UNL     1      -7.984   6.812 136.964  0.00  0.00    +0.000 C 
ATOM     17  O   UNL     1      -6.155   5.333 136.635  0.00  0.00    +0.000 OA
ENDBRANCH  14  15
ENDBRANCH  13  14
ENDBRANCH   8  13
TORSDOF 4
ENDMDL
MODEL 6
REMARK VINA RESULT:      -6.1      1.766      6.355
REMARK  Name = Nabumetone
REMARK  6 active torsions:
REMARK  status: ('A' for Active; 'I' for Inactive)
REMARK    1  A    between atoms: C_1  and  O_2
REMARK    2  A    between atoms: O_2  and  C_3
REMARK    3  A    between atoms: C_10  and  C_11
REMARK    4  A    between atoms: C_11  and  C_12
REMARK    5  A    between atoms: C_12  and  C_13
REMARK    6  A    between atoms: C_13  and  C_14
REMARK                            x       y       z     vdW  Elec       q    Type
REMARK                         _______ _______ _______ _____ _____    ______ ____
ROOT
ATOM      1  C   UNL     1      -6.335   5.720 133.109  0.00  0.00    +0.000 A 
ATOM      2  C   UNL     1      -6.769   6.317 131.927  0.00  0.00    +0.000 A 
ATOM      3  C   UNL     1      -8.132   6.427 131.636  0.00  0.00    +0.000 A 
ATOM      4  C   UNL     1      -9.086   5.924 132.548  0.00  0.00    +0.000 A 
ATOM      5  C   UNL     1      -8.637   5.297 133.720  0.00  0.00    +0.000 A 
ATOM      6  C   UNL     1      -7.269   5.205 134.005  0.00  0.00    +0.000 A 
ATOM      7  C   UNL     1     -10.452   6.080 132.263  0.00  0.00    +0.000 A 
ATOM      8  C   UNL     1     -10.875   6.714 131.084  0.00  0.00    +0.000 A 
ATOM      9  C   UNL     1      -9.912   7.194 130.192  0.00  0.00    +0.000 A 
ATOM     10  C   UNL     1      -8.556   7.049 130.461  0.00  0.00    +0.000 A 
ENDROOT
BRANCH   1  12
ATOM     11  C   UNL     1      -4.157   5.446 132.234  0.00  0.00    +0.000 C 
ATOM     12  O   UNL     1      -4.988   5.795 133.332  0.00  0.00    +0.000 OA
ENDBRANCH   1  12
BRANCH   8  13
ATOM     13  C   UNL     1     -12.351   6.853 130.816  0.00  0.00    +0.000 C 
BRANCH  13  14
ATOM     14  C   UNL     1     -12.754   6.705 129.353  0.00  0.00    +0.000 C 
BRANCH  14  15
ATOM     15  C   UNL     1     -13.199   7.971 128.664  0.00  0.00    +0.000 C 
ATOM     16  C   UNL     1     -12.814   9.318 129.208  0.00  0.00    +0.000 C 
ATOM     17  O   UNL     1     -13.887   7.893 127.640  0.00  0.00    +0.000 OA
ENDBRANCH  14  15
ENDBRANCH  13  14
ENDBRANCH   8  13
TORSDOF 4
ENDMDL
MODEL 7
REMARK VINA RESULT:      -6.0      9.984     11.932
REMARK  Name = Nabumetone
REMARK  6 active torsions:
REMARK  status: ('A' for Active; 'I' for Inactive)
REMARK    1  A    between atoms: C_1  and  O_2
REMARK    2  A    between atoms: O_2  and  C_3
REMARK    3  A    between atoms: C_10  and  C_11
REMARK    4  A    between atoms: C_11  and  C_12
REMARK    5  A    between atoms: C_12  and  C_13
REMARK    6  A    between atoms: C_13  and  C_14
REMARK                            x       y       z     vdW  Elec       q    Type
REMARK                         _______ _______ _______ _____ _____    ______ ____
ROOT
ATOM      1  C   UNL     1      -5.127  -2.946 130.346  0.00  0.00    +0.000 A 
ATOM      2  C   UNL     1      -6.405  -3.476 130.183  0.00  0.00    +0.000 A 
ATOM      3  C   UNL     1      -7.110  -3.297 128.988  0.00  0.00    +0.000 A 
ATOM      4  C   UNL     1      -6.524  -2.566 127.931  0.00  0.00    +0.000 A 
ATOM      5  C   UNL     1      -5.249  -2.010 128.118  0.00  0.00    +0.000 A 
ATOM      6  C   UNL     1      -4.549  -2.207 129.316  0.00  0.00    +0.000 A 
ATOM      7  C   UNL     1      -7.225  -2.431 126.723  0.00  0.00    +0.000 A 
ATOM      8  C   UNL     1      -8.499  -3.001 126.560  0.00  0.00    +0.000 A 
ATOM      9  C   UNL     1      -9.061  -3.711 127.625  0.00  0.00    +0.000 A 
ATOM     10  C   UNL     1      -8.379  -3.854 128.826  0.00  0.00    +0.000 A 
ENDROOT
BRANCH   1  12
ATOM     11  C   UNL     1      -4.911  -4.534 132.083  0.00  0.00    +0.000 C 
ATOM     12  O   UNL     1      -4.498  -3.303 131.506  0.00  0.00    +0.000 OA
ENDBRANCH   1  12
BRANCH   8  13
ATOM     13  C   UNL     1      -9.218  -2.825 125.249  0.00  0.00    +0.000 C 
BRANCH  13  14
ATOM     14  C   UNL     1      -8.415  -3.230 124.018  0.00  0.00    +0.000 C 
BRANCH  14  15
ATOM     15  C   UNL     1      -8.101  -2.121 123.045  0.00  0.00    +0.000 C 
ATOM     16  C   UNL     1      -6.683  -1.832 122.639  0.00  0.00    +0.000 C 
ATOM     17  O   UNL     1      -9.025  -1.443 122.580  0.00  0.00    +0.000 OA
ENDBRANCH  14  15
ENDBRANCH  13  14
ENDBRANCH   8  13
TORSDOF 4
ENDMDL
MODEL 8
REMARK VINA RESULT:      -6.0      2.682      3.983
REMARK  Name = Nabumetone
REMARK  6 active torsions:
REMARK  status: ('A' for Active; 'I' for Inactive)
REMARK    1  A    between atoms: C_1  and  O_2
REMARK    2  A    between atoms: O_2  and  C_3
REMARK    3  A    between atoms: C_10  and  C_11
REMARK    4  A    between atoms: C_11  and  C_12
REMARK    5  A    between atoms: C_12  and  C_13
REMARK    6  A    between atoms: C_13  and  C_14
REMARK                            x       y       z     vdW  Elec       q    Type
REMARK                         _______ _______ _______ _____ _____    ______ ____
ROOT
ATOM      1  C   UNL     1     -11.759   7.074 130.154  0.00  0.00    +0.000 A 
ATOM      2  C   UNL     1     -11.341   6.413 131.307  0.00  0.00    +0.000 A 
ATOM      3  C   UNL     1      -9.983   6.324 131.631  0.00  0.00    +0.000 A 
ATOM      4  C   UNL     1      -9.019   6.905 130.779  0.00  0.00    +0.000 A 
ATOM      5  C   UNL     1      -9.449   7.541 129.604  0.00  0.00    +0.000 A 
ATOM      6  C   UNL     1     -10.813   7.634 129.297  0.00  0.00    +0.000 A 
ATOM      7  C   UNL     1      -7.663   6.845 131.139  0.00  0.00    +0.000 A 
ATOM      8  C   UNL     1      -7.259   6.205 132.323  0.00  0.00    +0.000 A 
ATOM      9  C   UNL     1      -8.232   5.628 133.144  0.00  0.00    +0.000 A 
ATOM     10  C   UNL     1      -9.577   5.682 132.802  0.00  0.00    +0.000 A 
ENDROOT
BRANCH   1  12
ATOM     11  C   UNL     1     -13.603   7.289 128.691  0.00  0.00    +0.000 C 
ATOM     12  O   UNL     1     -13.113   7.204 130.022  0.00  0.00    +0.000 OA
ENDBRANCH   1  12
BRANCH   8  13
ATOM     13  C   UNL     1      -5.794   6.158 132.666  0.00  0.00    +0.000 C 
BRANCH  13  14
ATOM     14  C   UNL     1      -4.856   6.089 131.466  0.00  0.00    +0.000 C 
BRANCH  14  15
ATOM     15  C   UNL     1      -4.038   7.328 131.201  0.00  0.00    +0.000 C 
ATOM     16  C   UNL     1      -4.300   8.178 129.990  0.00  0.00    +0.000 C 
ATOM     17  O   UNL     1      -3.143   7.645 131.993  0.00  0.00    +0.000 OA
ENDBRANCH  14  15
ENDBRANCH  13  14
ENDBRANCH   8  13
TORSDOF 4
ENDMDL
MODEL 9
REMARK VINA RESULT:      -5.9      2.089      6.627
REMARK  Name = Nabumetone
REMARK  6 active torsions:
REMARK  status: ('A' for Active; 'I' for Inactive)
REMARK    1  A    between atoms: C_1  and  O_2
REMARK    2  A    between atoms: O_2  and  C_3
REMARK    3  A    between atoms: C_10  and  C_11
REMARK    4  A    between atoms: C_11  and  C_12
REMARK    5  A    between atoms: C_12  and  C_13
REMARK    6  A    between atoms: C_13  and  C_14
REMARK                            x       y       z     vdW  Elec       q    Type
REMARK                         _______ _______ _______ _____ _____    ______ ____
ROOT
ATOM      1  C   UNL     1      -5.724   6.126 132.657  0.00  0.00    +0.000 A 
ATOM      2  C   UNL     1      -6.957   5.764 133.196  0.00  0.00    +0.000 A 
ATOM      3  C   UNL     1      -8.147   6.026 132.509  0.00  0.00    +0.000 A 
ATOM      4  C   UNL     1      -8.103   6.669 131.252  0.00  0.00    +0.000 A 
ATOM      5  C   UNL     1      -6.859   7.058 130.733  0.00  0.00    +0.000 A 
ATOM      6  C   UNL     1      -5.674   6.779 131.427  0.00  0.00    +0.000 A 
ATOM      7  C   UNL     1      -9.302   6.887 130.554  0.00  0.00    +0.000 A 
ATOM      8  C   UNL     1     -10.535   6.485 131.095  0.00  0.00    +0.000 A 
ATOM      9  C   UNL     1     -10.552   5.859 132.344  0.00  0.00    +0.000 A 
ATOM     10  C   UNL     1      -9.374   5.636 133.046  0.00  0.00    +0.000 A 
ENDROOT
BRANCH   1  12
ATOM     11  C   UNL     1      -3.374   6.153 132.901  0.00  0.00    +0.000 C 
ATOM     12  O   UNL     1      -4.637   5.697 133.365  0.00  0.00    +0.000 OA
ENDBRANCH   1  12
BRANCH   8  13
ATOM     13  C   UNL     1     -11.796   6.745 130.314  0.00  0.00    +0.000 C 
BRANCH  13  14
ATOM     14  C   UNL     1     -12.205   8.211 130.225  0.00  0.00    +0.000 C 
BRANCH  14  15
ATOM     15  C   UNL     1     -12.295   8.783 128.833  0.00  0.00    +0.000 C 
ATOM     16  C   UNL     1     -11.303   8.390 127.774  0.00  0.00    +0.000 C 
ATOM     17  O   UNL     1     -13.197   9.585 128.564  0.00  0.00    +0.000 OA
ENDBRANCH  14  15
ENDBRANCH  13  14
ENDBRANCH   8  13
TORSDOF 4
ENDMDL
