MODEL 1
REMARK VINA RESULT:      -8.9      0.000      0.000
REMARK  Name = NADH
REMARK  18 active torsions:
REMARK  status: ('A' for Active; 'I' for Inactive)
REMARK    1  A    between atoms: C_2  and  C_4
REMARK    2  A    between atoms: N_6  and  C_10
REMARK    3  A    between atoms: C_12  and  C_13
REMARK    4  A    between atoms: C_13  and  O_14
REMARK    5  A    between atoms: O_14  and  P_15
REMARK    6  A    between atoms: P_15  and  O_16
REMARK    7  A    between atoms: P_15  and  O_18
REMARK    8  A    between atoms: O_18  and  P_19
REMARK    9  A    between atoms: P_19  and  O_20
REMARK   10  A    between atoms: P_19  and  O_22
REMARK   11  A    between atoms: O_22  and  C_23
REMARK   12  A    between atoms: C_23  and  C_24
REMARK   13  A    between atoms: C_26  and  N_31
REMARK   14  A    between atoms: C_27  and  O_28
REMARK   15  A    between atoms: C_29  and  O_30
REMARK   16  A    between atoms: C_35  and  N_36
REMARK   17  A    between atoms: C_41  and  O_42
REMARK   18  A    between atoms: C_43  and  O_44
REMARK                            x       y       z     vdW  Elec       q    Type
REMARK                         _______ _______ _______ _____ _____    ______ ____
ROOT
ATOM      1  O   UNL     1      -5.293   5.023 129.570  0.00  0.00    +0.000 OA
ENDROOT
BRANCH   1   2
ATOM      2  P   UNL     1      -4.003   3.948 129.156  0.00  0.00    +0.000 P 
ATOM      3  O   UNL     1      -2.660   4.482 129.654  0.00  0.00    +0.000 OA
BRANCH   2   4
ATOM      4  O   UNL     1      -4.024   3.304 130.760  0.00  0.00    +0.000 OA
ATOM      5  H   UNL     1      -3.371   2.577 130.780  0.00  0.00    +0.000 HD
ENDBRANCH   2   4
BRANCH   2   6
ATOM      6  O   UNL     1      -3.981   4.592 127.550  0.00  0.00    +0.000 OA
BRANCH   6   7
ATOM      7  C   UNL     1      -4.532   3.526 126.737  0.00  0.00    +0.000 C 
BRANCH   7   8
ATOM      8  C   UNL     1      -5.506   4.072 125.783  0.00  0.00    +0.000 C 
ATOM      9  O   UNL     1      -5.661   2.938 124.914  0.00  0.00    +0.000 OA
ATOM     10  C   UNL     1      -7.001   2.758 124.530  0.00  0.00    +0.000 C 
ATOM     11  C   UNL     1      -7.777   3.543 125.570  0.00  0.00    +0.000 C 
ATOM     12  C   UNL     1      -6.848   4.676 125.989  0.00  0.00    +0.000 C 
BRANCH  10  13
ATOM     13  N   UNL     1      -7.218   1.340 124.420  0.00  0.00    +0.000 N 
ATOM     14  C   UNL     1      -6.484   0.327 124.982  0.00  0.00    +0.000 A 
ATOM     15  N   UNL     1      -6.929  -0.858 124.613  0.00  0.00    +0.000 NA
ATOM     16  C   UNL     1      -8.066  -0.585 123.876  0.00  0.00    +0.000 A 
ATOM     17  C   UNL     1      -8.977  -1.393 123.183  0.00  0.00    +0.000 A 
ATOM     18  N   UNL     1     -10.033  -0.804 122.568  0.00  0.00    +0.000 NA
ATOM     19  C   UNL     1     -10.157   0.538 122.647  0.00  0.00    +0.000 A 
ATOM     20  N   UNL     1      -9.319   1.411 123.224  0.00  0.00    +0.000 NA
ATOM     21  C   UNL     1      -8.297   0.773 123.811  0.00  0.00    +0.000 A 
BRANCH  17  22
ATOM     22  N   UNL     1      -8.821  -2.754 123.081  0.00  0.00    +0.000 N 
ATOM     23  H   UNL     1      -8.594  -3.145 122.178  0.00  0.00    +0.000 HD
ATOM     24  H   UNL     1      -8.969  -3.317 123.901  0.00  0.00    +0.000 HD
ENDBRANCH  17  22
ENDBRANCH  10  13
BRANCH  12  25
ATOM     25  O   UNL     1      -7.043   5.798 125.078  0.00  0.00    +0.000 OA
ATOM     26  H   UNL     1      -6.351   5.746 124.382  0.00  0.00    +0.000 HD
ENDBRANCH  12  25
BRANCH  11  27
ATOM     27  O   UNL     1      -8.969   4.045 124.979  0.00  0.00    +0.000 OA
ATOM     28  H   UNL     1      -8.746   4.940 124.646  0.00  0.00    +0.000 HD
ENDBRANCH  11  27
ENDBRANCH   7   8
ENDBRANCH   6   7
ENDBRANCH   2   6
ENDBRANCH   1   2
BRANCH   1  29
ATOM     29  P   UNL     1      -4.742   6.097 130.809  0.00  0.00    +0.000 P 
ATOM     30  O   UNL     1      -4.742   7.285 129.848  0.00  0.00    +0.000 OA
BRANCH  29  31
ATOM     31  O   UNL     1      -4.191   7.169 132.050  0.00  0.00    +0.000 OA
ATOM     32  H   UNL     1      -4.139   6.651 132.875  0.00  0.00    +0.000 HD
ENDBRANCH  29  31
BRANCH  29  33
ATOM     33  O   UNL     1      -6.167   6.124 131.646  0.00  0.00    +0.000 OA
BRANCH  33  34
ATOM     34  C   UNL     1      -7.426   6.439 131.073  0.00  0.00    +0.000 C 
BRANCH  34  37
ATOM     35  C   UNL     1     -10.811   6.037 131.151  0.00  0.00    +0.000 C 
ATOM     36  O   UNL     1      -9.780   6.809 131.817  0.00  0.00    +0.000 OA
ATOM     37  C   UNL     1      -8.633   5.978 131.941  0.00  0.00    +0.000 C 
ATOM     38  C   UNL     1      -9.240   4.684 131.519  0.00  0.00    +0.000 C 
ATOM     39  C   UNL     1     -10.290   4.797 130.495  0.00  0.00    +0.000 C 
BRANCH  35  42
ATOM     40  C   UNL     1     -11.435   7.227 127.837  0.00  0.00    +0.000 C 
ATOM     41  C   UNL     1     -10.778   6.779 128.900  0.00  0.00    +0.000 C 
ATOM     42  N   UNL     1     -11.409   6.768 130.118  0.00  0.00    +0.000 N 
ATOM     43  C   UNL     1     -12.477   7.603 130.385  0.00  0.00    +0.000 C 
ATOM     44  C   UNL     1     -13.193   8.129 129.402  0.00  0.00    +0.000 C 
ATOM     45  C   UNL     1     -12.857   7.691 128.003  0.00  0.00    +0.000 C 
BRANCH  40  47
ATOM     46  N   UNL     1     -11.207   8.016 125.623  0.00  0.00    +0.000 N 
ATOM     47  C   UNL     1     -10.711   7.161 126.562  0.00  0.00    +0.000 C 
ATOM     48  O   UNL     1      -9.761   6.453 126.368  0.00  0.00    +0.000 OA
ATOM     49  H   UNL     1     -10.710   8.053 124.746  0.00  0.00    +0.000 HD
ATOM     50  H   UNL     1     -11.887   8.727 125.838  0.00  0.00    +0.000 HD
ENDBRANCH  40  47
ENDBRANCH  35  42
BRANCH  39  51
ATOM     51  O   UNL     1     -11.292   3.780 130.427  0.00  0.00    +0.000 OA
ATOM     52  H   UNL     1     -12.087   4.215 130.092  0.00  0.00    +0.000 HD
ENDBRANCH  39  51
BRANCH  38  53
ATOM     53  O   UNL     1      -9.871   4.042 132.674  0.00  0.00    +0.000 OA
ATOM     54  H   UNL     1      -9.708   4.562 133.478  0.00  0.00    +0.000 HD
ENDBRANCH  38  53
ENDBRANCH  34  37
ENDBRANCH  33  34
ENDBRANCH  29  33
ENDBRANCH   1  29
TORSDOF 18
ENDMDL
MODEL 2
REMARK VINA RESULT:      -8.7      4.105      8.981
REMARK  Name = NADH
REMARK  18 active torsions:
REMARK  status: ('A' for Active; 'I' for Inactive)
REMARK    1  A    between atoms: C_2  and  C_4
REMARK    2  A    between atoms: N_6  and  C_10
REMARK    3  A    between atoms: C_12  and  C_13
REMARK    4  A    between atoms: C_13  and  O_14
REMARK    5  A    between atoms: O_14  and  P_15
REMARK    6  A    between atoms: P_15  and  O_16
REMARK    7  A    between atoms: P_15  and  O_18
REMARK    8  A    between atoms: O_18  and  P_19
REMARK    9  A    between atoms: P_19  and  O_20
REMARK   10  A    between atoms: P_19  and  O_22
REMARK   11  A    between atoms: O_22  and  C_23
REMARK   12  A    between atoms: C_23  and  C_24
REMARK   13  A    between atoms: C_26  and  N_31
REMARK   14  A    between atoms: C_27  and  O_28
REMARK   15  A    between atoms: C_29  and  O_30
REMARK   16  A    between atoms: C_35  and  N_36
REMARK   17  A    between atoms: C_41  and  O_42
REMARK   18  A    between atoms: C_43  and  O_44
REMARK                            x       y       z     vdW  Elec       q    Type
REMARK                         _______ _______ _______ _____ _____    ______ ____
ROOT
ATOM      1  O   UNL     1      -8.811  -0.740 126.429  0.00  0.00    +0.000 OA
ENDROOT
BRANCH   1   2
ATOM      2  P   UNL     1      -7.493  -0.983 127.522  0.00  0.00    +0.000 P 
ATOM      3  O   UNL     1      -7.805  -2.097 128.521  0.00  0.00    +0.000 OA
BRANCH   2   4
ATOM      4  O   UNL     1      -6.973  -2.346 126.593  0.00  0.00    +0.000 OA
ATOM      5  H   UNL     1      -7.393  -3.134 126.990  0.00  0.00    +0.000 HD
ENDBRANCH   2   4
BRANCH   2   6
ATOM      6  O   UNL     1      -8.013   0.380 128.452  0.00  0.00    +0.000 OA
BRANCH   6   7
ATOM      7  C   UNL     1      -6.856   0.717 129.258  0.00  0.00    +0.000 C 
BRANCH   7   8
ATOM      8  C   UNL     1      -7.285   1.203 130.575  0.00  0.00    +0.000 C 
ATOM      9  O   UNL     1      -7.304   2.618 130.320  0.00  0.00    +0.000 OA
ATOM     10  C   UNL     1      -8.410   3.238 130.924  0.00  0.00    +0.000 C 
ATOM     11  C   UNL     1      -9.365   2.089 131.184  0.00  0.00    +0.000 C 
ATOM     12  C   UNL     1      -8.474   0.873 131.404  0.00  0.00    +0.000 C 
BRANCH  10  13
ATOM     13  N   UNL     1      -8.823   4.303 130.048  0.00  0.00    +0.000 N 
ATOM     14  C   UNL     1      -8.448   4.519 128.747  0.00  0.00    +0.000 A 
ATOM     15  N   UNL     1      -8.966   5.634 128.271  0.00  0.00    +0.000 NA
ATOM     16  C   UNL     1      -9.798   6.085 129.278  0.00  0.00    +0.000 A 
ATOM     17  C   UNL     1     -10.608   7.221 129.418  0.00  0.00    +0.000 A 
ATOM     18  N   UNL     1     -11.344   7.360 130.548  0.00  0.00    +0.000 NA
ATOM     19  C   UNL     1     -11.260   6.400 131.494  0.00  0.00    +0.000 A 
ATOM     20  N   UNL     1     -10.477   5.311 131.496  0.00  0.00    +0.000 NA
ATOM     21  C   UNL     1      -9.774   5.228 130.358  0.00  0.00    +0.000 A 
BRANCH  17  22
ATOM     22  N   UNL     1     -10.659   8.207 128.463  0.00  0.00    +0.000 N 
ATOM     23  H   UNL     1      -9.791   8.617 128.150  0.00  0.00    +0.000 HD
ATOM     24  H   UNL     1     -11.559   8.509 128.131  0.00  0.00    +0.000 HD
ENDBRANCH  17  22
ENDBRANCH  10  13
BRANCH  12  25
ATOM     25  O   UNL     1      -8.107   0.814 132.814  0.00  0.00    +0.000 OA
ATOM     26  H   UNL     1      -7.400   1.479 132.971  0.00  0.00    +0.000 HD
ENDBRANCH  12  25
BRANCH  11  27
ATOM     27  O   UNL     1     -10.137   2.379 132.343  0.00  0.00    +0.000 OA
ATOM     28  H   UNL     1     -11.070   2.216 132.090  0.00  0.00    +0.000 HD
ENDBRANCH  11  27
ENDBRANCH   7   8
ENDBRANCH   6   7
ENDBRANCH   2   6
ENDBRANCH   1   2
BRANCH   1  29
ATOM     29  P   UNL     1      -8.709  -1.920 125.168  0.00  0.00    +0.000 P 
ATOM     30  O   UNL     1      -9.872  -2.718 125.754  0.00  0.00    +0.000 OA
BRANCH  29  31
ATOM     31  O   UNL     1      -8.605  -3.100 123.906  0.00  0.00    +0.000 OA
ATOM     32  H   UNL     1      -8.085  -2.701 123.184  0.00  0.00    +0.000 HD
ENDBRANCH  29  31
BRANCH  29  33
ATOM     33  O   UNL     1      -9.315  -0.942 123.980  0.00  0.00    +0.000 OA
BRANCH  33  34
ATOM     34  C   UNL     1      -9.124   0.462 123.926  0.00  0.00    +0.000 C 
BRANCH  34  37
ATOM     35  C   UNL     1      -6.780   2.721 122.913  0.00  0.00    +0.000 C 
ATOM     36  O   UNL     1      -7.052   1.300 122.815  0.00  0.00    +0.000 OA
ATOM     37  C   UNL     1      -7.632   0.888 124.046  0.00  0.00    +0.000 C 
ATOM     38  C   UNL     1      -7.405   2.132 124.836  0.00  0.00    +0.000 C 
ATOM     39  C   UNL     1      -7.480   3.379 124.060  0.00  0.00    +0.000 C 
BRANCH  35  42
ATOM     40  C   UNL     1      -6.626   4.695 119.935  0.00  0.00    +0.000 C 
ATOM     41  C   UNL     1      -6.339   4.242 121.148  0.00  0.00    +0.000 C 
ATOM     42  N   UNL     1      -7.227   3.405 121.776  0.00  0.00    +0.000 N 
ATOM     43  C   UNL     1      -8.565   3.385 121.434  0.00  0.00    +0.000 C 
ATOM     44  C   UNL     1      -8.973   3.834 120.255  0.00  0.00    +0.000 C 
ATOM     45  C   UNL     1      -7.910   4.258 119.281  0.00  0.00    +0.000 C 
BRANCH  40  47
ATOM     46  N   UNL     1      -5.674   5.546 117.948  0.00  0.00    +0.000 N 
ATOM     47  C   UNL     1      -5.606   5.545 119.310  0.00  0.00    +0.000 C 
ATOM     48  O   UNL     1      -4.810   6.197 119.927  0.00  0.00    +0.000 OA
ATOM     49  H   UNL     1      -5.032   6.158 117.470  0.00  0.00    +0.000 HD
ATOM     50  H   UNL     1      -6.442   5.139 117.441  0.00  0.00    +0.000 HD
ENDBRANCH  40  47
ENDBRANCH  35  42
BRANCH  39  51
ATOM     51  O   UNL     1      -6.758   4.521 124.528  0.00  0.00    +0.000 OA
ATOM     52  H   UNL     1      -6.282   4.228 125.315  0.00  0.00    +0.000 HD
ENDBRANCH  39  51
BRANCH  38  53
ATOM     53  O   UNL     1      -6.062   2.101 125.419  0.00  0.00    +0.000 OA
ATOM     54  H   UNL     1      -6.099   2.346 126.359  0.00  0.00    +0.000 HD
ENDBRANCH  38  53
ENDBRANCH  34  37
ENDBRANCH  33  34
ENDBRANCH  29  33
ENDBRANCH   1  29
TORSDOF 18
ENDMDL
MODEL 3
REMARK VINA RESULT:      -8.5      4.041      8.673
REMARK  Name = NADH
REMARK  18 active torsions:
REMARK  status: ('A' for Active; 'I' for Inactive)
REMARK    1  A    between atoms: C_2  and  C_4
REMARK    2  A    between atoms: N_6  and  C_10
REMARK    3  A    between atoms: C_12  and  C_13
REMARK    4  A    between atoms: C_13  and  O_14
REMARK    5  A    between atoms: O_14  and  P_15
REMARK    6  A    between atoms: P_15  and  O_16
REMARK    7  A    between atoms: P_15  and  O_18
REMARK    8  A    between atoms: O_18  and  P_19
REMARK    9  A    between atoms: P_19  and  O_20
REMARK   10  A    between atoms: P_19  and  O_22
REMARK   11  A    between atoms: O_22  and  C_23
REMARK   12  A    between atoms: C_23  and  C_24
REMARK   13  A    between atoms: C_26  and  N_31
REMARK   14  A    between atoms: C_27  and  O_28
REMARK   15  A    between atoms: C_29  and  O_30
REMARK   16  A    between atoms: C_35  and  N_36
REMARK   17  A    between atoms: C_41  and  O_42
REMARK   18  A    between atoms: C_43  and  O_44
REMARK                            x       y       z     vdW  Elec       q    Type
REMARK                         _______ _______ _______ _____ _____    ______ ____
ROOT
ATOM      1  O   UNL     1      -8.600  -1.387 126.527  0.00  0.00    +0.000 OA
ENDROOT
BRANCH   1   2
ATOM      2  P   UNL     1      -7.053  -1.172 127.269  0.00  0.00    +0.000 P 
ATOM      3  O   UNL     1      -6.698  -2.365 128.156  0.00  0.00    +0.000 OA
BRANCH   2   4
ATOM      4  O   UNL     1      -6.337  -2.202 126.079  0.00  0.00    +0.000 OA
ATOM      5  H   UNL     1      -5.641  -1.679 125.637  0.00  0.00    +0.000 HD
ENDBRANCH   2   4
BRANCH   2   6
ATOM      6  O   UNL     1      -7.769  -0.141 128.460  0.00  0.00    +0.000 OA
BRANCH   6   7
ATOM      7  C   UNL     1      -6.636   0.521 129.077  0.00  0.00    +0.000 C 
BRANCH   7   8
ATOM      8  C   UNL     1      -6.335   1.771 128.367  0.00  0.00    +0.000 C 
ATOM      9  O   UNL     1      -7.559   2.487 128.601  0.00  0.00    +0.000 OA
ATOM     10  C   UNL     1      -7.322   3.844 128.875  0.00  0.00    +0.000 C 
ATOM     11  C   UNL     1      -5.859   3.874 129.276  0.00  0.00    +0.000 C 
ATOM     12  C   UNL     1      -5.211   2.732 128.506  0.00  0.00    +0.000 C 
BRANCH  10  13
ATOM     13  N   UNL     1      -8.316   4.259 129.829  0.00  0.00    +0.000 N 
ATOM     14  C   UNL     1      -8.476   3.831 131.121  0.00  0.00    +0.000 A 
ATOM     15  N   UNL     1      -9.538   4.373 131.685  0.00  0.00    +0.000 NA
ATOM     16  C   UNL     1     -10.005   5.273 130.745  0.00  0.00    +0.000 A 
ATOM     17  C   UNL     1     -11.108   6.136 130.709  0.00  0.00    +0.000 A 
ATOM     18  N   UNL     1     -11.276   6.932 129.624  0.00  0.00    +0.000 NA
ATOM     19  C   UNL     1     -10.375   6.853 128.621  0.00  0.00    +0.000 A 
ATOM     20  N   UNL     1      -9.325   6.025 128.520  0.00  0.00    +0.000 NA
ATOM     21  C   UNL     1      -9.211   5.264 129.617  0.00  0.00    +0.000 A 
BRANCH  17  22
ATOM     22  N   UNL     1     -12.036   6.184 131.721  0.00  0.00    +0.000 N 
ATOM     23  H   UNL     1     -13.015   6.209 131.472  0.00  0.00    +0.000 HD
ATOM     24  H   UNL     1     -11.710   6.222 132.671  0.00  0.00    +0.000 HD
ENDBRANCH  17  22
ENDBRANCH  10  13
BRANCH  12  25
ATOM     25  O   UNL     1      -4.804   3.227 127.195  0.00  0.00    +0.000 OA
ATOM     26  H   UNL     1      -4.483   2.462 126.669  0.00  0.00    +0.000 HD
ENDBRANCH  12  25
BRANCH  11  27
ATOM     27  O   UNL     1      -5.302   5.129 128.905  0.00  0.00    +0.000 OA
ATOM     28  H   UNL     1      -5.616   5.301 127.992  0.00  0.00    +0.000 HD
ENDBRANCH  11  27
ENDBRANCH   7   8
ENDBRANCH   6   7
ENDBRANCH   2   6
ENDBRANCH   1   2
BRANCH   1  29
ATOM     29  P   UNL     1      -8.373  -2.130 124.981  0.00  0.00    +0.000 P 
ATOM     30  O   UNL     1      -9.174  -3.362 125.401  0.00  0.00    +0.000 OA
BRANCH  29  31
ATOM     31  O   UNL     1      -8.145  -2.872 123.434  0.00  0.00    +0.000 OA
ATOM     32  H   UNL     1      -7.353  -2.465 123.035  0.00  0.00    +0.000 HD
ENDBRANCH  29  31
BRANCH  29  33
ATOM     33  O   UNL     1      -9.394  -1.119 124.163  0.00  0.00    +0.000 OA
BRANCH  33  34
ATOM     34  C   UNL     1      -8.967  -0.094 123.281  0.00  0.00    +0.000 C 
BRANCH  34  37
ATOM     35  C   UNL     1      -7.138   2.766 122.964  0.00  0.00    +0.000 C 
ATOM     36  O   UNL     1      -6.987   1.337 122.767  0.00  0.00    +0.000 OA
ATOM     37  C   UNL     1      -7.719   0.682 123.794  0.00  0.00    +0.000 C 
ATOM     38  C   UNL     1      -8.034   1.866 124.644  0.00  0.00    +0.000 C 
ATOM     39  C   UNL     1      -8.247   3.119 123.904  0.00  0.00    +0.000 C 
BRANCH  35  42
ATOM     40  C   UNL     1      -6.663   4.655 119.965  0.00  0.00    +0.000 C 
ATOM     41  C   UNL     1      -6.509   4.239 121.215  0.00  0.00    +0.000 C 
ATOM     42  N   UNL     1      -7.459   3.416 121.766  0.00  0.00    +0.000 N 
ATOM     43  C   UNL     1      -8.751   3.379 121.280  0.00  0.00    +0.000 C 
ATOM     44  C   UNL     1      -9.029   3.792 120.052  0.00  0.00    +0.000 C 
ATOM     45  C   UNL     1      -7.866   4.194 119.187  0.00  0.00    +0.000 C 
BRANCH  40  47
ATOM     46  N   UNL     1      -5.668   5.680 118.084  0.00  0.00    +0.000 N 
ATOM     47  C   UNL     1      -5.581   5.492 119.432  0.00  0.00    +0.000 C 
ATOM     48  O   UNL     1      -4.723   5.988 120.108  0.00  0.00    +0.000 OA
ATOM     49  H   UNL     1      -4.983   6.295 117.674  0.00  0.00    +0.000 HD
ATOM     50  H   UNL     1      -6.476   5.411 117.548  0.00  0.00    +0.000 HD
ENDBRANCH  40  47
ENDBRANCH  35  42
BRANCH  39  51
ATOM     51  O   UNL     1      -7.994   4.359 124.569  0.00  0.00    +0.000 OA
ATOM     52  H   UNL     1      -8.785   4.544 125.093  0.00  0.00    +0.000 HD
ENDBRANCH  39  51
BRANCH  38  53
ATOM     53  O   UNL     1      -6.917   2.122 125.556  0.00  0.00    +0.000 OA
ATOM     54  H   UNL     1      -7.210   2.037 126.478  0.00  0.00    +0.000 HD
ENDBRANCH  38  53
ENDBRANCH  34  37
ENDBRANCH  33  34
ENDBRANCH  29  33
ENDBRANCH   1  29
TORSDOF 18
ENDMDL
MODEL 4
REMARK VINA RESULT:      -8.5      2.563      9.042
REMARK  Name = NADH
REMARK  18 active torsions:
REMARK  status: ('A' for Active; 'I' for Inactive)
REMARK    1  A    between atoms: C_2  and  C_4
REMARK    2  A    between atoms: N_6  and  C_10
REMARK    3  A    between atoms: C_12  and  C_13
REMARK    4  A    between atoms: C_13  and  O_14
REMARK    5  A    between atoms: O_14  and  P_15
REMARK    6  A    between atoms: P_15  and  O_16
REMARK    7  A    between atoms: P_15  and  O_18
REMARK    8  A    between atoms: O_18  and  P_19
REMARK    9  A    between atoms: P_19  and  O_20
REMARK   10  A    between atoms: P_19  and  O_22
REMARK   11  A    between atoms: O_22  and  C_23
REMARK   12  A    between atoms: C_23  and  C_24
REMARK   13  A    between atoms: C_26  and  N_31
REMARK   14  A    between atoms: C_27  and  O_28
REMARK   15  A    between atoms: C_29  and  O_30
REMARK   16  A    between atoms: C_35  and  N_36
REMARK   17  A    between atoms: C_41  and  O_42
REMARK   18  A    between atoms: C_43  and  O_44
REMARK                            x       y       z     vdW  Elec       q    Type
REMARK                         _______ _______ _______ _____ _____    ______ ____
ROOT
ATOM      1  O   UNL     1      -6.231   3.542 125.753  0.00  0.00    +0.000 OA
ENDROOT
BRANCH   1   2
ATOM      2  P   UNL     1      -6.015   2.899 127.343  0.00  0.00    +0.000 P 
ATOM      3  O   UNL     1      -6.852   1.636 127.544  0.00  0.00    +0.000 OA
BRANCH   2   4
ATOM      4  O   UNL     1      -4.907   1.727 126.720  0.00  0.00    +0.000 OA
ATOM      5  H   UNL     1      -4.176   2.225 126.304  0.00  0.00    +0.000 HD
ENDBRANCH   2   4
BRANCH   2   6
ATOM      6  O   UNL     1      -7.124   4.071 127.968  0.00  0.00    +0.000 OA
BRANCH   6   7
ATOM      7  C   UNL     1      -6.558   4.441 129.250  0.00  0.00    +0.000 C 
BRANCH   7   8
ATOM      8  C   UNL     1      -7.511   4.141 130.326  0.00  0.00    +0.000 C 
ATOM      9  O   UNL     1      -8.199   5.402 130.404  0.00  0.00    +0.000 OA
ATOM     10  C   UNL     1      -9.580   5.229 130.593  0.00  0.00    +0.000 C 
ATOM     11  C   UNL     1      -9.821   3.796 130.159  0.00  0.00    +0.000 C 
ATOM     12  C   UNL     1      -8.523   3.062 130.469  0.00  0.00    +0.000 C 
BRANCH  10  13
ATOM     13  N   UNL     1     -10.237   6.293 129.882  0.00  0.00    +0.000 N 
ATOM     14  C   UNL     1      -9.985   6.740 128.611  0.00  0.00    +0.000 A 
ATOM     15  N   UNL     1     -10.732   7.783 128.305  0.00  0.00    +0.000 NA
ATOM     16  C   UNL     1     -11.576   7.931 129.389  0.00  0.00    +0.000 A 
ATOM     17  C   UNL     1     -12.577   8.859 129.706  0.00  0.00    +0.000 A 
ATOM     18  N   UNL     1     -13.261   8.708 130.868  0.00  0.00    +0.000 NA
ATOM     19  C   UNL     1     -12.941   7.673 131.673  0.00  0.00    +0.000 A 
ATOM     20  N   UNL     1     -11.967   6.767 131.504  0.00  0.00    +0.000 NA
ATOM     21  C   UNL     1     -11.327   6.967 130.344  0.00  0.00    +0.000 A 
BRANCH  17  22
ATOM     22  N   UNL     1     -12.870   9.928 128.895  0.00  0.00    +0.000 N 
ATOM     23  H   UNL     1     -13.765   9.945 128.428  0.00  0.00    +0.000 HD
ATOM     24  H   UNL     1     -12.173  10.642 128.769  0.00  0.00    +0.000 HD
ENDBRANCH  17  22
ENDBRANCH  10  13
BRANCH  12  25
ATOM     25  O   UNL     1      -8.571   2.593 131.849  0.00  0.00    +0.000 OA
ATOM     26  H   UNL     1      -9.317   1.957 131.927  0.00  0.00    +0.000 HD
ENDBRANCH  12  25
BRANCH  11  27
ATOM     27  O   UNL     1     -10.906   3.261 130.907  0.00  0.00    +0.000 OA
ATOM     28  H   UNL     1     -11.661   3.867 130.752  0.00  0.00    +0.000 HD
ENDBRANCH  11  27
ENDBRANCH   7   8
ENDBRANCH   6   7
ENDBRANCH   2   6
ENDBRANCH   1   2
BRANCH   1  29
ATOM     29  P   UNL     1      -7.546   4.666 125.784  0.00  0.00    +0.000 P 
ATOM     30  O   UNL     1      -6.708   5.739 125.090  0.00  0.00    +0.000 OA
BRANCH  29  31
ATOM     31  O   UNL     1      -8.861   5.790 125.817  0.00  0.00    +0.000 OA
ATOM     32  H   UNL     1      -8.733   6.403 125.069  0.00  0.00    +0.000 HD
ENDBRANCH  29  31
BRANCH  29  33
ATOM     33  O   UNL     1      -8.444   3.899 124.628  0.00  0.00    +0.000 OA
BRANCH  33  34
ATOM     34  C   UNL     1      -7.908   3.026 123.647  0.00  0.00    +0.000 C 
BRANCH  34  37
ATOM     35  C   UNL     1      -8.604  -0.311 123.699  0.00  0.00    +0.000 C 
ATOM     36  O   UNL     1      -8.284   0.730 122.742  0.00  0.00    +0.000 OA
ATOM     37  C   UNL     1      -8.910   1.927 123.185  0.00  0.00    +0.000 C 
ATOM     38  C   UNL     1      -9.750   1.358 124.276  0.00  0.00    +0.000 C 
ATOM     39  C   UNL     1      -9.152   0.218 124.986  0.00  0.00    +0.000 C 
BRANCH  35  42
ATOM     40  C   UNL     1      -6.206  -1.915 125.812  0.00  0.00    +0.000 C 
ATOM     41  C   UNL     1      -7.106  -1.038 125.387  0.00  0.00    +0.000 C 
ATOM     42  N   UNL     1      -7.463  -1.038 124.062  0.00  0.00    +0.000 N 
ATOM     43  C   UNL     1      -6.630  -1.556 123.090  0.00  0.00    +0.000 C 
ATOM     44  C   UNL     1      -5.678  -2.424 123.401  0.00  0.00    +0.000 C 
ATOM     45  C   UNL     1      -5.622  -2.894 124.829  0.00  0.00    +0.000 C 
BRANCH  40  47
ATOM     46  N   UNL     1      -4.992  -0.938 127.587  0.00  0.00    +0.000 N 
ATOM     47  C   UNL     1      -5.913  -1.886 127.250  0.00  0.00    +0.000 C 
ATOM     48  O   UNL     1      -6.445  -2.598 128.056  0.00  0.00    +0.000 OA
ATOM     49  H   UNL     1      -4.795  -0.836 128.570  0.00  0.00    +0.000 HD
ATOM     50  H   UNL     1      -4.676  -0.232 126.942  0.00  0.00    +0.000 HD
ENDBRANCH  40  47
ENDBRANCH  35  42
BRANCH  39  51
ATOM     51  O   UNL     1     -10.019  -0.730 125.614  0.00  0.00    +0.000 OA
ATOM     52  H   UNL     1     -10.570  -0.220 126.223  0.00  0.00    +0.000 HD
ENDBRANCH  39  51
BRANCH  38  53
ATOM     53  O   UNL     1     -11.011   0.867 123.715  0.00  0.00    +0.000 OA
ATOM     54  H   UNL     1     -11.058   1.071 122.767  0.00  0.00    +0.000 HD
ENDBRANCH  38  53
ENDBRANCH  34  37
ENDBRANCH  33  34
ENDBRANCH  29  33
ENDBRANCH   1  29
TORSDOF 18
ENDMDL
MODEL 5
REMARK VINA RESULT:      -8.5      1.595      2.080
REMARK  Name = NADH
REMARK  18 active torsions:
REMARK  status: ('A' for Active; 'I' for Inactive)
REMARK    1  A    between atoms: C_2  and  C_4
REMARK    2  A    between atoms: N_6  and  C_10
REMARK    3  A    between atoms: C_12  and  C_13
REMARK    4  A    between atoms: C_13  and  O_14
REMARK    5  A    between atoms: O_14  and  P_15
REMARK    6  A    between atoms: P_15  and  O_16
REMARK    7  A    between atoms: P_15  and  O_18
REMARK    8  A    between atoms: O_18  and  P_19
REMARK    9  A    between atoms: P_19  and  O_20
REMARK   10  A    between atoms: P_19  and  O_22
REMARK   11  A    between atoms: O_22  and  C_23
REMARK   12  A    between atoms: C_23  and  C_24
REMARK   13  A    between atoms: C_26  and  N_31
REMARK   14  A    between atoms: C_27  and  O_28
REMARK   15  A    between atoms: C_29  and  O_30
REMARK   16  A    between atoms: C_35  and  N_36
REMARK   17  A    between atoms: C_41  and  O_42
REMARK   18  A    between atoms: C_43  and  O_44
REMARK                            x       y       z     vdW  Elec       q    Type
REMARK                         _______ _______ _______ _____ _____    ______ ____
ROOT
ATOM      1  O   UNL     1      -4.662   6.454 129.202  0.00  0.00    +0.000 OA
ENDROOT
BRANCH   1   2
ATOM      2  P   UNL     1      -3.765   5.071 128.682  0.00  0.00    +0.000 P 
ATOM      3  O   UNL     1      -2.618   5.475 127.755  0.00  0.00    +0.000 OA
BRANCH   2   4
ATOM      4  O   UNL     1      -2.553   5.411 129.868  0.00  0.00    +0.000 OA
ATOM      5  H   UNL     1      -2.443   4.597 130.398  0.00  0.00    +0.000 HD
ENDBRANCH   2   4
BRANCH   2   6
ATOM      6  O   UNL     1      -4.977   4.730 127.496  0.00  0.00    +0.000 OA
BRANCH   6   7
ATOM      7  C   UNL     1      -4.359   3.738 126.637  0.00  0.00    +0.000 C 
BRANCH   7   8
ATOM      8  C   UNL     1      -5.008   3.738 125.320  0.00  0.00    +0.000 C 
ATOM      9  O   UNL     1      -5.426   2.364 125.253  0.00  0.00    +0.000 OA
ATOM     10  C   UNL     1      -6.707   2.239 124.691  0.00  0.00    +0.000 C 
ATOM     11  C   UNL     1      -7.295   3.630 124.834  0.00  0.00    +0.000 C 
ATOM     12  C   UNL     1      -6.103   4.575 124.766  0.00  0.00    +0.000 C 
BRANCH  10  13
ATOM     13  N   UNL     1      -7.352   1.138 125.356  0.00  0.00    +0.000 N 
ATOM     14  C   UNL     1      -7.456   0.911 126.704  0.00  0.00    +0.000 A 
ATOM     15  N   UNL     1      -8.054  -0.237 126.959  0.00  0.00    +0.000 NA
ATOM     16  C   UNL     1      -8.447  -0.703 125.718  0.00  0.00    +0.000 A 
ATOM     17  C   UNL     1      -9.095  -1.871 125.293  0.00  0.00    +0.000 A 
ATOM     18  N   UNL     1      -9.370  -2.019 123.973  0.00  0.00    +0.000 NA
ATOM     19  C   UNL     1      -9.001  -1.036 123.124  0.00  0.00    +0.000 A 
ATOM     20  N   UNL     1      -8.326   0.087 123.407  0.00  0.00    +0.000 NA
ATOM     21  C   UNL     1      -8.081   0.178 124.722  0.00  0.00    +0.000 A 
BRANCH  17  22
ATOM     22  N   UNL     1      -9.434  -2.879 126.162  0.00  0.00    +0.000 N 
ATOM     23  H   UNL     1      -9.210  -2.765 127.140  0.00  0.00    +0.000 HD
ATOM     24  H   UNL     1      -9.867  -3.708 125.791  0.00  0.00    +0.000 HD
ENDBRANCH  17  22
ENDBRANCH  10  13
BRANCH  12  25
ATOM     25  O   UNL     1      -5.839   4.891 123.366  0.00  0.00    +0.000 OA
ATOM     26  H   UNL     1      -6.704   5.009 122.914  0.00  0.00    +0.000 HD
ENDBRANCH  12  25
BRANCH  11  27
ATOM     27  O   UNL     1      -8.200   3.864 123.762  0.00  0.00    +0.000 OA
ATOM     28  H   UNL     1      -9.090   3.645 124.111  0.00  0.00    +0.000 HD
ENDBRANCH  11  27
ENDBRANCH   7   8
ENDBRANCH   6   7
ENDBRANCH   2   6
ENDBRANCH   1   2
BRANCH   1  29
ATOM     29  P   UNL     1      -4.331   6.732 130.877  0.00  0.00    +0.000 P 
ATOM     30  O   UNL     1      -3.893   8.170 130.602  0.00  0.00    +0.000 OA
BRANCH  29  31
ATOM     31  O   UNL     1      -4.000   7.008 132.552  0.00  0.00    +0.000 OA
ATOM     32  H   UNL     1      -3.216   6.474 132.781  0.00  0.00    +0.000 HD
ENDBRANCH  29  31
BRANCH  29  33
ATOM     33  O   UNL     1      -5.914   6.768 131.352  0.00  0.00    +0.000 OA
BRANCH  33  34
ATOM     34  C   UNL     1      -6.881   5.795 130.991  0.00  0.00    +0.000 C 
BRANCH  34  37
ATOM     35  C   UNL     1     -10.259   6.220 131.163  0.00  0.00    +0.000 C 
ATOM     36  O   UNL     1      -9.047   6.823 131.683  0.00  0.00    +0.000 OA
ATOM     37  C   UNL     1      -8.120   5.775 131.933  0.00  0.00    +0.000 C 
ATOM     38  C   UNL     1      -9.029   4.610 131.735  0.00  0.00    +0.000 C 
ATOM     39  C   UNL     1     -10.070   4.806 130.716  0.00  0.00    +0.000 C 
BRANCH  35  42
ATOM     40  C   UNL     1     -11.977   8.682 129.219  0.00  0.00    +0.000 C 
ATOM     41  C   UNL     1     -11.706   7.838 130.206  0.00  0.00    +0.000 C 
ATOM     42  N   UNL     1     -10.720   6.900 130.028  0.00  0.00    +0.000 N 
ATOM     43  C   UNL     1     -10.334   6.488 128.767  0.00  0.00    +0.000 C 
ATOM     44  C   UNL     1     -10.574   7.240 127.702  0.00  0.00    +0.000 C 
ATOM     45  C   UNL     1     -11.181   8.594 127.945  0.00  0.00    +0.000 C 
BRANCH  40  47
ATOM     46  N   UNL     1     -13.721  10.046 128.397  0.00  0.00    +0.000 N 
ATOM     47  C   UNL     1     -13.010   9.686 129.503  0.00  0.00    +0.000 C 
ATOM     48  O   UNL     1     -13.230  10.129 130.596  0.00  0.00    +0.000 OA
ATOM     49  H   UNL     1     -14.482  10.691 128.545  0.00  0.00    +0.000 HD
ATOM     50  H   UNL     1     -13.652   9.554 127.521  0.00  0.00    +0.000 HD
ENDBRANCH  40  47
ENDBRANCH  35  42
BRANCH  39  51
ATOM     51  O   UNL     1     -11.283   4.056 130.824  0.00  0.00    +0.000 OA
ATOM     52  H   UNL     1     -11.853   4.370 130.109  0.00  0.00    +0.000 HD
ENDBRANCH  39  51
BRANCH  38  53
ATOM     53  O   UNL     1      -9.736   4.327 132.986  0.00  0.00    +0.000 OA
ATOM     54  H   UNL     1      -9.838   5.141 133.506  0.00  0.00    +0.000 HD
ENDBRANCH  38  53
ENDBRANCH  34  37
ENDBRANCH  33  34
ENDBRANCH  29  33
ENDBRANCH   1  29
TORSDOF 18
ENDMDL
MODEL 6
REMARK VINA RESULT:      -8.4      3.570      8.473
REMARK  Name = NADH
REMARK  18 active torsions:
REMARK  status: ('A' for Active; 'I' for Inactive)
REMARK    1  A    between atoms: C_2  and  C_4
REMARK    2  A    between atoms: N_6  and  C_10
REMARK    3  A    between atoms: C_12  and  C_13
REMARK    4  A    between atoms: C_13  and  O_14
REMARK    5  A    between atoms: O_14  and  P_15
REMARK    6  A    between atoms: P_15  and  O_16
REMARK    7  A    between atoms: P_15  and  O_18
REMARK    8  A    between atoms: O_18  and  P_19
REMARK    9  A    between atoms: P_19  and  O_20
REMARK   10  A    between atoms: P_19  and  O_22
REMARK   11  A    between atoms: O_22  and  C_23
REMARK   12  A    between atoms: C_23  and  C_24
REMARK   13  A    between atoms: C_26  and  N_31
REMARK   14  A    between atoms: C_27  and  O_28
REMARK   15  A    between atoms: C_29  and  O_30
REMARK   16  A    between atoms: C_35  and  N_36
REMARK   17  A    between atoms: C_41  and  O_42
REMARK   18  A    between atoms: C_43  and  O_44
REMARK                            x       y       z     vdW  Elec       q    Type
REMARK                         _______ _______ _______ _____ _____    ______ ____
ROOT
ATOM      1  O   UNL     1      -7.916  -0.419 127.081  0.00  0.00    +0.000 OA
ENDROOT
BRANCH   1   2
ATOM      2  P   UNL     1      -6.474  -1.042 127.802  0.00  0.00    +0.000 P 
ATOM      3  O   UNL     1      -6.796  -2.133 128.822  0.00  0.00    +0.000 OA
BRANCH   2   4
ATOM      4  O   UNL     1      -6.533  -2.407 126.742  0.00  0.00    +0.000 OA
ATOM      5  H   UNL     1      -6.607  -3.200 127.309  0.00  0.00    +0.000 HD
ENDBRANCH   2   4
BRANCH   2   6
ATOM      6  O   UNL     1      -6.414   0.323 128.863  0.00  0.00    +0.000 OA
BRANCH   6   7
ATOM      7  C   UNL     1      -7.799   0.547 129.226  0.00  0.00    +0.000 C 
BRANCH   7   8
ATOM      8  C   UNL     1      -7.878   1.139 130.567  0.00  0.00    +0.000 C 
ATOM      9  O   UNL     1      -7.762   2.532 130.227  0.00  0.00    +0.000 OA
ATOM     10  C   UNL     1      -8.626   3.327 130.996  0.00  0.00    +0.000 C 
ATOM     11  C   UNL     1      -9.651   2.338 131.518  0.00  0.00    +0.000 C 
ATOM     12  C   UNL     1      -8.903   1.016 131.636  0.00  0.00    +0.000 C 
BRANCH  10  13
ATOM     13  N   UNL     1      -9.066   4.406 130.152  0.00  0.00    +0.000 N 
ATOM     14  C   UNL     1      -8.712   4.658 128.851  0.00  0.00    +0.000 A 
ATOM     15  N   UNL     1      -9.252   5.776 128.408  0.00  0.00    +0.000 NA
ATOM     16  C   UNL     1     -10.077   6.192 129.437  0.00  0.00    +0.000 A 
ATOM     17  C   UNL     1     -10.900   7.311 129.614  0.00  0.00    +0.000 A 
ATOM     18  N   UNL     1     -11.623   7.414 130.757  0.00  0.00    +0.000 NA
ATOM     19  C   UNL     1     -11.512   6.434 131.679  0.00  0.00    +0.000 A 
ATOM     20  N   UNL     1     -10.714   5.357 131.645  0.00  0.00    +0.000 NA
ATOM     21  C   UNL     1     -10.026   5.310 130.496  0.00  0.00    +0.000 A 
BRANCH  17  22
ATOM     22  N   UNL     1     -10.978   8.319 128.684  0.00  0.00    +0.000 N 
ATOM     23  H   UNL     1     -11.148   8.070 127.720  0.00  0.00    +0.000 HD
ATOM     24  H   UNL     1     -10.835   9.267 128.988  0.00  0.00    +0.000 HD
ENDBRANCH  17  22
ENDBRANCH  10  13
BRANCH  12  25
ATOM     25  O   UNL     1      -8.264   0.959 132.946  0.00  0.00    +0.000 OA
ATOM     26  H   UNL     1      -8.574   1.732 133.468  0.00  0.00    +0.000 HD
ENDBRANCH  12  25
BRANCH  11  27
ATOM     27  O   UNL     1     -10.120   2.780 132.786  0.00  0.00    +0.000 OA
ATOM     28  H   UNL     1     -10.815   2.141 133.051  0.00  0.00    +0.000 HD
ENDBRANCH  11  27
ENDBRANCH   7   8
ENDBRANCH   6   7
ENDBRANCH   2   6
ENDBRANCH   1   2
BRANCH   1  29
ATOM     29  P   UNL     1      -8.083  -1.099 125.499  0.00  0.00    +0.000 P 
ATOM     30  O   UNL     1      -9.509  -1.561 125.795  0.00  0.00    +0.000 OA
BRANCH  29  31
ATOM     31  O   UNL     1      -8.248  -1.780 123.917  0.00  0.00    +0.000 OA
ATOM     32  H   UNL     1      -9.093  -2.267 123.902  0.00  0.00    +0.000 HD
ENDBRANCH  29  31
BRANCH  29  33
ATOM     33  O   UNL     1      -8.175   0.349 124.707  0.00  0.00    +0.000 OA
BRANCH  33  34
ATOM     34  C   UNL     1      -7.212   1.384 124.818  0.00  0.00    +0.000 C 
BRANCH  34  37
ATOM     35  C   UNL     1      -6.276   4.239 126.431  0.00  0.00    +0.000 C 
ATOM     36  O   UNL     1      -6.890   2.959 126.728  0.00  0.00    +0.000 OA
ATOM     37  C   UNL     1      -7.720   2.615 125.626  0.00  0.00    +0.000 C 
ATOM     38  C   UNL     1      -7.666   3.907 124.884  0.00  0.00    +0.000 C 
ATOM     39  C   UNL     1      -6.389   4.628 124.991  0.00  0.00    +0.000 C 
BRANCH  35  42
ATOM     40  C   UNL     1      -3.132   5.221 127.822  0.00  0.00    +0.000 C 
ATOM     41  C   UNL     1      -4.357   5.310 127.320  0.00  0.00    +0.000 C 
ATOM     42  N   UNL     1      -4.901   4.218 126.693  0.00  0.00    +0.000 N 
ATOM     43  C   UNL     1      -4.106   3.224 126.155  0.00  0.00    +0.000 C 
ATOM     44  C   UNL     1      -2.856   3.056 126.563  0.00  0.00    +0.000 C 
ATOM     45  C   UNL     1      -2.389   3.918 127.703  0.00  0.00    +0.000 C 
BRANCH  40  47
ATOM     46  N   UNL     1      -3.578   7.397 128.625  0.00  0.00    +0.000 N 
ATOM     47  C   UNL     1      -2.638   6.415 128.520  0.00  0.00    +0.000 C 
ATOM     48  O   UNL     1      -1.534   6.512 128.980  0.00  0.00    +0.000 OA
ATOM     49  H   UNL     1      -3.310   8.218 129.146  0.00  0.00    +0.000 HD
ATOM     50  H   UNL     1      -4.547   7.252 128.394  0.00  0.00    +0.000 HD
ENDBRANCH  40  47
ENDBRANCH  35  42
BRANCH  39  51
ATOM     51  O   UNL     1      -6.390   6.049 124.831  0.00  0.00    +0.000 OA
ATOM     52  H   UNL     1      -7.286   6.338 125.046  0.00  0.00    +0.000 HD
ENDBRANCH  39  51
BRANCH  38  53
ATOM     53  O   UNL     1      -8.687   4.814 125.412  0.00  0.00    +0.000 OA
ATOM     54  H   UNL     1      -8.633   5.676 124.965  0.00  0.00    +0.000 HD
ENDBRANCH  38  53
ENDBRANCH  34  37
ENDBRANCH  33  34
ENDBRANCH  29  33
ENDBRANCH   1  29
TORSDOF 18
ENDMDL
MODEL 7
REMARK VINA RESULT:      -8.3      2.823      8.756
REMARK  Name = NADH
REMARK  18 active torsions:
REMARK  status: ('A' for Active; 'I' for Inactive)
REMARK    1  A    between atoms: C_2  and  C_4
REMARK    2  A    between atoms: N_6  and  C_10
REMARK    3  A    between atoms: C_12  and  C_13
REMARK    4  A    between atoms: C_13  and  O_14
REMARK    5  A    between atoms: O_14  and  P_15
REMARK    6  A    between atoms: P_15  and  O_16
REMARK    7  A    between atoms: P_15  and  O_18
REMARK    8  A    between atoms: O_18  and  P_19
REMARK    9  A    between atoms: P_19  and  O_20
REMARK   10  A    between atoms: P_19  and  O_22
REMARK   11  A    between atoms: O_22  and  C_23
REMARK   12  A    between atoms: C_23  and  C_24
REMARK   13  A    between atoms: C_26  and  N_31
REMARK   14  A    between atoms: C_27  and  O_28
REMARK   15  A    between atoms: C_29  and  O_30
REMARK   16  A    between atoms: C_35  and  N_36
REMARK   17  A    between atoms: C_41  and  O_42
REMARK   18  A    between atoms: C_43  and  O_44
REMARK                            x       y       z     vdW  Elec       q    Type
REMARK                         _______ _______ _______ _____ _____    ______ ____
ROOT
ATOM      1  O   UNL     1      -8.326   1.060 128.975  0.00  0.00    +0.000 OA
ENDROOT
BRANCH   1   2
ATOM      2  P   UNL     1      -7.964   0.875 130.656  0.00  0.00    +0.000 P 
ATOM      3  O   UNL     1      -9.137   0.243 131.405  0.00  0.00    +0.000 OA
BRANCH   2   4
ATOM      4  O   UNL     1      -7.595  -0.793 130.395  0.00  0.00    +0.000 OA
ATOM      5  H   UNL     1      -7.251  -1.141 131.241  0.00  0.00    +0.000 HD
ENDBRANCH   2   4
BRANCH   2   6
ATOM      6  O   UNL     1      -8.333   2.545 130.919  0.00  0.00    +0.000 OA
BRANCH   6   7
ATOM      7  C   UNL     1      -7.396   2.955 131.947  0.00  0.00    +0.000 C 
BRANCH   7   8
ATOM      8  C   UNL     1      -7.812   4.239 132.524  0.00  0.00    +0.000 C 
ATOM      9  O   UNL     1      -7.792   5.057 131.342  0.00  0.00    +0.000 OA
ATOM     10  C   UNL     1      -8.880   5.944 131.306  0.00  0.00    +0.000 C 
ATOM     11  C   UNL     1      -9.866   5.336 132.285  0.00  0.00    +0.000 C 
ATOM     12  C   UNL     1      -9.010   4.616 133.318  0.00  0.00    +0.000 C 
BRANCH  10  13
ATOM     13  N   UNL     1      -9.262   6.084 129.926  0.00  0.00    +0.000 N 
ATOM     14  C   UNL     1      -8.802   5.374 128.847  0.00  0.00    +0.000 A 
ATOM     15  N   UNL     1      -9.320   5.816 127.718  0.00  0.00    +0.000 NA
ATOM     16  C   UNL     1     -10.237   6.774 128.111  0.00  0.00    +0.000 A 
ATOM     17  C   UNL     1     -11.090   7.632 127.405  0.00  0.00    +0.000 A 
ATOM     18  N   UNL     1     -11.909   8.456 128.105  0.00  0.00    +0.000 NA
ATOM     19  C   UNL     1     -11.863   8.416 129.453  0.00  0.00    +0.000 A 
ATOM     20  N   UNL     1     -11.048   7.687 130.229  0.00  0.00    +0.000 NA
ATOM     21  C   UNL     1     -10.262   6.897 129.484  0.00  0.00    +0.000 A 
BRANCH  17  22
ATOM     22  N   UNL     1     -11.104   7.687 126.032  0.00  0.00    +0.000 N 
ATOM     23  H   UNL     1     -10.220   7.736 125.545  0.00  0.00    +0.000 HD
ATOM     24  H   UNL     1     -11.992   7.707 125.561  0.00  0.00    +0.000 HD
ENDBRANCH  17  22
ENDBRANCH  10  13
BRANCH  12  25
ATOM     25  O   UNL     1      -8.645   5.567 134.363  0.00  0.00    +0.000 OA
ATOM     26  H   UNL     1      -8.275   5.058 135.119  0.00  0.00    +0.000 HD
ENDBRANCH  12  25
BRANCH  11  27
ATOM     27  O   UNL     1     -10.629   6.377 132.882  0.00  0.00    +0.000 OA
ATOM     28  H   UNL     1     -10.003   7.116 133.030  0.00  0.00    +0.000 HD
ENDBRANCH  11  27
ENDBRANCH   7   8
ENDBRANCH   6   7
ENDBRANCH   2   6
ENDBRANCH   1   2
BRANCH   1  29
ATOM     29  P   UNL     1      -7.058   1.974 128.234  0.00  0.00    +0.000 P 
ATOM     30  O   UNL     1      -6.015   0.921 128.604  0.00  0.00    +0.000 OA
BRANCH  29  31
ATOM     31  O   UNL     1      -5.791   2.890 127.492  0.00  0.00    +0.000 OA
ATOM     32  H   UNL     1      -4.946   2.510 127.798  0.00  0.00    +0.000 HD
ENDBRANCH  29  31
BRANCH  29  33
ATOM     33  O   UNL     1      -7.537   1.686 126.678  0.00  0.00    +0.000 OA
BRANCH  33  34
ATOM     34  C   UNL     1      -8.147   2.651 125.837  0.00  0.00    +0.000 C 
BRANCH  34  37
ATOM     35  C   UNL     1      -8.497   0.258 123.433  0.00  0.00    +0.000 C 
ATOM     36  O   UNL     1      -7.451   1.048 124.054  0.00  0.00    +0.000 OA
ATOM     37  C   UNL     1      -7.988   2.337 124.320  0.00  0.00    +0.000 C 
ATOM     38  C   UNL     1      -9.274   2.210 123.577  0.00  0.00    +0.000 C 
ATOM     39  C   UNL     1      -9.858   0.861 123.579  0.00  0.00    +0.000 C 
BRANCH  35  42
ATOM     40  C   UNL     1      -8.400  -2.252 125.979  0.00  0.00    +0.000 C 
ATOM     41  C   UNL     1      -8.091  -1.161 125.289  0.00  0.00    +0.000 C 
ATOM     42  N   UNL     1      -8.597  -1.008 124.022  0.00  0.00    +0.000 N 
ATOM     43  C   UNL     1      -9.003  -2.094 123.271  0.00  0.00    +0.000 C 
ATOM     44  C   UNL     1      -9.315  -3.244 123.851  0.00  0.00    +0.000 C 
ATOM     45  C   UNL     1      -9.310  -3.275 125.354  0.00  0.00    +0.000 C 
BRANCH  40  47
ATOM     46  N   UNL     1      -6.632  -1.742 127.459  0.00  0.00    +0.000 N 
ATOM     47  C   UNL     1      -7.862  -2.320 127.342  0.00  0.00    +0.000 C 
ATOM     48  O   UNL     1      -8.448  -2.806 128.270  0.00  0.00    +0.000 OA
ATOM     49  H   UNL     1      -6.240  -1.710 128.388  0.00  0.00    +0.000 HD
ATOM     50  H   UNL     1      -6.219  -1.188 126.728  0.00  0.00    +0.000 HD
ENDBRANCH  40  47
ENDBRANCH  35  42
BRANCH  39  51
ATOM     51  O   UNL     1     -10.716   0.484 122.499  0.00  0.00    +0.000 OA
ATOM     52  H   UNL     1     -10.419  -0.391 122.219  0.00  0.00    +0.000 HD
ENDBRANCH  39  51
BRANCH  38  53
ATOM     53  O   UNL     1      -9.059   2.554 122.169  0.00  0.00    +0.000 OA
ATOM     54  H   UNL     1      -9.757   3.155 121.860  0.00  0.00    +0.000 HD
ENDBRANCH  38  53
ENDBRANCH  34  37
ENDBRANCH  33  34
ENDBRANCH  29  33
ENDBRANCH   1  29
TORSDOF 18
ENDMDL
MODEL 8
REMARK VINA RESULT:      -8.3      1.610      7.728
REMARK  Name = NADH
REMARK  18 active torsions:
REMARK  status: ('A' for Active; 'I' for Inactive)
REMARK    1  A    between atoms: C_2  and  C_4
REMARK    2  A    between atoms: N_6  and  C_10
REMARK    3  A    between atoms: C_12  and  C_13
REMARK    4  A    between atoms: C_13  and  O_14
REMARK    5  A    between atoms: O_14  and  P_15
REMARK    6  A    between atoms: P_15  and  O_16
REMARK    7  A    between atoms: P_15  and  O_18
REMARK    8  A    between atoms: O_18  and  P_19
REMARK    9  A    between atoms: P_19  and  O_20
REMARK   10  A    between atoms: P_19  and  O_22
REMARK   11  A    between atoms: O_22  and  C_23
REMARK   12  A    between atoms: C_23  and  C_24
REMARK   13  A    between atoms: C_26  and  N_31
REMARK   14  A    between atoms: C_27  and  O_28
REMARK   15  A    between atoms: C_29  and  O_30
REMARK   16  A    between atoms: C_35  and  N_36
REMARK   17  A    between atoms: C_41  and  O_42
REMARK   18  A    between atoms: C_43  and  O_44
REMARK                            x       y       z     vdW  Elec       q    Type
REMARK                         _______ _______ _______ _____ _____    ______ ____
ROOT
ATOM      1  O   UNL     1      -5.025   5.006 130.591  0.00  0.00    +0.000 OA
ENDROOT
BRANCH   1   2
ATOM      2  P   UNL     1      -5.315   6.706 130.726  0.00  0.00    +0.000 P 
ATOM      3  O   UNL     1      -4.159   7.405 131.442  0.00  0.00    +0.000 OA
BRANCH   2   4
ATOM      4  O   UNL     1      -4.279   6.991 129.372  0.00  0.00    +0.000 OA
ATOM      5  H   UNL     1      -3.773   7.804 129.570  0.00  0.00    +0.000 HD
ENDBRANCH   2   4
BRANCH   2   6
ATOM      6  O   UNL     1      -6.351   6.421 132.082  0.00  0.00    +0.000 OA
BRANCH   6   7
ATOM      7  C   UNL     1      -6.179   5.010 132.366  0.00  0.00    +0.000 C 
BRANCH   7   8
ATOM      8  C   UNL     1      -7.455   4.423 132.793  0.00  0.00    +0.000 C 
ATOM      9  O   UNL     1      -8.366   5.392 132.246  0.00  0.00    +0.000 OA
ATOM     10  C   UNL     1      -9.502   4.780 131.691  0.00  0.00    +0.000 C 
ATOM     11  C   UNL     1      -9.063   3.344 131.478  0.00  0.00    +0.000 C 
ATOM     12  C   UNL     1      -8.038   3.074 132.572  0.00  0.00    +0.000 C 
BRANCH  10  13
ATOM     13  N   UNL     1      -9.886   5.568 130.550  0.00  0.00    +0.000 N 
ATOM     14  C   UNL     1      -9.332   5.565 129.296  0.00  0.00    +0.000 A 
ATOM     15  N   UNL     1      -9.892   6.468 128.515  0.00  0.00    +0.000 NA
ATOM     16  C   UNL     1     -10.923   6.989 129.274  0.00  0.00    +0.000 A 
ATOM     17  C   UNL     1     -11.870   7.995 129.044  0.00  0.00    +0.000 A 
ATOM     18  N   UNL     1     -12.791   8.255 130.005  0.00  0.00    +0.000 NA
ATOM     19  C   UNL     1     -12.752   7.534 131.146  0.00  0.00    +0.000 A 
ATOM     20  N   UNL     1     -11.859   6.597 131.499  0.00  0.00    +0.000 NA
ATOM     21  C   UNL     1     -10.976   6.386 130.513  0.00  0.00    +0.000 A 
BRANCH  17  22
ATOM     22  N   UNL     1     -11.879   8.745 127.892  0.00  0.00    +0.000 N 
ATOM     23  H   UNL     1     -11.071   8.705 127.288  0.00  0.00    +0.000 HD
ATOM     24  H   UNL     1     -12.675   9.331 127.706  0.00  0.00    +0.000 HD
ENDBRANCH  17  22
ENDBRANCH  10  13
BRANCH  12  25
ATOM     25  O   UNL     1      -8.741   2.624 133.768  0.00  0.00    +0.000 OA
ATOM     26  H   UNL     1      -8.904   3.409 134.336  0.00  0.00    +0.000 HD
ENDBRANCH  12  25
BRANCH  11  27
ATOM     27  O   UNL     1     -10.193   2.490 131.609  0.00  0.00    +0.000 OA
ATOM     28  H   UNL     1     -10.937   3.070 131.875  0.00  0.00    +0.000 HD
ENDBRANCH  11  27
ENDBRANCH   7   8
ENDBRANCH   6   7
ENDBRANCH   2   6
ENDBRANCH   1   2
BRANCH   1  29
ATOM     29  P   UNL     1      -3.817   4.745 129.381  0.00  0.00    +0.000 P 
ATOM     30  O   UNL     1      -3.407   3.413 130.009  0.00  0.00    +0.000 OA
BRANCH  29  31
ATOM     31  O   UNL     1      -2.608   4.485 128.171  0.00  0.00    +0.000 OA
ATOM     32  H   UNL     1      -1.963   5.213 128.250  0.00  0.00    +0.000 HD
ENDBRANCH  29  31
BRANCH  29  33
ATOM     33  O   UNL     1      -4.879   4.422 128.157  0.00  0.00    +0.000 OA
BRANCH  33  34
ATOM     34  C   UNL     1      -4.575   3.625 127.023  0.00  0.00    +0.000 C 
BRANCH  34  37
ATOM     35  C   UNL     1      -7.250   3.498 124.913  0.00  0.00    +0.000 C 
ATOM     36  O   UNL     1      -5.833   3.192 124.911  0.00  0.00    +0.000 OA
ATOM     37  C   UNL     1      -5.179   4.178 125.699  0.00  0.00    +0.000 C 
ATOM     38  C   UNL     1      -6.321   5.118 125.886  0.00  0.00    +0.000 C 
ATOM     39  C   UNL     1      -7.641   4.477 125.975  0.00  0.00    +0.000 C 
BRANCH  35  42
ATOM     40  C   UNL     1      -9.171   0.553 124.263  0.00  0.00    +0.000 C 
ATOM     41  C   UNL     1      -8.662   1.769 124.114  0.00  0.00    +0.000 C 
ATOM     42  N   UNL     1      -8.018   2.357 125.174  0.00  0.00    +0.000 N 
ATOM     43  C   UNL     1      -8.272   1.971 126.476  0.00  0.00    +0.000 C 
ATOM     44  C   UNL     1      -8.801   0.787 126.745  0.00  0.00    +0.000 C 
ATOM     45  C   UNL     1      -9.008  -0.148 125.585  0.00  0.00    +0.000 C 
BRANCH  40  47
ATOM     46  N   UNL     1      -9.167  -1.150 122.627  0.00  0.00    +0.000 N 
ATOM     47  C   UNL     1      -9.801  -0.028 123.071  0.00  0.00    +0.000 C 
ATOM     48  O   UNL     1     -10.787   0.417 122.552  0.00  0.00    +0.000 OA
ATOM     49  H   UNL     1      -9.592  -1.623 121.844  0.00  0.00    +0.000 HD
ATOM     50  H   UNL     1      -8.449  -1.616 123.157  0.00  0.00    +0.000 HD
ENDBRANCH  40  47
ENDBRANCH  35  42
BRANCH  39  51
ATOM     51  O   UNL     1      -8.795   5.230 125.593  0.00  0.00    +0.000 OA
ATOM     52  H   UNL     1      -8.766   6.042 126.116  0.00  0.00    +0.000 HD
ENDBRANCH  39  51
BRANCH  38  53
ATOM     53  O   UNL     1      -6.392   6.032 124.743  0.00  0.00    +0.000 OA
ATOM     54  H   UNL     1      -5.624   5.903 124.162  0.00  0.00    +0.000 HD
ENDBRANCH  38  53
ENDBRANCH  34  37
ENDBRANCH  33  34
ENDBRANCH  29  33
ENDBRANCH   1  29
TORSDOF 18
ENDMDL
MODEL 9
REMARK VINA RESULT:      -8.3      3.782      6.037
REMARK  Name = NADH
REMARK  18 active torsions:
REMARK  status: ('A' for Active; 'I' for Inactive)
REMARK    1  A    between atoms: C_2  and  C_4
REMARK    2  A    between atoms: N_6  and  C_10
REMARK    3  A    between atoms: C_12  and  C_13
REMARK    4  A    between atoms: C_13  and  O_14
REMARK    5  A    between atoms: O_14  and  P_15
REMARK    6  A    between atoms: P_15  and  O_16
REMARK    7  A    between atoms: P_15  and  O_18
REMARK    8  A    between atoms: O_18  and  P_19
REMARK    9  A    between atoms: P_19  and  O_20
REMARK   10  A    between atoms: P_19  and  O_22
REMARK   11  A    between atoms: O_22  and  C_23
REMARK   12  A    between atoms: C_23  and  C_24
REMARK   13  A    between atoms: C_26  and  N_31
REMARK   14  A    between atoms: C_27  and  O_28
REMARK   15  A    between atoms: C_29  and  O_30
REMARK   16  A    between atoms: C_35  and  N_36
REMARK   17  A    between atoms: C_41  and  O_42
REMARK   18  A    between atoms: C_43  and  O_44
REMARK                            x       y       z     vdW  Elec       q    Type
REMARK                         _______ _______ _______ _____ _____    ______ ____
ROOT
ATOM      1  O   UNL     1      -8.788   3.803 130.056  0.00  0.00    +0.000 OA
ENDROOT
BRANCH   1   2
ATOM      2  P   UNL     1      -9.453   5.383 129.831  0.00  0.00    +0.000 P 
ATOM      3  O   UNL     1     -10.964   5.316 129.604  0.00  0.00    +0.000 OA
BRANCH   2   4
ATOM      4  O   UNL     1      -9.985   5.395 131.476  0.00  0.00    +0.000 OA
ATOM      5  H   UNL     1     -10.953   5.528 131.458  0.00  0.00    +0.000 HD
ENDBRANCH   2   4
BRANCH   2   6
ATOM      6  O   UNL     1      -8.923   5.372 128.184  0.00  0.00    +0.000 OA
BRANCH   6   7
ATOM      7  C   UNL     1      -7.887   4.358 128.156  0.00  0.00    +0.000 C 
BRANCH   7   8
ATOM      8  C   UNL     1      -7.295   4.280 126.815  0.00  0.00    +0.000 C 
ATOM      9  O   UNL     1      -7.225   2.852 126.660  0.00  0.00    +0.000 OA
ATOM     10  C   UNL     1      -7.573   2.453 125.359  0.00  0.00    +0.000 C 
ATOM     11  C   UNL     1      -8.330   3.648 124.812  0.00  0.00    +0.000 C 
ATOM     12  C   UNL     1      -7.729   4.857 125.516  0.00  0.00    +0.000 C 
BRANCH  10  13
ATOM     13  N   UNL     1      -8.252   1.190 125.475  0.00  0.00    +0.000 N 
ATOM     14  C   UNL     1      -9.589   0.933 125.313  0.00  0.00    +0.000 A 
ATOM     15  N   UNL     1      -9.875  -0.330 125.563  0.00  0.00    +0.000 NA
ATOM     16  C   UNL     1      -8.646  -0.924 125.782  0.00  0.00    +0.000 A 
ATOM     17  C   UNL     1      -8.258  -2.226 126.125  0.00  0.00    +0.000 A 
ATOM     18  N   UNL     1      -6.934  -2.501 126.240  0.00  0.00    +0.000 NA
ATOM     19  C   UNL     1      -6.048  -1.505 126.026  0.00  0.00    +0.000 A 
ATOM     20  N   UNL     1      -6.305  -0.217 125.758  0.00  0.00    +0.000 NA
ATOM     21  C   UNL     1      -7.625  -0.005 125.658  0.00  0.00    +0.000 A 
BRANCH  17  22
ATOM     22  N   UNL     1      -9.170  -3.223 126.373  0.00  0.00    +0.000 N 
ATOM     23  H   UNL     1     -10.147  -3.032 126.202  0.00  0.00    +0.000 HD
ATOM     24  H   UNL     1      -8.838  -4.096 126.745  0.00  0.00    +0.000 HD
ENDBRANCH  17  22
ENDBRANCH  10  13
BRANCH  12  25
ATOM     25  O   UNL     1      -6.571   5.312 124.753  0.00  0.00    +0.000 OA
ATOM     26  H   UNL     1      -5.777   5.220 125.325  0.00  0.00    +0.000 HD
ENDBRANCH  12  25
BRANCH  11  27
ATOM     27  O   UNL     1      -8.131   3.719 123.405  0.00  0.00    +0.000 OA
ATOM     28  H   UNL     1      -7.287   4.201 123.278  0.00  0.00    +0.000 HD
ENDBRANCH  11  27
ENDBRANCH   7   8
ENDBRANCH   6   7
ENDBRANCH   2   6
ENDBRANCH   1   2
BRANCH   1  29
ATOM     29  P   UNL     1      -9.152   3.273 131.662  0.00  0.00    +0.000 P 
ATOM     30  O   UNL     1     -10.355   2.466 131.175  0.00  0.00    +0.000 OA
BRANCH  29  31
ATOM     31  O   UNL     1      -9.516   2.745 133.269  0.00  0.00    +0.000 OA
ATOM     32  H   UNL     1      -9.318   3.489 133.868  0.00  0.00    +0.000 HD
ENDBRANCH  29  31
BRANCH  29  33
ATOM     33  O   UNL     1      -7.868   2.240 131.789  0.00  0.00    +0.000 OA
BRANCH  33  34
ATOM     34  C   UNL     1      -7.977   0.826 131.801  0.00  0.00    +0.000 C 
BRANCH  34  37
ATOM     35  C   UNL     1      -5.801   0.673 129.180  0.00  0.00    +0.000 C 
ATOM     36  O   UNL     1      -7.168   1.076 129.452  0.00  0.00    +0.000 OA
ATOM     37  C   UNL     1      -7.697   0.174 130.415  0.00  0.00    +0.000 C 
ATOM     38  C   UNL     1      -6.598  -0.834 130.417  0.00  0.00    +0.000 C 
ATOM     39  C   UNL     1      -5.253  -0.281 130.193  0.00  0.00    +0.000 C 
BRANCH  35  42
ATOM     40  C   UNL     1      -3.757   3.339 127.955  0.00  0.00    +0.000 C 
ATOM     41  C   UNL     1      -4.363   2.161 128.022  0.00  0.00    +0.000 C 
ATOM     42  N   UNL     1      -4.931   1.770 129.208  0.00  0.00    +0.000 N 
ATOM     43  C   UNL     1      -4.515   2.295 130.416  0.00  0.00    +0.000 C 
ATOM     44  C   UNL     1      -3.877   3.456 130.470  0.00  0.00    +0.000 C 
ATOM     45  C   UNL     1      -3.729   4.214 129.180  0.00  0.00    +0.000 C 
BRANCH  40  47
ATOM     46  N   UNL     1      -1.856   3.661 126.592  0.00  0.00    +0.000 N 
ATOM     47  C   UNL     1      -3.217   3.708 126.641  0.00  0.00    +0.000 C 
ATOM     48  O   UNL     1      -3.898   3.994 125.695  0.00  0.00    +0.000 OA
ATOM     49  H   UNL     1      -1.434   3.849 125.695  0.00  0.00    +0.000 HD
ATOM     50  H   UNL     1      -1.297   3.258 127.326  0.00  0.00    +0.000 HD
ENDBRANCH  40  47
ENDBRANCH  35  42
BRANCH  39  51
ATOM     51  O   UNL     1      -4.251  -1.128 129.625  0.00  0.00    +0.000 OA
ATOM     52  H   UNL     1      -3.432  -0.616 129.642  0.00  0.00    +0.000 HD
ENDBRANCH  39  51
BRANCH  38  53
ATOM     53  O   UNL     1      -6.821  -1.800 129.339  0.00  0.00    +0.000 OA
ATOM     54  H   UNL     1      -7.622  -1.569 128.841  0.00  0.00    +0.000 HD
ENDBRANCH  38  53
ENDBRANCH  34  37
ENDBRANCH  33  34
ENDBRANCH  29  33
ENDBRANCH   1  29
TORSDOF 18
ENDMDL
