MODEL 1
REMARK VINA RESULT:      -6.8      0.000      0.000
REMARK  Name = Nadolol
REMARK  12 active torsions:
REMARK  status: ('A' for Active; 'I' for Inactive)
REMARK    1  A    between atoms: C_1  and  C_2
REMARK    2  A    between atoms: C_2  and  C_3
REMARK    3  A    between atoms: C_2  and  C_4
REMARK    4  A    between atoms: C_2  and  N_5
REMARK    5  A    between atoms: N_5  and  C_6
REMARK    6  A    between atoms: C_6  and  C_7
REMARK    7  A    between atoms: C_7  and  O_8
REMARK    8  A    between atoms: C_7  and  C_9
REMARK    9  A    between atoms: C_9  and  O_10
REMARK   10  A    between atoms: O_10  and  C_11
REMARK   11  A    between atoms: C_18  and  O_19
REMARK   12  A    between atoms: C_20  and  O_21
REMARK                            x       y       z     vdW  Elec       q    Type
REMARK                         _______ _______ _______ _____ _____    ______ ____
ROOT
ATOM      1  C   UNL     1      -9.420   6.892 130.667  0.00  0.00    +0.000 A 
ATOM      2  C   UNL     1      -9.683   6.427 131.959  0.00  0.00    +0.000 A 
ATOM      3  C   UNL     1     -10.999   6.213 132.365  0.00  0.00    +0.000 A 
ATOM      4  C   UNL     1     -12.051   6.481 131.497  0.00  0.00    +0.000 A 
ATOM      5  C   UNL     1     -11.802   6.967 130.204  0.00  0.00    +0.000 A 
ATOM      6  C   UNL     1     -10.469   7.147 129.774  0.00  0.00    +0.000 A 
ATOM      7  C   UNL     1     -10.152   7.664 128.387  0.00  0.00    +0.000 C 
ATOM      8  C   UNL     1     -11.344   7.555 127.437  0.00  0.00    +0.000 C 
ATOM      9  C   UNL     1     -12.601   8.131 128.100  0.00  0.00    +0.000 C 
ATOM     10  C   UNL     1     -12.981   7.262 129.302  0.00  0.00    +0.000 C 
ENDROOT
BRANCH   8  11
ATOM     11  O   UNL     1     -11.055   8.249 126.223  0.00  0.00    +0.000 OA
ATOM     12  H   UNL     1     -10.125   8.049 126.004  0.00  0.00    +0.000 HD
ENDBRANCH   8  11
BRANCH   9  13
ATOM     13  O   UNL     1     -12.382   9.496 128.496  0.00  0.00    +0.000 OA
ATOM     14  H   UNL     1     -13.086  10.043 128.099  0.00  0.00    +0.000 HD
ENDBRANCH   9  13
BRANCH   1  15
ATOM     15  O   UNL     1      -8.162   7.235 130.254  0.00  0.00    +0.000 OA
BRANCH  15  16
ATOM     16  C   UNL     1      -7.125   6.882 131.167  0.00  0.00    +0.000 C 
BRANCH  16  17
ATOM     17  C   UNL     1      -6.410   5.631 130.632  0.00  0.00    +0.000 C 
BRANCH  17  18
ATOM     18  O   UNL     1      -6.637   4.496 131.482  0.00  0.00    +0.000 OA
ATOM     19  H   UNL     1      -7.596   4.380 131.580  0.00  0.00    +0.000 HD
ENDBRANCH  17  18
BRANCH  17  20
ATOM     20  C   UNL     1      -4.909   5.929 130.571  0.00  0.00    +0.000 C 
BRANCH  20  21
ATOM     21  N   UNL     1      -4.513   6.584 129.321  0.00  0.00    +0.000 NA
ATOM     22  H   UNL     1      -5.351   6.766 128.763  0.00  0.00    +0.000 HD
BRANCH  21  24
ATOM     23  C   UNL     1      -2.998   4.676 129.413  0.00  0.00    +0.000 C 
ATOM     24  C   UNL     1      -3.506   5.840 128.543  0.00  0.00    +0.000 C 
ATOM     25  C   UNL     1      -2.306   6.729 128.177  0.00  0.00    +0.000 C 
ATOM     26  C   UNL     1      -4.145   5.248 127.275  0.00  0.00    +0.000 C 
ENDBRANCH  21  24
ENDBRANCH  20  21
ENDBRANCH  17  20
ENDBRANCH  16  17
ENDBRANCH  15  16
ENDBRANCH   1  15
TORSDOF 9
ENDMDL
MODEL 2
REMARK VINA RESULT:      -6.8      2.094      3.461
REMARK  Name = Nadolol
REMARK  12 active torsions:
REMARK  status: ('A' for Active; 'I' for Inactive)
REMARK    1  A    between atoms: C_1  and  C_2
REMARK    2  A    between atoms: C_2  and  C_3
REMARK    3  A    between atoms: C_2  and  C_4
REMARK    4  A    between atoms: C_2  and  N_5
REMARK    5  A    between atoms: N_5  and  C_6
REMARK    6  A    between atoms: C_6  and  C_7
REMARK    7  A    between atoms: C_7  and  O_8
REMARK    8  A    between atoms: C_7  and  C_9
REMARK    9  A    between atoms: C_9  and  O_10
REMARK   10  A    between atoms: O_10  and  C_11
REMARK   11  A    between atoms: C_18  and  O_19
REMARK   12  A    between atoms: C_20  and  O_21
REMARK                            x       y       z     vdW  Elec       q    Type
REMARK                         _______ _______ _______ _____ _____    ______ ____
ROOT
ATOM      1  C   UNL     1      -9.451   6.861 130.686  0.00  0.00    +0.000 A 
ATOM      2  C   UNL     1      -9.728   6.420 131.983  0.00  0.00    +0.000 A 
ATOM      3  C   UNL     1     -11.050   6.251 132.391  0.00  0.00    +0.000 A 
ATOM      4  C   UNL     1     -12.092   6.541 131.519  0.00  0.00    +0.000 A 
ATOM      5  C   UNL     1     -11.829   7.005 130.221  0.00  0.00    +0.000 A 
ATOM      6  C   UNL     1     -10.491   7.139 129.790  0.00  0.00    +0.000 A 
ATOM      7  C   UNL     1     -10.158   7.630 128.398  0.00  0.00    +0.000 C 
ATOM      8  C   UNL     1     -11.353   7.548 127.448  0.00  0.00    +0.000 C 
ATOM      9  C   UNL     1     -12.591   8.170 128.104  0.00  0.00    +0.000 C 
ATOM     10  C   UNL     1     -12.998   7.327 129.315  0.00  0.00    +0.000 C 
ENDROOT
BRANCH   8  11
ATOM     11  O   UNL     1     -11.042   8.219 126.226  0.00  0.00    +0.000 OA
ATOM     12  H   UNL     1     -10.069   8.247 126.166  0.00  0.00    +0.000 HD
ENDBRANCH   8  11
BRANCH   9  13
ATOM     13  O   UNL     1     -12.330   9.531 128.484  0.00  0.00    +0.000 OA
ATOM     14  H   UNL     1     -12.109   9.542 129.435  0.00  0.00    +0.000 HD
ENDBRANCH   9  13
BRANCH   1  15
ATOM     15  O   UNL     1      -8.182   7.161 130.270  0.00  0.00    +0.000 OA
BRANCH  15  16
ATOM     16  C   UNL     1      -7.160   6.829 131.207  0.00  0.00    +0.000 C 
BRANCH  16  17
ATOM     17  C   UNL     1      -6.362   5.637 130.654  0.00  0.00    +0.000 C 
BRANCH  17  18
ATOM     18  O   UNL     1      -6.991   5.083 129.489  0.00  0.00    +0.000 OA
ATOM     19  H   UNL     1      -6.459   4.328 129.189  0.00  0.00    +0.000 HD
ENDBRANCH  17  18
BRANCH  17  20
ATOM     20  C   UNL     1      -6.284   4.567 131.748  0.00  0.00    +0.000 C 
BRANCH  20  21
ATOM     21  N   UNL     1      -7.466   3.701 131.775  0.00  0.00    +0.000 NA
ATOM     22  H   UNL     1      -8.250   4.197 131.344  0.00  0.00    +0.000 HD
BRANCH  21  24
ATOM     23  C   UNL     1      -9.305   2.802 133.100  0.00  0.00    +0.000 C 
ATOM     24  C   UNL     1      -7.820   3.206 133.118  0.00  0.00    +0.000 C 
ATOM     25  C   UNL     1      -7.627   4.293 134.189  0.00  0.00    +0.000 C 
ATOM     26  C   UNL     1      -6.988   1.959 133.461  0.00  0.00    +0.000 C 
ENDBRANCH  21  24
ENDBRANCH  20  21
ENDBRANCH  17  20
ENDBRANCH  16  17
ENDBRANCH  15  16
ENDBRANCH   1  15
TORSDOF 9
ENDMDL
MODEL 3
REMARK VINA RESULT:      -6.7      7.595      9.804
REMARK  Name = Nadolol
REMARK  12 active torsions:
REMARK  status: ('A' for Active; 'I' for Inactive)
REMARK    1  A    between atoms: C_1  and  C_2
REMARK    2  A    between atoms: C_2  and  C_3
REMARK    3  A    between atoms: C_2  and  C_4
REMARK    4  A    between atoms: C_2  and  N_5
REMARK    5  A    between atoms: N_5  and  C_6
REMARK    6  A    between atoms: C_6  and  C_7
REMARK    7  A    between atoms: C_7  and  O_8
REMARK    8  A    between atoms: C_7  and  C_9
REMARK    9  A    between atoms: C_9  and  O_10
REMARK   10  A    between atoms: O_10  and  C_11
REMARK   11  A    between atoms: C_18  and  O_19
REMARK   12  A    between atoms: C_20  and  O_21
REMARK                            x       y       z     vdW  Elec       q    Type
REMARK                         _______ _______ _______ _____ _____    ______ ____
ROOT
ATOM      1  C   UNL     1      -8.419   1.323 124.120  0.00  0.00    +0.000 A 
ATOM      2  C   UNL     1      -9.512   1.789 123.384  0.00  0.00    +0.000 A 
ATOM      3  C   UNL     1     -10.243   0.904 122.592  0.00  0.00    +0.000 A 
ATOM      4  C   UNL     1      -9.874  -0.434 122.517  0.00  0.00    +0.000 A 
ATOM      5  C   UNL     1      -8.767  -0.910 123.235  0.00  0.00    +0.000 A 
ATOM      6  C   UNL     1      -8.049  -0.027 124.070  0.00  0.00    +0.000 A 
ATOM      7  C   UNL     1      -6.851  -0.497 124.867  0.00  0.00    +0.000 C 
ATOM      8  C   UNL     1      -6.790  -2.019 124.989  0.00  0.00    +0.000 C 
ATOM      9  C   UNL     1      -6.978  -2.666 123.612  0.00  0.00    +0.000 C 
ATOM     10  C   UNL     1      -8.393  -2.371 123.105  0.00  0.00    +0.000 C 
ENDROOT
BRANCH   8  11
ATOM     11  O   UNL     1      -5.540  -2.406 125.558  0.00  0.00    +0.000 OA
ATOM     12  H   UNL     1      -5.012  -2.789 124.832  0.00  0.00    +0.000 HD
ENDBRANCH   8  11
BRANCH   9  13
ATOM     13  O   UNL     1      -5.987  -2.184 122.689  0.00  0.00    +0.000 OA
ATOM     14  H   UNL     1      -5.391  -2.926 122.471  0.00  0.00    +0.000 HD
ENDBRANCH   9  13
BRANCH   1  15
ATOM     15  O   UNL     1      -7.594   2.163 124.816  0.00  0.00    +0.000 OA
BRANCH  15  16
ATOM     16  C   UNL     1      -7.897   3.548 124.664  0.00  0.00    +0.000 C 
BRANCH  16  17
ATOM     17  C   UNL     1      -6.589   4.349 124.776  0.00  0.00    +0.000 C 
BRANCH  17  18
ATOM     18  O   UNL     1      -6.848   5.738 125.029  0.00  0.00    +0.000 OA
ATOM     19  H   UNL     1      -6.019   6.228 124.898  0.00  0.00    +0.000 HD
ENDBRANCH  17  18
BRANCH  17  20
ATOM     20  C   UNL     1      -5.829   4.205 123.454  0.00  0.00    +0.000 C 
BRANCH  20  21
ATOM     21  N   UNL     1      -6.718   3.971 122.313  0.00  0.00    +0.000 NA
ATOM     22  H   UNL     1      -7.272   3.130 122.492  0.00  0.00    +0.000 HD
BRANCH  21  24
ATOM     23  C   UNL     1      -4.886   4.924 121.017  0.00  0.00    +0.000 C 
ATOM     24  C   UNL     1      -6.025   3.888 121.015  0.00  0.00    +0.000 C 
ATOM     25  C   UNL     1      -6.972   4.212 119.848  0.00  0.00    +0.000 C 
ATOM     26  C   UNL     1      -5.403   2.493 120.833  0.00  0.00    +0.000 C 
ENDBRANCH  21  24
ENDBRANCH  20  21
ENDBRANCH  17  20
ENDBRANCH  16  17
ENDBRANCH  15  16
ENDBRANCH   1  15
TORSDOF 9
ENDMDL
MODEL 4
REMARK VINA RESULT:      -6.7      2.932      6.691
REMARK  Name = Nadolol
REMARK  12 active torsions:
REMARK  status: ('A' for Active; 'I' for Inactive)
REMARK    1  A    between atoms: C_1  and  C_2
REMARK    2  A    between atoms: C_2  and  C_3
REMARK    3  A    between atoms: C_2  and  C_4
REMARK    4  A    between atoms: C_2  and  N_5
REMARK    5  A    between atoms: N_5  and  C_6
REMARK    6  A    between atoms: C_6  and  C_7
REMARK    7  A    between atoms: C_7  and  O_8
REMARK    8  A    between atoms: C_7  and  C_9
REMARK    9  A    between atoms: C_9  and  O_10
REMARK   10  A    between atoms: O_10  and  C_11
REMARK   11  A    between atoms: C_18  and  O_19
REMARK   12  A    between atoms: C_20  and  O_21
REMARK                            x       y       z     vdW  Elec       q    Type
REMARK                         _______ _______ _______ _____ _____    ______ ____
ROOT
ATOM      1  C   UNL     1      -8.457   5.959 132.643  0.00  0.00    +0.000 A 
ATOM      2  C   UNL     1      -8.815   5.138 133.716  0.00  0.00    +0.000 A 
ATOM      3  C   UNL     1      -7.833   4.422 134.399  0.00  0.00    +0.000 A 
ATOM      4  C   UNL     1      -6.504   4.505 134.001  0.00  0.00    +0.000 A 
ATOM      5  C   UNL     1      -6.134   5.309 132.912  0.00  0.00    +0.000 A 
ATOM      6  C   UNL     1      -7.118   6.068 132.244  0.00  0.00    +0.000 A 
ATOM      7  C   UNL     1      -6.766   6.953 131.068  0.00  0.00    +0.000 C 
ATOM      8  C   UNL     1      -5.267   7.242 130.981  0.00  0.00    +0.000 C 
ATOM      9  C   UNL     1      -4.472   5.937 131.105  0.00  0.00    +0.000 C 
ATOM     10  C   UNL     1      -4.677   5.351 132.505  0.00  0.00    +0.000 C 
ENDROOT
BRANCH   8  11
ATOM     11  O   UNL     1      -4.973   7.893 129.746  0.00  0.00    +0.000 OA
ATOM     12  H   UNL     1      -5.795   7.871 129.219  0.00  0.00    +0.000 HD
ENDBRANCH   8  11
BRANCH   9  13
ATOM     13  O   UNL     1      -4.875   5.003 130.089  0.00  0.00    +0.000 OA
ATOM     14  H   UNL     1      -4.450   5.266 129.250  0.00  0.00    +0.000 HD
ENDBRANCH   9  13
BRANCH   1  15
ATOM     15  O   UNL     1      -9.386   6.588 131.861  0.00  0.00    +0.000 OA
BRANCH  15  16
ATOM     16  C   UNL     1     -10.740   6.291 132.198  0.00  0.00    +0.000 C 
BRANCH  16  17
ATOM     17  C   UNL     1     -11.411   5.631 130.982  0.00  0.00    +0.000 C 
BRANCH  17  18
ATOM     18  O   UNL     1     -11.116   4.227 130.922  0.00  0.00    +0.000 OA
ATOM     19  H   UNL     1     -11.365   3.904 130.041  0.00  0.00    +0.000 HD
ENDBRANCH  17  18
BRANCH  17  20
ATOM     20  C   UNL     1     -10.884   6.316 129.718  0.00  0.00    +0.000 C 
BRANCH  20  21
ATOM     21  N   UNL     1     -11.851   6.289 128.617  0.00  0.00    +0.000 NA
ATOM     22  H   UNL     1     -11.619   5.514 127.991  0.00  0.00    +0.000 HD
BRANCH  21  24
ATOM     23  C   UNL     1     -11.945   7.236 126.372  0.00  0.00    +0.000 C 
ATOM     24  C   UNL     1     -11.957   7.560 127.876  0.00  0.00    +0.000 C 
ATOM     25  C   UNL     1     -10.771   8.490 128.180  0.00  0.00    +0.000 C 
ATOM     26  C   UNL     1     -13.287   8.257 128.207  0.00  0.00    +0.000 C 
ENDBRANCH  21  24
ENDBRANCH  20  21
ENDBRANCH  17  20
ENDBRANCH  16  17
ENDBRANCH  15  16
ENDBRANCH   1  15
TORSDOF 9
ENDMDL
MODEL 5
REMARK VINA RESULT:      -6.6      8.327     10.593
REMARK  Name = Nadolol
REMARK  12 active torsions:
REMARK  status: ('A' for Active; 'I' for Inactive)
REMARK    1  A    between atoms: C_1  and  C_2
REMARK    2  A    between atoms: C_2  and  C_3
REMARK    3  A    between atoms: C_2  and  C_4
REMARK    4  A    between atoms: C_2  and  N_5
REMARK    5  A    between atoms: N_5  and  C_6
REMARK    6  A    between atoms: C_6  and  C_7
REMARK    7  A    between atoms: C_7  and  O_8
REMARK    8  A    between atoms: C_7  and  C_9
REMARK    9  A    between atoms: C_9  and  O_10
REMARK   10  A    between atoms: O_10  and  C_11
REMARK   11  A    between atoms: C_18  and  O_19
REMARK   12  A    between atoms: C_20  and  O_21
REMARK                            x       y       z     vdW  Elec       q    Type
REMARK                         _______ _______ _______ _____ _____    ______ ____
ROOT
ATOM      1  C   UNL     1      -7.825  -2.731 126.360  0.00  0.00    +0.000 A 
ATOM      2  C   UNL     1      -8.753  -3.693 126.769  0.00  0.00    +0.000 A 
ATOM      3  C   UNL     1      -8.963  -3.920 128.129  0.00  0.00    +0.000 A 
ATOM      4  C   UNL     1      -8.236  -3.210 129.076  0.00  0.00    +0.000 A 
ATOM      5  C   UNL     1      -7.285  -2.257 128.679  0.00  0.00    +0.000 A 
ATOM      6  C   UNL     1      -7.099  -1.994 127.304  0.00  0.00    +0.000 A 
ATOM      7  C   UNL     1      -6.090  -0.971 126.828  0.00  0.00    +0.000 C 
ATOM      8  C   UNL     1      -5.650  -0.021 127.942  0.00  0.00    +0.000 C 
ATOM      9  C   UNL     1      -5.262  -0.819 129.193  0.00  0.00    +0.000 C 
ATOM     10  C   UNL     1      -6.504  -1.523 129.747  0.00  0.00    +0.000 C 
ENDROOT
BRANCH   8  11
ATOM     11  O   UNL     1      -4.551   0.771 127.493  0.00  0.00    +0.000 OA
ATOM     12  H   UNL     1      -4.909   1.389 126.828  0.00  0.00    +0.000 HD
ENDBRANCH   8  11
BRANCH   9  13
ATOM     13  O   UNL     1      -4.225  -1.766 128.885  0.00  0.00    +0.000 OA
ATOM     14  H   UNL     1      -3.656  -1.377 128.193  0.00  0.00    +0.000 HD
ENDBRANCH   9  13
BRANCH   1  15
ATOM     15  O   UNL     1      -7.489  -2.550 125.046  0.00  0.00    +0.000 OA
BRANCH  15  16
ATOM     16  C   UNL     1      -8.434  -3.079 124.118  0.00  0.00    +0.000 C 
BRANCH  16  17
ATOM     17  C   UNL     1      -8.283  -2.325 122.787  0.00  0.00    +0.000 C 
BRANCH  17  18
ATOM     18  O   UNL     1      -6.914  -1.968 122.541  0.00  0.00    +0.000 OA
ATOM     19  H   UNL     1      -6.576  -2.538 121.831  0.00  0.00    +0.000 HD
ENDBRANCH  17  18
BRANCH  17  20
ATOM     20  C   UNL     1      -9.135  -1.054 122.860  0.00  0.00    +0.000 C 
BRANCH  20  21
ATOM     21  N   UNL     1      -9.539  -0.724 124.229  0.00  0.00    +0.000 NA
ATOM     22  H   UNL     1     -10.544  -0.888 124.327  0.00  0.00    +0.000 HD
BRANCH  21  24
ATOM     23  C   UNL     1     -10.170   1.620 123.999  0.00  0.00    +0.000 C 
ATOM     24  C   UNL     1      -9.177   0.641 124.652  0.00  0.00    +0.000 C 
ATOM     25  C   UNL     1      -7.758   1.016 124.194  0.00  0.00    +0.000 C 
ATOM     26  C   UNL     1      -9.305   0.776 126.179  0.00  0.00    +0.000 C 
ENDBRANCH  21  24
ENDBRANCH  20  21
ENDBRANCH  17  20
ENDBRANCH  16  17
ENDBRANCH  15  16
ENDBRANCH   1  15
TORSDOF 9
ENDMDL
MODEL 6
REMARK VINA RESULT:      -6.6      6.828      8.384
REMARK  Name = Nadolol
REMARK  12 active torsions:
REMARK  status: ('A' for Active; 'I' for Inactive)
REMARK    1  A    between atoms: C_1  and  C_2
REMARK    2  A    between atoms: C_2  and  C_3
REMARK    3  A    between atoms: C_2  and  C_4
REMARK    4  A    between atoms: C_2  and  N_5
REMARK    5  A    between atoms: N_5  and  C_6
REMARK    6  A    between atoms: C_6  and  C_7
REMARK    7  A    between atoms: C_7  and  O_8
REMARK    8  A    between atoms: C_7  and  C_9
REMARK    9  A    between atoms: C_9  and  O_10
REMARK   10  A    between atoms: O_10  and  C_11
REMARK   11  A    between atoms: C_18  and  O_19
REMARK   12  A    between atoms: C_20  and  O_21
REMARK                            x       y       z     vdW  Elec       q    Type
REMARK                         _______ _______ _______ _____ _____    ______ ____
ROOT
ATOM      1  C   UNL     1      -6.739  -0.895 124.378  0.00  0.00    +0.000 A 
ATOM      2  C   UNL     1      -6.922  -2.281 124.351  0.00  0.00    +0.000 A 
ATOM      3  C   UNL     1      -8.058  -2.819 123.748  0.00  0.00    +0.000 A 
ATOM      4  C   UNL     1      -9.019  -1.981 123.195  0.00  0.00    +0.000 A 
ATOM      5  C   UNL     1      -8.857  -0.587 123.234  0.00  0.00    +0.000 A 
ATOM      6  C   UNL     1      -7.689  -0.039 123.807  0.00  0.00    +0.000 A 
ATOM      7  C   UNL     1      -7.469   1.457 123.867  0.00  0.00    +0.000 C 
ATOM      8  C   UNL     1      -8.386   2.222 122.912  0.00  0.00    +0.000 C 
ATOM      9  C   UNL     1      -9.834   1.746 123.080  0.00  0.00    +0.000 C 
ATOM     10  C   UNL     1      -9.940   0.285 122.635  0.00  0.00    +0.000 C 
ENDROOT
BRANCH   8  11
ATOM     11  O   UNL     1      -8.286   3.622 123.168  0.00  0.00    +0.000 OA
ATOM     12  H   UNL     1      -9.131   4.018 122.881  0.00  0.00    +0.000 HD
ENDBRANCH   8  11
BRANCH   9  13
ATOM     13  O   UNL     1     -10.263   1.906 124.442  0.00  0.00    +0.000 OA
ATOM     14  H   UNL     1     -10.228   1.031 124.875  0.00  0.00    +0.000 HD
ENDBRANCH   9  13
BRANCH   1  15
ATOM     15  O   UNL     1      -5.709  -0.306 125.060  0.00  0.00    +0.000 OA
BRANCH  15  16
ATOM     16  C   UNL     1      -5.500  -0.821 126.373  0.00  0.00    +0.000 C 
BRANCH  16  17
ATOM     17  C   UNL     1      -5.838   0.282 127.389  0.00  0.00    +0.000 C 
BRANCH  17  18
ATOM     18  O   UNL     1      -7.253   0.364 127.619  0.00  0.00    +0.000 OA
ATOM     19  H   UNL     1      -7.528  -0.437 128.094  0.00  0.00    +0.000 HD
ENDBRANCH  17  18
BRANCH  17  20
ATOM     20  C   UNL     1      -5.336   1.616 126.827  0.00  0.00    +0.000 C 
BRANCH  20  21
ATOM     21  N   UNL     1      -3.880   1.647 126.664  0.00  0.00    +0.000 NA
ATOM     22  H   UNL     1      -3.463   0.935 127.268  0.00  0.00    +0.000 HD
BRANCH  21  24
ATOM     23  C   UNL     1      -4.043   4.004 126.059  0.00  0.00    +0.000 C 
ATOM     24  C   UNL     1      -3.275   2.970 126.902  0.00  0.00    +0.000 C 
ATOM     25  C   UNL     1      -1.797   3.000 126.476  0.00  0.00    +0.000 C 
ATOM     26  C   UNL     1      -3.415   3.359 128.384  0.00  0.00    +0.000 C 
ENDBRANCH  21  24
ENDBRANCH  20  21
ENDBRANCH  17  20
ENDBRANCH  16  17
ENDBRANCH  15  16
ENDBRANCH   1  15
TORSDOF 9
ENDMDL
MODEL 7
REMARK VINA RESULT:      -6.6      7.643      9.130
REMARK  Name = Nadolol
REMARK  12 active torsions:
REMARK  status: ('A' for Active; 'I' for Inactive)
REMARK    1  A    between atoms: C_1  and  C_2
REMARK    2  A    between atoms: C_2  and  C_3
REMARK    3  A    between atoms: C_2  and  C_4
REMARK    4  A    between atoms: C_2  and  N_5
REMARK    5  A    between atoms: N_5  and  C_6
REMARK    6  A    between atoms: C_6  and  C_7
REMARK    7  A    between atoms: C_7  and  O_8
REMARK    8  A    between atoms: C_7  and  C_9
REMARK    9  A    between atoms: C_9  and  O_10
REMARK   10  A    between atoms: O_10  and  C_11
REMARK   11  A    between atoms: C_18  and  O_19
REMARK   12  A    between atoms: C_20  and  O_21
REMARK                            x       y       z     vdW  Elec       q    Type
REMARK                         _______ _______ _______ _____ _____    ______ ____
ROOT
ATOM      1  C   UNL     1      -6.704  -2.327 127.378  0.00  0.00    +0.000 A 
ATOM      2  C   UNL     1      -7.263  -2.820 128.560  0.00  0.00    +0.000 A 
ATOM      3  C   UNL     1      -8.471  -3.515 128.519  0.00  0.00    +0.000 A 
ATOM      4  C   UNL     1      -9.131  -3.698 127.309  0.00  0.00    +0.000 A 
ATOM      5  C   UNL     1      -8.590  -3.190 126.118  0.00  0.00    +0.000 A 
ATOM      6  C   UNL     1      -7.347  -2.522 126.149  0.00  0.00    +0.000 A 
ATOM      7  C   UNL     1      -6.723  -1.962 124.889  0.00  0.00    +0.000 C 
ATOM      8  C   UNL     1      -7.341  -2.549 123.620  0.00  0.00    +0.000 C 
ATOM      9  C   UNL     1      -8.870  -2.484 123.700  0.00  0.00    +0.000 C 
ATOM     10  C   UNL     1      -9.355  -3.398 124.829  0.00  0.00    +0.000 C 
ENDROOT
BRANCH   8  11
ATOM     11  O   UNL     1      -6.868  -1.832 122.479  0.00  0.00    +0.000 OA
ATOM     12  H   UNL     1      -6.432  -2.487 121.902  0.00  0.00    +0.000 HD
ENDBRANCH   8  11
BRANCH   9  13
ATOM     13  O   UNL     1      -9.308  -1.131 123.906  0.00  0.00    +0.000 OA
ATOM     14  H   UNL     1      -8.516  -0.565 123.980  0.00  0.00    +0.000 HD
ENDBRANCH   9  13
BRANCH   1  15
ATOM     15  O   UNL     1      -5.588  -1.535 127.370  0.00  0.00    +0.000 OA
BRANCH  15  16
ATOM     16  C   UNL     1      -5.731  -0.307 128.081  0.00  0.00    +0.000 C 
BRANCH  16  17
ATOM     17  C   UNL     1      -5.501   0.853 127.098  0.00  0.00    +0.000 C 
BRANCH  17  18
ATOM     18  O   UNL     1      -4.594   0.477 126.051  0.00  0.00    +0.000 OA
ATOM     19  H   UNL     1      -4.017  -0.227 126.389  0.00  0.00    +0.000 HD
ENDBRANCH  17  18
BRANCH  17  20
ATOM     20  C   UNL     1      -4.914   2.031 127.881  0.00  0.00    +0.000 C 
BRANCH  20  21
ATOM     21  N   UNL     1      -3.452   2.097 127.792  0.00  0.00    +0.000 NA
ATOM     22  H   UNL     1      -3.056   1.933 128.721  0.00  0.00    +0.000 HD
BRANCH  21  24
ATOM     23  C   UNL     1      -1.589   3.042 126.535  0.00  0.00    +0.000 C 
ATOM     24  C   UNL     1      -2.940   3.349 127.206  0.00  0.00    +0.000 C 
ATOM     25  C   UNL     1      -2.712   4.423 128.283  0.00  0.00    +0.000 C 
ATOM     26  C   UNL     1      -3.906   3.864 126.126  0.00  0.00    +0.000 C 
ENDBRANCH  21  24
ENDBRANCH  20  21
ENDBRANCH  17  20
ENDBRANCH  16  17
ENDBRANCH  15  16
ENDBRANCH   1  15
TORSDOF 9
ENDMDL
MODEL 8
REMARK VINA RESULT:      -6.4      7.814      9.175
REMARK  Name = Nadolol
REMARK  12 active torsions:
REMARK  status: ('A' for Active; 'I' for Inactive)
REMARK    1  A    between atoms: C_1  and  C_2
REMARK    2  A    between atoms: C_2  and  C_3
REMARK    3  A    between atoms: C_2  and  C_4
REMARK    4  A    between atoms: C_2  and  N_5
REMARK    5  A    between atoms: N_5  and  C_6
REMARK    6  A    between atoms: C_6  and  C_7
REMARK    7  A    between atoms: C_7  and  O_8
REMARK    8  A    between atoms: C_7  and  C_9
REMARK    9  A    between atoms: C_9  and  O_10
REMARK   10  A    between atoms: O_10  and  C_11
REMARK   11  A    between atoms: C_18  and  O_19
REMARK   12  A    between atoms: C_20  and  O_21
REMARK                            x       y       z     vdW  Elec       q    Type
REMARK                         _______ _______ _______ _____ _____    ______ ____
ROOT
ATOM      1  C   UNL     1      -8.592  -1.843 125.699  0.00  0.00    +0.000 A 
ATOM      2  C   UNL     1      -8.539  -3.135 125.169  0.00  0.00    +0.000 A 
ATOM      3  C   UNL     1      -8.863  -3.349 123.830  0.00  0.00    +0.000 A 
ATOM      4  C   UNL     1      -9.261  -2.286 123.029  0.00  0.00    +0.000 A 
ATOM      5  C   UNL     1      -9.339  -0.987 123.554  0.00  0.00    +0.000 A 
ATOM      6  C   UNL     1      -8.972  -0.758 124.898  0.00  0.00    +0.000 A 
ATOM      7  C   UNL     1      -9.035   0.626 125.506  0.00  0.00    +0.000 C 
ATOM      8  C   UNL     1      -9.115   1.727 124.448  0.00  0.00    +0.000 C 
ATOM      9  C   UNL     1     -10.203   1.392 123.421  0.00  0.00    +0.000 C 
ATOM     10  C   UNL     1      -9.797   0.135 122.647  0.00  0.00    +0.000 C 
ENDROOT
BRANCH   8  11
ATOM     11  O   UNL     1      -9.388   2.979 125.077  0.00  0.00    +0.000 OA
ATOM     12  H   UNL     1      -9.652   2.776 125.994  0.00  0.00    +0.000 HD
ENDBRANCH   8  11
BRANCH   9  13
ATOM     13  O   UNL     1     -11.472   1.211 124.072  0.00  0.00    +0.000 OA
ATOM     14  H   UNL     1     -11.825   2.093 124.297  0.00  0.00    +0.000 HD
ENDBRANCH   9  13
BRANCH   1  15
ATOM     15  O   UNL     1      -8.404  -1.589 127.030  0.00  0.00    +0.000 OA
BRANCH  15  16
ATOM     16  C   UNL     1      -7.244  -2.203 127.589  0.00  0.00    +0.000 C 
BRANCH  16  17
ATOM     17  C   UNL     1      -7.658  -2.957 128.863  0.00  0.00    +0.000 C 
BRANCH  17  18
ATOM     18  O   UNL     1      -8.937  -3.590 128.702  0.00  0.00    +0.000 OA
ATOM     19  H   UNL     1      -9.118  -4.111 129.501  0.00  0.00    +0.000 HD
ENDBRANCH  17  18
BRANCH  17  20
ATOM     20  C   UNL     1      -7.730  -1.948 130.012  0.00  0.00    +0.000 C 
BRANCH  20  21
ATOM     21  N   UNL     1      -7.065  -0.681 129.694  0.00  0.00    +0.000 NA
ATOM     22  H   UNL     1      -6.084  -0.742 129.976  0.00  0.00    +0.000 HD
BRANCH  21  24
ATOM     23  C   UNL     1      -6.638   1.337 130.994  0.00  0.00    +0.000 C 
ATOM     24  C   UNL     1      -7.717   0.505 130.278  0.00  0.00    +0.000 C 
ATOM     25  C   UNL     1      -8.787   0.110 131.310  0.00  0.00    +0.000 C 
ATOM     26  C   UNL     1      -8.334   1.373 129.168  0.00  0.00    +0.000 C 
ENDBRANCH  21  24
ENDBRANCH  20  21
ENDBRANCH  17  20
ENDBRANCH  16  17
ENDBRANCH  15  16
ENDBRANCH   1  15
TORSDOF 9
ENDMDL
MODEL 9
REMARK VINA RESULT:      -6.4      7.881      9.317
REMARK  Name = Nadolol
REMARK  12 active torsions:
REMARK  status: ('A' for Active; 'I' for Inactive)
REMARK    1  A    between atoms: C_1  and  C_2
REMARK    2  A    between atoms: C_2  and  C_3
REMARK    3  A    between atoms: C_2  and  C_4
REMARK    4  A    between atoms: C_2  and  N_5
REMARK    5  A    between atoms: N_5  and  C_6
REMARK    6  A    between atoms: C_6  and  C_7
REMARK    7  A    between atoms: C_7  and  O_8
REMARK    8  A    between atoms: C_7  and  C_9
REMARK    9  A    between atoms: C_9  and  O_10
REMARK   10  A    between atoms: O_10  and  C_11
REMARK   11  A    between atoms: C_18  and  O_19
REMARK   12  A    between atoms: C_20  and  O_21
REMARK                            x       y       z     vdW  Elec       q    Type
REMARK                         _______ _______ _______ _____ _____    ______ ____
ROOT
ATOM      1  C   UNL     1      -7.868  -1.359 125.537  0.00  0.00    +0.000 A 
ATOM      2  C   UNL     1      -7.808  -2.695 125.129  0.00  0.00    +0.000 A 
ATOM      3  C   UNL     1      -8.368  -3.073 123.910  0.00  0.00    +0.000 A 
ATOM      4  C   UNL     1      -9.005  -2.131 123.111  0.00  0.00    +0.000 A 
ATOM      5  C   UNL     1      -9.090  -0.791 123.518  0.00  0.00    +0.000 A 
ATOM      6  C   UNL     1      -8.489  -0.395 124.733  0.00  0.00    +0.000 A 
ATOM      7  C   UNL     1      -8.551   1.040 125.210  0.00  0.00    +0.000 C 
ATOM      8  C   UNL     1      -8.931   2.012 124.094  0.00  0.00    +0.000 C 
ATOM      9  C   UNL     1     -10.165   1.497 123.344  0.00  0.00    +0.000 C 
ATOM     10  C   UNL     1      -9.811   0.194 122.623  0.00  0.00    +0.000 C 
ENDROOT
BRANCH   8  11
ATOM     11  O   UNL     1      -9.182   3.304 124.646  0.00  0.00    +0.000 OA
ATOM     12  H   UNL     1      -8.905   3.952 123.971  0.00  0.00    +0.000 HD
ENDBRANCH   8  11
BRANCH   9  13
ATOM     13  O   UNL     1     -11.263   1.304 124.253  0.00  0.00    +0.000 OA
ATOM     14  H   UNL     1     -12.091   1.336 123.738  0.00  0.00    +0.000 HD
ENDBRANCH   9  13
BRANCH   1  15
ATOM     15  O   UNL     1      -7.446  -0.952 126.773  0.00  0.00    +0.000 OA
BRANCH  15  16
ATOM     16  C   UNL     1      -6.033  -0.801 126.894  0.00  0.00    +0.000 C 
BRANCH  16  17
ATOM     17  C   UNL     1      -5.732  -0.066 128.210  0.00  0.00    +0.000 C 
BRANCH  17  18
ATOM     18  O   UNL     1      -4.607   0.815 128.071  0.00  0.00    +0.000 OA
ATOM     19  H   UNL     1      -4.897   1.713 128.300  0.00  0.00    +0.000 HD
ENDBRANCH  17  18
BRANCH  17  20
ATOM     20  C   UNL     1      -5.428  -1.116 129.283  0.00  0.00    +0.000 C 
BRANCH  20  21
ATOM     21  N   UNL     1      -5.789  -2.473 128.864  0.00  0.00    +0.000 NA
ATOM     22  H   UNL     1      -6.129  -2.442 127.900  0.00  0.00    +0.000 HD
BRANCH  21  24
ATOM     23  C   UNL     1      -6.090  -4.400 130.326  0.00  0.00    +0.000 C 
ATOM     24  C   UNL     1      -6.759  -3.139 129.752  0.00  0.00    +0.000 C 
ATOM     25  C   UNL     1      -8.022  -3.568 128.986  0.00  0.00    +0.000 C 
ATOM     26  C   UNL     1      -7.128  -2.215 130.925  0.00  0.00    +0.000 C 
ENDBRANCH  21  24
ENDBRANCH  20  21
ENDBRANCH  17  20
ENDBRANCH  16  17
ENDBRANCH  15  16
ENDBRANCH   1  15
TORSDOF 9
ENDMDL
