MODEL 1
REMARK VINA RESULT:      -8.6      0.000      0.000
REMARK  Name = Nafcillin
REMARK  9 active torsions:
REMARK  status: ('A' for Active; 'I' for Inactive)
REMARK    1  A    between atoms: C_4  and  C_5
REMARK    2  A    between atoms: C_4  and  C_6
REMARK    3  A    between atoms: CA_7  and  C_28
REMARK    4  A    between atoms: CA_11  and  N_12
REMARK    5  A    between atoms: C_13  and  C_15
REMARK    6  A    between atoms: C_16  and  O_17
REMARK    7  A    between atoms: O_17  and  C_18
REMARK    8  A    between atoms: C_18  and  C_19
REMARK    9  A    between atoms: C_28  and  O_29
REMARK                            x       y       z     vdW  Elec       q    Type
REMARK                         _______ _______ _______ _____ _____    ______ ____
ROOT
ATOM      1  N   UNL     1      -7.847   1.470 123.344  0.00  0.00    +0.000 N 
ATOM      2  C   UNL     1      -7.910   2.849 123.289  0.00  0.00    +0.000 C 
ATOM      3  O   UNL     1      -8.667   3.487 124.014  0.00  0.00    +0.000 OA
ATOM      4  H   UNL     1      -7.277   0.981 122.661  0.00  0.00    +0.000 HD
ENDROOT
BRANCH   1  14
ATOM      5  C   UNL     1      -8.760  -0.811 124.157  0.00  0.00    +0.000 C 
ATOM      6  S   UNL     1      -7.419  -1.645 123.235  0.00  0.00    +0.000 S 
ATOM      7  C   UNL     1      -7.117  -2.806 124.670  0.00  0.00    +0.000 C 
ATOM      8  C   UNL     1      -5.679  -3.311 124.527  0.00  0.00    +0.000 C 
ATOM      9  C   UNL     1      -8.155  -3.930 124.502  0.00  0.00    +0.000 C 
ATOM     10  CA  UNL     1      -7.303  -1.908 125.916  0.00  0.00    +0.000 C 
ATOM     11  N   UNL     1      -8.357  -0.931 125.570  0.00  0.00    +0.000 N 
ATOM     12  C   UNL     1      -8.138   0.420 125.703  0.00  0.00    +0.000 C 
ATOM     13  O   UNL     1      -7.538   1.041 126.558  0.00  0.00    +0.000 OA
ATOM     14  CA  UNL     1      -8.719   0.718 124.292  0.00  0.00    +0.000 C 
BRANCH  10  15
ATOM     15  C   UNL     1      -7.583  -2.566 127.290  0.00  0.00    +0.000 C 
ATOM     16  OXT UNL     1      -8.685  -3.003 127.602  0.00  0.00    +0.000 OA
BRANCH  15  17
ATOM     17  O   UNL     1      -6.591  -2.641 128.201  0.00  0.00    +0.000 OA
ATOM     18  H   UNL     1      -6.708  -2.296 129.098  0.00  0.00    +0.000 HD
ENDBRANCH  15  17
ENDBRANCH  10  15
ENDBRANCH   1  14
BRANCH   2  19
ATOM     19  C   UNL     1      -7.018   3.544 122.310  0.00  0.00    +0.000 A 
ATOM     20  C   UNL     1      -5.677   3.825 122.655  0.00  0.00    +0.000 A 
ATOM     21  C   UNL     1      -4.852   4.442 121.711  0.00  0.00    +0.000 A 
ATOM     22  C   UNL     1      -5.338   4.776 120.446  0.00  0.00    +0.000 A 
ATOM     23  C   UNL     1      -6.652   4.475 120.074  0.00  0.00    +0.000 A 
ATOM     24  C   UNL     1      -7.098   4.783 118.776  0.00  0.00    +0.000 A 
ATOM     25  C   UNL     1      -8.400   4.493 118.377  0.00  0.00    +0.000 A 
ATOM     26  C   UNL     1      -9.274   3.898 119.275  0.00  0.00    +0.000 A 
ATOM     27  C   UNL     1      -8.844   3.597 120.568  0.00  0.00    +0.000 A 
ATOM     28  C   UNL     1      -7.522   3.856 121.006  0.00  0.00    +0.000 A 
BRANCH  20  29
ATOM     29  O   UNL     1      -5.247   3.454 123.906  0.00  0.00    +0.000 OA
BRANCH  29  30
ATOM     30  C   UNL     1      -5.256   4.454 124.926  0.00  0.00    +0.000 C 
ATOM     31  C   UNL     1      -4.555   3.901 126.151  0.00  0.00    +0.000 C 
ENDBRANCH  29  30
ENDBRANCH  20  29
ENDBRANCH   2  19
TORSDOF 6
ENDMDL
MODEL 2
REMARK VINA RESULT:      -7.9      6.716      8.601
REMARK  Name = Nafcillin
REMARK  9 active torsions:
REMARK  status: ('A' for Active; 'I' for Inactive)
REMARK    1  A    between atoms: C_4  and  C_5
REMARK    2  A    between atoms: C_4  and  C_6
REMARK    3  A    between atoms: CA_7  and  C_28
REMARK    4  A    between atoms: CA_11  and  N_12
REMARK    5  A    between atoms: C_13  and  C_15
REMARK    6  A    between atoms: C_16  and  O_17
REMARK    7  A    between atoms: O_17  and  C_18
REMARK    8  A    between atoms: C_18  and  C_19
REMARK    9  A    between atoms: C_28  and  O_29
REMARK                            x       y       z     vdW  Elec       q    Type
REMARK                         _______ _______ _______ _____ _____    ______ ____
ROOT
ATOM      1  N   UNL     1      -7.906   5.019 130.044  0.00  0.00    +0.000 N 
ATOM      2  C   UNL     1      -8.248   6.291 130.458  0.00  0.00    +0.000 C 
ATOM      3  O   UNL     1      -7.415   7.188 130.534  0.00  0.00    +0.000 OA
ATOM      4  H   UNL     1      -8.608   4.287 130.087  0.00  0.00    +0.000 HD
ENDROOT
BRANCH   1  14
ATOM      5  C   UNL     1      -5.983   3.287 129.992  0.00  0.00    +0.000 C 
ATOM      6  S   UNL     1      -7.208   1.961 130.288  0.00  0.00    +0.000 S 
ATOM      7  C   UNL     1      -6.380   0.874 129.009  0.00  0.00    +0.000 C 
ATOM      8  C   UNL     1      -7.439  -0.126 128.537  0.00  0.00    +0.000 C 
ATOM      9  C   UNL     1      -5.217   0.193 129.753  0.00  0.00    +0.000 C 
ATOM     10  CA  UNL     1      -5.969   1.864 127.894  0.00  0.00    +0.000 C 
ATOM     11  N   UNL     1      -5.615   3.129 128.572  0.00  0.00    +0.000 N 
ATOM     12  C   UNL     1      -6.208   4.315 128.207  0.00  0.00    +0.000 C 
ATOM     13  O   UNL     1      -6.519   4.736 127.109  0.00  0.00    +0.000 OA
ATOM     14  CA  UNL     1      -6.493   4.703 129.685  0.00  0.00    +0.000 C 
BRANCH  10  15
ATOM     15  C   UNL     1      -4.874   1.451 126.879  0.00  0.00    +0.000 C 
ATOM     16  OXT UNL     1      -5.029   0.543 126.070  0.00  0.00    +0.000 OA
BRANCH  15  17
ATOM     17  O   UNL     1      -3.685   2.087 126.896  0.00  0.00    +0.000 OA
ATOM     18  H   UNL     1      -3.612   3.019 126.642  0.00  0.00    +0.000 HD
ENDBRANCH  15  17
ENDBRANCH  10  15
ENDBRANCH   1  14
BRANCH   2  19
ATOM     19  C   UNL     1      -9.679   6.542 130.814  0.00  0.00    +0.000 A 
ATOM     20  C   UNL     1     -10.167   6.164 132.084  0.00  0.00    +0.000 A 
ATOM     21  C   UNL     1     -11.497   6.443 132.407  0.00  0.00    +0.000 A 
ATOM     22  C   UNL     1     -12.335   7.087 131.496  0.00  0.00    +0.000 A 
ATOM     23  C   UNL     1     -11.861   7.500 130.247  0.00  0.00    +0.000 A 
ATOM     24  C   UNL     1     -12.718   8.188 129.368  0.00  0.00    +0.000 A 
ATOM     25  C   UNL     1     -12.274   8.613 128.118  0.00  0.00    +0.000 A 
ATOM     26  C   UNL     1     -10.969   8.349 127.731  0.00  0.00    +0.000 A 
ATOM     27  C   UNL     1     -10.113   7.660 128.592  0.00  0.00    +0.000 A 
ATOM     28  C   UNL     1     -10.520   7.229 129.879  0.00  0.00    +0.000 A 
BRANCH  20  29
ATOM     29  O   UNL     1      -9.291   5.554 132.949  0.00  0.00    +0.000 OA
BRANCH  29  30
ATOM     30  C   UNL     1      -9.508   4.171 133.235  0.00  0.00    +0.000 C 
ATOM     31  C   UNL     1      -8.251   3.604 133.864  0.00  0.00    +0.000 C 
ENDBRANCH  29  30
ENDBRANCH  20  29
ENDBRANCH   2  19
TORSDOF 6
ENDMDL
MODEL 3
REMARK VINA RESULT:      -7.6      4.134      7.733
REMARK  Name = Nafcillin
REMARK  9 active torsions:
REMARK  status: ('A' for Active; 'I' for Inactive)
REMARK    1  A    between atoms: C_4  and  C_5
REMARK    2  A    between atoms: C_4  and  C_6
REMARK    3  A    between atoms: CA_7  and  C_28
REMARK    4  A    between atoms: CA_11  and  N_12
REMARK    5  A    between atoms: C_13  and  C_15
REMARK    6  A    between atoms: C_16  and  O_17
REMARK    7  A    between atoms: O_17  and  C_18
REMARK    8  A    between atoms: C_18  and  C_19
REMARK    9  A    between atoms: C_28  and  O_29
REMARK                            x       y       z     vdW  Elec       q    Type
REMARK                         _______ _______ _______ _____ _____    ______ ____
ROOT
ATOM      1  N   UNL     1      -6.954   1.528 126.545  0.00  0.00    +0.000 N 
ATOM      2  C   UNL     1      -8.186   0.905 126.603  0.00  0.00    +0.000 C 
ATOM      3  O   UNL     1      -9.232   1.547 126.594  0.00  0.00    +0.000 OA
ATOM      4  H   UNL     1      -6.117   0.963 126.649  0.00  0.00    +0.000 HD
ENDROOT
BRANCH   1  14
ATOM      5  C   UNL     1      -6.730   3.775 127.809  0.00  0.00    +0.000 C 
ATOM      6  S   UNL     1      -6.179   2.854 129.290  0.00  0.00    +0.000 S 
ATOM      7  C   UNL     1      -4.836   4.116 129.608  0.00  0.00    +0.000 C 
ATOM      8  C   UNL     1      -3.767   3.412 130.450  0.00  0.00    +0.000 C 
ATOM      9  C   UNL     1      -5.529   5.258 130.373  0.00  0.00    +0.000 C 
ATOM     10  CA  UNL     1      -4.325   4.476 128.193  0.00  0.00    +0.000 C 
ATOM     11  N   UNL     1      -5.500   4.409 127.298  0.00  0.00    +0.000 N 
ATOM     12  C   UNL     1      -5.479   3.632 126.163  0.00  0.00    +0.000 C 
ATOM     13  O   UNL     1      -4.585   3.427 125.365  0.00  0.00    +0.000 OA
ATOM     14  CA  UNL     1      -6.870   3.015 126.481  0.00  0.00    +0.000 C 
BRANCH  10  15
ATOM     15  C   UNL     1      -3.540   5.795 127.983  0.00  0.00    +0.000 C 
ATOM     16  OXT UNL     1      -4.089   6.854 127.699  0.00  0.00    +0.000 OA
BRANCH  15  17
ATOM     17  O   UNL     1      -2.196   5.787 128.083  0.00  0.00    +0.000 OA
ATOM     18  H   UNL     1      -1.680   6.600 127.976  0.00  0.00    +0.000 HD
ENDBRANCH  15  17
ENDBRANCH  10  15
ENDBRANCH   1  14
BRANCH   2  19
ATOM     19  C   UNL     1      -8.204  -0.589 126.675  0.00  0.00    +0.000 A 
ATOM     20  C   UNL     1      -7.944  -1.238 127.901  0.00  0.00    +0.000 A 
ATOM     21  C   UNL     1      -8.003  -2.634 127.953  0.00  0.00    +0.000 A 
ATOM     22  C   UNL     1      -8.317  -3.379 126.816  0.00  0.00    +0.000 A 
ATOM     23  C   UNL     1      -8.611  -2.752 125.601  0.00  0.00    +0.000 A 
ATOM     24  C   UNL     1      -8.968  -3.529 124.483  0.00  0.00    +0.000 A 
ATOM     25  C   UNL     1      -9.269  -2.933 123.261  0.00  0.00    +0.000 A 
ATOM     26  C   UNL     1      -9.209  -1.553 123.141  0.00  0.00    +0.000 A 
ATOM     27  C   UNL     1      -8.847  -0.774 124.240  0.00  0.00    +0.000 A 
ATOM     28  C   UNL     1      -8.554  -1.339 125.506  0.00  0.00    +0.000 A 
BRANCH  20  29
ATOM     29  O   UNL     1      -7.663  -0.453 128.994  0.00  0.00    +0.000 OA
BRANCH  29  30
ATOM     30  C   UNL     1      -7.933  -1.004 130.284  0.00  0.00    +0.000 C 
ATOM     31  C   UNL     1      -8.635   0.047 131.121  0.00  0.00    +0.000 C 
ENDBRANCH  29  30
ENDBRANCH  20  29
ENDBRANCH   2  19
TORSDOF 6
ENDMDL
MODEL 4
REMARK VINA RESULT:      -7.6      6.612      8.264
REMARK  Name = Nafcillin
REMARK  9 active torsions:
REMARK  status: ('A' for Active; 'I' for Inactive)
REMARK    1  A    between atoms: C_4  and  C_5
REMARK    2  A    between atoms: C_4  and  C_6
REMARK    3  A    between atoms: CA_7  and  C_28
REMARK    4  A    between atoms: CA_11  and  N_12
REMARK    5  A    between atoms: C_13  and  C_15
REMARK    6  A    between atoms: C_16  and  O_17
REMARK    7  A    between atoms: O_17  and  C_18
REMARK    8  A    between atoms: C_18  and  C_19
REMARK    9  A    between atoms: C_28  and  O_29
REMARK                            x       y       z     vdW  Elec       q    Type
REMARK                         _______ _______ _______ _____ _____    ______ ____
ROOT
ATOM      1  N   UNL     1      -9.038   4.029 129.277  0.00  0.00    +0.000 N 
ATOM      2  C   UNL     1      -8.881   5.320 129.742  0.00  0.00    +0.000 C 
ATOM      3  O   UNL     1      -7.809   5.910 129.653  0.00  0.00    +0.000 OA
ATOM      4  H   UNL     1      -9.914   3.549 129.458  0.00  0.00    +0.000 HD
ENDROOT
BRANCH   1  14
ATOM      5  C   UNL     1      -7.012   2.447 129.578  0.00  0.00    +0.000 C 
ATOM      6  S   UNL     1      -7.682   1.942 131.203  0.00  0.00    +0.000 S 
ATOM      7  C   UNL     1      -7.281   0.151 130.843  0.00  0.00    +0.000 C 
ATOM      8  C   UNL     1      -8.206  -0.689 131.728  0.00  0.00    +0.000 C 
ATOM      9  C   UNL     1      -5.797  -0.011 131.220  0.00  0.00    +0.000 C 
ATOM     10  CA  UNL     1      -7.608  -0.005 129.339  0.00  0.00    +0.000 C 
ATOM     11  N   UNL     1      -7.268   1.286 128.704  0.00  0.00    +0.000 N 
ATOM     12  C   UNL     1      -8.193   1.964 127.945  0.00  0.00    +0.000 C 
ATOM     13  O   UNL     1      -9.027   1.550 127.164  0.00  0.00    +0.000 OA
ATOM     14  CA  UNL     1      -7.887   3.311 128.658  0.00  0.00    +0.000 C 
BRANCH  10  15
ATOM     15  C   UNL     1      -6.997  -1.190 128.550  0.00  0.00    +0.000 C 
ATOM     16  OXT UNL     1      -7.425  -2.336 128.640  0.00  0.00    +0.000 OA
BRANCH  15  17
ATOM     17  O   UNL     1      -5.933  -0.974 127.751  0.00  0.00    +0.000 OA
ATOM     18  H   UNL     1      -5.823  -1.459 126.920  0.00  0.00    +0.000 HD
ENDBRANCH  15  17
ENDBRANCH  10  15
ENDBRANCH   1  14
BRANCH   2  19
ATOM     19  C   UNL     1     -10.070   5.982 130.362  0.00  0.00    +0.000 A 
ATOM     20  C   UNL     1     -10.384   5.741 131.718  0.00  0.00    +0.000 A 
ATOM     21  C   UNL     1     -11.478   6.400 132.286  0.00  0.00    +0.000 A 
ATOM     22  C   UNL     1     -12.250   7.285 131.533  0.00  0.00    +0.000 A 
ATOM     23  C   UNL     1     -11.934   7.563 130.199  0.00  0.00    +0.000 A 
ATOM     24  C   UNL     1     -12.704   8.495 129.479  0.00  0.00    +0.000 A 
ATOM     25  C   UNL     1     -12.413   8.794 128.151  0.00  0.00    +0.000 A 
ATOM     26  C   UNL     1     -11.351   8.158 127.525  0.00  0.00    +0.000 A 
ATOM     27  C   UNL     1     -10.586   7.225 128.227  0.00  0.00    +0.000 A 
ATOM     28  C   UNL     1     -10.837   6.909 129.585  0.00  0.00    +0.000 A 
BRANCH  20  29
ATOM     29  O   UNL     1      -9.576   4.877 132.418  0.00  0.00    +0.000 OA
BRANCH  29  30
ATOM     30  C   UNL     1      -8.683   5.446 133.377  0.00  0.00    +0.000 C 
ATOM     31  C   UNL     1      -8.370   4.397 134.427  0.00  0.00    +0.000 C 
ENDBRANCH  29  30
ENDBRANCH  20  29
ENDBRANCH   2  19
TORSDOF 6
ENDMDL
MODEL 5
REMARK VINA RESULT:      -7.6      5.291      8.737
REMARK  Name = Nafcillin
REMARK  9 active torsions:
REMARK  status: ('A' for Active; 'I' for Inactive)
REMARK    1  A    between atoms: C_4  and  C_5
REMARK    2  A    between atoms: C_4  and  C_6
REMARK    3  A    between atoms: CA_7  and  C_28
REMARK    4  A    between atoms: CA_11  and  N_12
REMARK    5  A    between atoms: C_13  and  C_15
REMARK    6  A    between atoms: C_16  and  O_17
REMARK    7  A    between atoms: O_17  and  C_18
REMARK    8  A    between atoms: C_18  and  C_19
REMARK    9  A    between atoms: C_28  and  O_29
REMARK                            x       y       z     vdW  Elec       q    Type
REMARK                         _______ _______ _______ _____ _____    ______ ____
ROOT
ATOM      1  N   UNL     1      -7.444   3.819 128.244  0.00  0.00    +0.000 N 
ATOM      2  C   UNL     1      -7.082   4.756 129.193  0.00  0.00    +0.000 C 
ATOM      3  O   UNL     1      -6.044   5.403 129.094  0.00  0.00    +0.000 OA
ATOM      4  H   UNL     1      -8.261   3.242 128.415  0.00  0.00    +0.000 HD
ENDROOT
BRANCH   1  14
ATOM      5  C   UNL     1      -6.849   2.316 126.222  0.00  0.00    +0.000 C 
ATOM      6  S   UNL     1      -8.489   1.519 126.369  0.00  0.00    +0.000 S 
ATOM      7  C   UNL     1      -8.712   1.573 124.512  0.00  0.00    +0.000 C 
ATOM      8  C   UNL     1     -10.220   1.512 124.252  0.00  0.00    +0.000 C 
ATOM      9  C   UNL     1      -7.972   0.331 123.982  0.00  0.00    +0.000 C 
ATOM     10  CA  UNL     1      -8.101   2.936 124.107  0.00  0.00    +0.000 C 
ATOM     11  N   UNL     1      -6.969   3.174 125.028  0.00  0.00    +0.000 N 
ATOM     12  C   UNL     1      -6.887   4.336 125.759  0.00  0.00    +0.000 C 
ATOM     13  O   UNL     1      -7.164   5.480 125.455  0.00  0.00    +0.000 OA
ATOM     14  CA  UNL     1      -6.561   3.565 127.069  0.00  0.00    +0.000 C 
BRANCH  10  15
ATOM     15  C   UNL     1      -7.680   3.170 122.635  0.00  0.00    +0.000 C 
ATOM     16  OXT UNL     1      -6.556   2.911 122.219  0.00  0.00    +0.000 OA
BRANCH  15  17
ATOM     17  O   UNL     1      -8.566   3.709 121.772  0.00  0.00    +0.000 OA
ATOM     18  H   UNL     1      -8.548   3.483 120.830  0.00  0.00    +0.000 HD
ENDBRANCH  15  17
ENDBRANCH  10  15
ENDBRANCH   1  14
BRANCH   2  19
ATOM     19  C   UNL     1      -8.004   4.958 130.352  0.00  0.00    +0.000 A 
ATOM     20  C   UNL     1      -9.154   5.765 130.207  0.00  0.00    +0.000 A 
ATOM     21  C   UNL     1     -10.020   5.910 131.293  0.00  0.00    +0.000 A 
ATOM     22  C   UNL     1      -9.762   5.267 132.505  0.00  0.00    +0.000 A 
ATOM     23  C   UNL     1      -8.648   4.436 132.658  0.00  0.00    +0.000 A 
ATOM     24  C   UNL     1      -8.439   3.766 133.877  0.00  0.00    +0.000 A 
ATOM     25  C   UNL     1      -7.340   2.930 134.058  0.00  0.00    +0.000 A 
ATOM     26  C   UNL     1      -6.433   2.761 133.023  0.00  0.00    +0.000 A 
ATOM     27  C   UNL     1      -6.626   3.428 131.813  0.00  0.00    +0.000 A 
ATOM     28  C   UNL     1      -7.741   4.270 131.581  0.00  0.00    +0.000 A 
BRANCH  20  29
ATOM     29  O   UNL     1      -9.370   6.356 128.985  0.00  0.00    +0.000 OA
BRANCH  29  30
ATOM     30  C   UNL     1     -10.656   6.934 128.754  0.00  0.00    +0.000 C 
ATOM     31  C   UNL     1     -10.467   8.381 128.341  0.00  0.00    +0.000 C 
ENDBRANCH  29  30
ENDBRANCH  20  29
ENDBRANCH   2  19
TORSDOF 6
ENDMDL
MODEL 6
REMARK VINA RESULT:      -7.5      4.536      6.938
REMARK  Name = Nafcillin
REMARK  9 active torsions:
REMARK  status: ('A' for Active; 'I' for Inactive)
REMARK    1  A    between atoms: C_4  and  C_5
REMARK    2  A    between atoms: C_4  and  C_6
REMARK    3  A    between atoms: CA_7  and  C_28
REMARK    4  A    between atoms: CA_11  and  N_12
REMARK    5  A    between atoms: C_13  and  C_15
REMARK    6  A    between atoms: C_16  and  O_17
REMARK    7  A    between atoms: O_17  and  C_18
REMARK    8  A    between atoms: C_18  and  C_19
REMARK    9  A    between atoms: C_28  and  O_29
REMARK                            x       y       z     vdW  Elec       q    Type
REMARK                         _______ _______ _______ _____ _____    ______ ____
ROOT
ATOM      1  N   UNL     1      -7.681  -2.142 127.764  0.00  0.00    +0.000 N 
ATOM      2  C   UNL     1      -8.181  -2.772 126.642  0.00  0.00    +0.000 C 
ATOM      3  O   UNL     1      -8.872  -3.783 126.726  0.00  0.00    +0.000 OA
ATOM      4  H   UNL     1      -7.037  -1.366 127.641  0.00  0.00    +0.000 HD
ENDROOT
BRANCH   1  14
ATOM      5  C   UNL     1      -6.817  -3.399 129.855  0.00  0.00    +0.000 C 
ATOM      6  S   UNL     1      -5.102  -3.102 129.291  0.00  0.00    +0.000 S 
ATOM      7  C   UNL     1      -4.578  -2.661 131.031  0.00  0.00    +0.000 C 
ATOM      8  C   UNL     1      -3.322  -1.793 130.901  0.00  0.00    +0.000 C 
ATOM      9  C   UNL     1      -4.293  -4.009 131.718  0.00  0.00    +0.000 C 
ATOM     10  CA  UNL     1      -5.783  -1.870 131.591  0.00  0.00    +0.000 C 
ATOM     11  N   UNL     1      -6.991  -2.472 130.989  0.00  0.00    +0.000 N 
ATOM     12  C   UNL     1      -7.905  -1.696 130.314  0.00  0.00    +0.000 C 
ATOM     13  O   UNL     1      -8.314  -0.576 130.550  0.00  0.00    +0.000 OA
ATOM     14  CA  UNL     1      -7.965  -2.691 129.121  0.00  0.00    +0.000 C 
BRANCH  10  15
ATOM     15  C   UNL     1      -5.943  -1.716 133.125  0.00  0.00    +0.000 C 
ATOM     16  OXT UNL     1      -5.126  -1.122 133.819  0.00  0.00    +0.000 OA
BRANCH  15  17
ATOM     17  O   UNL     1      -7.004  -2.280 133.737  0.00  0.00    +0.000 OA
ATOM     18  H   UNL     1      -7.897  -2.195 133.372  0.00  0.00    +0.000 HD
ENDBRANCH  15  17
ENDBRANCH  10  15
ENDBRANCH   1  14
BRANCH   2  19
ATOM     19  C   UNL     1      -7.852  -2.179 125.309  0.00  0.00    +0.000 A 
ATOM     20  C   UNL     1      -8.628  -1.114 124.801  0.00  0.00    +0.000 A 
ATOM     21  C   UNL     1      -8.279  -0.550 123.570  0.00  0.00    +0.000 A 
ATOM     22  C   UNL     1      -7.181  -1.025 122.852  0.00  0.00    +0.000 A 
ATOM     23  C   UNL     1      -6.381  -2.056 123.354  0.00  0.00    +0.000 A 
ATOM     24  C   UNL     1      -5.254  -2.482 122.627  0.00  0.00    +0.000 A 
ATOM     25  C   UNL     1      -4.437  -3.504 123.103  0.00  0.00    +0.000 A 
ATOM     26  C   UNL     1      -4.742  -4.117 124.309  0.00  0.00    +0.000 A 
ATOM     27  C   UNL     1      -5.862  -3.708 125.034  0.00  0.00    +0.000 A 
ATOM     28  C   UNL     1      -6.706  -2.658 124.595  0.00  0.00    +0.000 A 
BRANCH  20  29
ATOM     29  O   UNL     1      -9.683  -0.672 125.562  0.00  0.00    +0.000 OA
BRANCH  29  30
ATOM     30  C   UNL     1      -9.796   0.737 125.771  0.00  0.00    +0.000 C 
ATOM     31  C   UNL     1      -8.810   1.147 126.847  0.00  0.00    +0.000 C 
ENDBRANCH  29  30
ENDBRANCH  20  29
ENDBRANCH   2  19
TORSDOF 6
ENDMDL
MODEL 7
REMARK VINA RESULT:      -7.4      4.556      7.592
REMARK  Name = Nafcillin
REMARK  9 active torsions:
REMARK  status: ('A' for Active; 'I' for Inactive)
REMARK    1  A    between atoms: C_4  and  C_5
REMARK    2  A    between atoms: C_4  and  C_6
REMARK    3  A    between atoms: CA_7  and  C_28
REMARK    4  A    between atoms: CA_11  and  N_12
REMARK    5  A    between atoms: C_13  and  C_15
REMARK    6  A    between atoms: C_16  and  O_17
REMARK    7  A    between atoms: O_17  and  C_18
REMARK    8  A    between atoms: C_18  and  C_19
REMARK    9  A    between atoms: C_28  and  O_29
REMARK                            x       y       z     vdW  Elec       q    Type
REMARK                         _______ _______ _______ _____ _____    ______ ____
ROOT
ATOM      1  N   UNL     1      -8.821   1.556 127.719  0.00  0.00    +0.000 N 
ATOM      2  C   UNL     1      -8.018   2.250 128.603  0.00  0.00    +0.000 C 
ATOM      3  O   UNL     1      -6.929   2.702 128.264  0.00  0.00    +0.000 OA
ATOM      4  H   UNL     1      -9.668   1.120 128.069  0.00  0.00    +0.000 HD
ENDROOT
BRANCH   1  14
ATOM      5  C   UNL     1      -7.522   0.078 126.037  0.00  0.00    +0.000 C 
ATOM      6  S   UNL     1      -7.541  -1.282 127.260  0.00  0.00    +0.000 S 
ATOM      7  C   UNL     1      -7.959  -2.518 125.920  0.00  0.00    +0.000 C 
ATOM      8  C   UNL     1      -8.625  -3.708 126.617  0.00  0.00    +0.000 C 
ATOM      9  C   UNL     1      -6.608  -2.890 125.282  0.00  0.00    +0.000 C 
ATOM     10  CA  UNL     1      -8.940  -1.751 125.003  0.00  0.00    +0.000 C 
ATOM     11  N   UNL     1      -8.504  -0.338 125.018  0.00  0.00    +0.000 N 
ATOM     12  C   UNL     1      -9.383   0.668 125.342  0.00  0.00    +0.000 C 
ATOM     13  O   UNL     1     -10.559   0.807 125.068  0.00  0.00    +0.000 OA
ATOM     14  CA  UNL     1      -8.368   1.330 126.316  0.00  0.00    +0.000 C 
BRANCH  10  15
ATOM     15  C   UNL     1      -9.169  -2.247 123.553  0.00  0.00    +0.000 C 
ATOM     16  OXT UNL     1      -8.592  -1.760 122.588  0.00  0.00    +0.000 OA
BRANCH  15  17
ATOM     17  O   UNL     1     -10.059  -3.235 123.327  0.00  0.00    +0.000 OA
ATOM     18  H   UNL     1     -10.933  -3.046 122.956  0.00  0.00    +0.000 HD
ENDBRANCH  15  17
ENDBRANCH  10  15
ENDBRANCH   1  14
BRANCH   2  19
ATOM     19  C   UNL     1      -8.524   2.435 129.998  0.00  0.00    +0.000 A 
ATOM     20  C   UNL     1      -8.525   1.346 130.898  0.00  0.00    +0.000 A 
ATOM     21  C   UNL     1      -8.967   1.552 132.207  0.00  0.00    +0.000 A 
ATOM     22  C   UNL     1      -9.398   2.811 132.627  0.00  0.00    +0.000 A 
ATOM     23  C   UNL     1      -9.372   3.909 131.762  0.00  0.00    +0.000 A 
ATOM     24  C   UNL     1      -9.770   5.175 132.228  0.00  0.00    +0.000 A 
ATOM     25  C   UNL     1      -9.751   6.287 131.390  0.00  0.00    +0.000 A 
ATOM     26  C   UNL     1      -9.342   6.144 130.073  0.00  0.00    +0.000 A 
ATOM     27  C   UNL     1      -8.953   4.890 129.598  0.00  0.00    +0.000 A 
ATOM     28  C   UNL     1      -8.937   3.739 130.423  0.00  0.00    +0.000 A 
BRANCH  20  29
ATOM     29  O   UNL     1      -8.069   0.135 130.436  0.00  0.00    +0.000 OA
BRANCH  29  30
ATOM     30  C   UNL     1      -7.761  -0.864 131.411  0.00  0.00    +0.000 C 
ATOM     31  C   UNL     1      -7.696  -2.211 130.717  0.00  0.00    +0.000 C 
ENDBRANCH  29  30
ENDBRANCH  20  29
ENDBRANCH   2  19
TORSDOF 6
ENDMDL
MODEL 8
REMARK VINA RESULT:      -7.4      5.735      9.367
REMARK  Name = Nafcillin
REMARK  9 active torsions:
REMARK  status: ('A' for Active; 'I' for Inactive)
REMARK    1  A    between atoms: C_4  and  C_5
REMARK    2  A    between atoms: C_4  and  C_6
REMARK    3  A    between atoms: CA_7  and  C_28
REMARK    4  A    between atoms: CA_11  and  N_12
REMARK    5  A    between atoms: C_13  and  C_15
REMARK    6  A    between atoms: C_16  and  O_17
REMARK    7  A    between atoms: O_17  and  C_18
REMARK    8  A    between atoms: C_18  and  C_19
REMARK    9  A    between atoms: C_28  and  O_29
REMARK                            x       y       z     vdW  Elec       q    Type
REMARK                         _______ _______ _______ _____ _____    ______ ____
ROOT
ATOM      1  N   UNL     1      -7.326   0.787 130.763  0.00  0.00    +0.000 N 
ATOM      2  C   UNL     1      -6.576   0.090 129.836  0.00  0.00    +0.000 C 
ATOM      3  O   UNL     1      -5.504   0.520 129.422  0.00  0.00    +0.000 OA
ATOM      4  H   UNL     1      -8.249   0.439 131.005  0.00  0.00    +0.000 HD
ENDROOT
BRANCH   1  14
ATOM      5  C   UNL     1      -7.385   3.369 130.600  0.00  0.00    +0.000 C 
ATOM      6  S   UNL     1      -8.906   3.243 129.591  0.00  0.00    +0.000 S 
ATOM      7  C   UNL     1      -9.684   4.655 130.539  0.00  0.00    +0.000 C 
ATOM      8  C   UNL     1     -11.200   4.502 130.380  0.00  0.00    +0.000 C 
ATOM      9  C   UNL     1      -9.148   5.933 129.867  0.00  0.00    +0.000 C 
ATOM     10  CA  UNL     1      -9.220   4.422 131.996  0.00  0.00    +0.000 C 
ATOM     11  N   UNL     1      -7.860   3.850 131.911  0.00  0.00    +0.000 N 
ATOM     12  C   UNL     1      -7.552   2.667 132.542  0.00  0.00    +0.000 C 
ATOM     13  O   UNL     1      -7.903   2.236 133.623  0.00  0.00    +0.000 OA
ATOM     14  CA  UNL     1      -6.845   2.101 131.278  0.00  0.00    +0.000 C 
BRANCH  10  15
ATOM     15  C   UNL     1      -9.268   5.598 133.003  0.00  0.00    +0.000 C 
ATOM     16  OXT UNL     1      -8.361   5.827 133.796  0.00  0.00    +0.000 OA
BRANCH  15  17
ATOM     17  O   UNL     1     -10.357   6.392 133.041  0.00  0.00    +0.000 OA
ATOM     18  H   UNL     1     -10.322   7.272 133.444  0.00  0.00    +0.000 HD
ENDBRANCH  15  17
ENDBRANCH  10  15
ENDBRANCH   1  14
BRANCH   2  19
ATOM     19  C   UNL     1      -7.116  -1.218 129.350  0.00  0.00    +0.000 A 
ATOM     20  C   UNL     1      -7.065  -2.355 130.185  0.00  0.00    +0.000 A 
ATOM     21  C   UNL     1      -7.609  -3.557 129.724  0.00  0.00    +0.000 A 
ATOM     22  C   UNL     1      -8.198  -3.638 128.462  0.00  0.00    +0.000 A 
ATOM     23  C   UNL     1      -8.289  -2.514 127.635  0.00  0.00    +0.000 A 
ATOM     24  C   UNL     1      -8.930  -2.616 126.386  0.00  0.00    +0.000 A 
ATOM     25  C   UNL     1      -9.038  -1.514 125.542  0.00  0.00    +0.000 A 
ATOM     26  C   UNL     1      -8.500  -0.298 125.934  0.00  0.00    +0.000 A 
ATOM     27  C   UNL     1      -7.855  -0.187 127.167  0.00  0.00    +0.000 A 
ATOM     28  C   UNL     1      -7.742  -1.279 128.063  0.00  0.00    +0.000 A 
BRANCH  20  29
ATOM     29  O   UNL     1      -6.494  -2.212 131.427  0.00  0.00    +0.000 OA
BRANCH  29  30
ATOM     30  C   UNL     1      -6.767  -3.227 132.396  0.00  0.00    +0.000 C 
ATOM     31  C   UNL     1      -7.791  -2.694 133.378  0.00  0.00    +0.000 C 
ENDBRANCH  29  30
ENDBRANCH  20  29
ENDBRANCH   2  19
TORSDOF 6
ENDMDL
MODEL 9
REMARK VINA RESULT:      -7.4      5.175      8.727
REMARK  Name = Nafcillin
REMARK  9 active torsions:
REMARK  status: ('A' for Active; 'I' for Inactive)
REMARK    1  A    between atoms: C_4  and  C_5
REMARK    2  A    between atoms: C_4  and  C_6
REMARK    3  A    between atoms: CA_7  and  C_28
REMARK    4  A    between atoms: CA_11  and  N_12
REMARK    5  A    between atoms: C_13  and  C_15
REMARK    6  A    between atoms: C_16  and  O_17
REMARK    7  A    between atoms: O_17  and  C_18
REMARK    8  A    between atoms: C_18  and  C_19
REMARK    9  A    between atoms: C_28  and  O_29
REMARK                            x       y       z     vdW  Elec       q    Type
REMARK                         _______ _______ _______ _____ _____    ______ ____
ROOT
ATOM      1  N   UNL     1      -8.162   1.602 129.609  0.00  0.00    +0.000 N 
ATOM      2  C   UNL     1      -7.182   0.807 129.048  0.00  0.00    +0.000 C 
ATOM      3  O   UNL     1      -6.067   0.708 129.551  0.00  0.00    +0.000 OA
ATOM      4  H   UNL     1      -9.035   1.727 129.107  0.00  0.00    +0.000 HD
ENDROOT
BRANCH   1  14
ATOM      5  C   UNL     1      -7.596   3.880 130.701  0.00  0.00    +0.000 C 
ATOM      6  S   UNL     1      -8.108   4.715 129.157  0.00  0.00    +0.000 S 
ATOM      7  C   UNL     1      -9.016   6.026 130.135  0.00  0.00    +0.000 C 
ATOM      8  C   UNL     1     -10.072   6.616 129.196  0.00  0.00    +0.000 C 
ATOM      9  C   UNL     1      -7.938   7.053 130.528  0.00  0.00    +0.000 C 
ATOM     10  CA  UNL     1      -9.647   5.240 131.308  0.00  0.00    +0.000 C 
ATOM     11  N   UNL     1      -8.693   4.162 131.646  0.00  0.00    +0.000 N 
ATOM     12  C   UNL     1      -9.098   2.849 131.688  0.00  0.00    +0.000 C 
ATOM     13  O   UNL     1     -10.135   2.356 132.090  0.00  0.00    +0.000 OA
ATOM     14  CA  UNL     1      -7.876   2.377 130.851  0.00  0.00    +0.000 C 
BRANCH  10  15
ATOM     15  C   UNL     1     -10.096   6.004 132.579  0.00  0.00    +0.000 C 
ATOM     16  OXT UNL     1     -11.148   6.630 132.638  0.00  0.00    +0.000 OA
BRANCH  15  17
ATOM     17  O   UNL     1      -9.291   6.016 133.661  0.00  0.00    +0.000 OA
ATOM     18  H   UNL     1      -8.331   5.932 133.572  0.00  0.00    +0.000 HD
ENDBRANCH  15  17
ENDBRANCH  10  15
ENDBRANCH   1  14
BRANCH   2  19
ATOM     19  C   UNL     1      -7.527   0.063 127.797  0.00  0.00    +0.000 A 
ATOM     20  C   UNL     1      -7.392   0.695 126.541  0.00  0.00    +0.000 A 
ATOM     21  C   UNL     1      -7.684  -0.032 125.384  0.00  0.00    +0.000 A 
ATOM     22  C   UNL     1      -8.100  -1.362 125.460  0.00  0.00    +0.000 A 
ATOM     23  C   UNL     1      -8.207  -2.015 126.692  0.00  0.00    +0.000 A 
ATOM     24  C   UNL     1      -8.584  -3.370 126.734  0.00  0.00    +0.000 A 
ATOM     25  C   UNL     1      -8.696  -4.048 127.945  0.00  0.00    +0.000 A 
ATOM     26  C   UNL     1      -8.439  -3.375 129.130  0.00  0.00    +0.000 A 
ATOM     27  C   UNL     1      -8.071  -2.029 129.101  0.00  0.00    +0.000 A 
ATOM     28  C   UNL     1      -7.926  -1.310 127.889  0.00  0.00    +0.000 A 
BRANCH  20  29
ATOM     29  O   UNL     1      -6.957   1.998 126.524  0.00  0.00    +0.000 OA
BRANCH  29  30
ATOM     30  C   UNL     1      -5.979   2.351 125.544  0.00  0.00    +0.000 C 
ATOM     31  C   UNL     1      -4.832   3.058 126.239  0.00  0.00    +0.000 C 
ENDBRANCH  29  30
ENDBRANCH  20  29
ENDBRANCH   2  19
TORSDOF 6
ENDMDL
