MODEL 1
REMARK VINA RESULT:      -7.2      0.000      0.000
REMARK  Name = Naftazone
REMARK  1 active torsions:
REMARK  status: ('A' for Active; 'I' for Inactive)
REMARK    1  A    between atoms: N_4  and  N_5
REMARK                            x       y       z     vdW  Elec       q    Type
REMARK                         _______ _______ _______ _____ _____    ______ ____
ROOT
ATOM      1  N   UNL     1      -8.952   6.213 132.297  0.00  0.00    +0.000 NA
ATOM      2  C   UNL     1      -9.998   6.422 131.558  0.00  0.00    +0.000 C 
ATOM      3  C   UNL     1     -11.410   6.500 132.021  0.00  0.00    +0.000 C 
ATOM      4  C   UNL     1     -12.412   6.782 131.184  0.00  0.00    +0.000 C 
ATOM      5  C   UNL     1     -12.203   7.017 129.760  0.00  0.00    +0.000 A 
ATOM      6  C   UNL     1     -13.295   7.320 128.939  0.00  0.00    +0.000 A 
ATOM      7  C   UNL     1     -13.111   7.543 127.572  0.00  0.00    +0.000 A 
ATOM      8  C   UNL     1     -11.837   7.460 127.015  0.00  0.00    +0.000 A 
ATOM      9  C   UNL     1     -10.741   7.158 127.824  0.00  0.00    +0.000 A 
ATOM     10  C   UNL     1     -10.926   6.939 129.194  0.00  0.00    +0.000 A 
ATOM     11  C   UNL     1      -9.764   6.624 130.054  0.00  0.00    +0.000 C 
ATOM     12  O   UNL     1      -8.644   6.529 129.568  0.00  0.00    +0.000 OA
ENDROOT
BRANCH   1  16
ATOM     13  N   UNL     1      -8.232   5.566 135.726  0.00  0.00    +0.000 N 
ATOM     14  C   UNL     1      -7.963   5.744 134.403  0.00  0.00    +0.000 C 
ATOM     15  O   UNL     1      -6.809   5.653 134.004  0.00  0.00    +0.000 OA
ATOM     16  N   UNL     1      -9.076   6.025 133.646  0.00  0.00    +0.000 N 
ATOM     17  H   UNL     1      -7.431   5.353 136.306  0.00  0.00    +0.000 HD
ATOM     18  H   UNL     1      -9.142   5.610 136.149  0.00  0.00    +0.000 HD
ATOM     19  H   UNL     1      -9.973   6.065 134.097  0.00  0.00    +0.000 HD
ENDBRANCH   1  16
TORSDOF 1
ENDMDL
MODEL 2
REMARK VINA RESULT:      -7.0      1.670      2.357
REMARK  Name = Naftazone
REMARK  1 active torsions:
REMARK  status: ('A' for Active; 'I' for Inactive)
REMARK    1  A    between atoms: N_4  and  N_5
REMARK                            x       y       z     vdW  Elec       q    Type
REMARK                         _______ _______ _______ _____ _____    ______ ____
ROOT
ATOM      1  N   UNL     1     -10.195   6.017 133.022  0.00  0.00    +0.000 NA
ATOM      2  C   UNL     1     -10.240   6.502 131.820  0.00  0.00    +0.000 C 
ATOM      3  C   UNL     1      -9.077   6.842 130.956  0.00  0.00    +0.000 C 
ATOM      4  C   UNL     1      -9.233   7.280 129.703  0.00  0.00    +0.000 C 
ATOM      5  C   UNL     1     -10.546   7.473 129.097  0.00  0.00    +0.000 A 
ATOM      6  C   UNL     1     -10.640   7.924 127.775  0.00  0.00    +0.000 A 
ATOM      7  C   UNL     1     -11.890   8.117 127.182  0.00  0.00    +0.000 A 
ATOM      8  C   UNL     1     -13.054   7.867 127.906  0.00  0.00    +0.000 A 
ATOM      9  C   UNL     1     -12.972   7.419 129.224  0.00  0.00    +0.000 A 
ATOM     10  C   UNL     1     -11.718   7.221 129.816  0.00  0.00    +0.000 A 
ATOM     11  C   UNL     1     -11.631   6.740 131.213  0.00  0.00    +0.000 C 
ATOM     12  O   UNL     1     -12.649   6.538 131.862  0.00  0.00    +0.000 OA
ENDROOT
BRANCH   1  16
ATOM     13  N   UNL     1      -7.450   4.402 134.619  0.00  0.00    +0.000 N 
ATOM     14  C   UNL     1      -8.665   4.496 134.011  0.00  0.00    +0.000 C 
ATOM     15  O   UNL     1      -9.337   3.486 133.846  0.00  0.00    +0.000 OA
ATOM     16  N   UNL     1      -8.995   5.776 133.633  0.00  0.00    +0.000 N 
ATOM     17  H   UNL     1      -7.184   3.470 134.913  0.00  0.00    +0.000 HD
ATOM     18  H   UNL     1      -6.830   5.169 134.810  0.00  0.00    +0.000 HD
ATOM     19  H   UNL     1      -8.354   6.523 133.835  0.00  0.00    +0.000 HD
ENDBRANCH   1  16
TORSDOF 1
ENDMDL
MODEL 3
REMARK VINA RESULT:      -7.0      2.814      6.159
REMARK  Name = Naftazone
REMARK  1 active torsions:
REMARK  status: ('A' for Active; 'I' for Inactive)
REMARK    1  A    between atoms: N_4  and  N_5
REMARK                            x       y       z     vdW  Elec       q    Type
REMARK                         _______ _______ _______ _____ _____    ______ ____
ROOT
ATOM      1  N   UNL     1      -9.189   7.648 129.527  0.00  0.00    +0.000 NA
ATOM      2  C   UNL     1      -9.083   7.006 130.650  0.00  0.00    +0.000 C 
ATOM      3  C   UNL     1     -10.196   6.417 131.444  0.00  0.00    +0.000 C 
ATOM      4  C   UNL     1      -9.973   5.720 132.561  0.00  0.00    +0.000 C 
ATOM      5  C   UNL     1      -8.633   5.497 133.093  0.00  0.00    +0.000 A 
ATOM      6  C   UNL     1      -8.467   4.745 134.263  0.00  0.00    +0.000 A 
ATOM      7  C   UNL     1      -7.191   4.527 134.787  0.00  0.00    +0.000 A 
ATOM      8  C   UNL     1      -6.073   5.060 134.150  0.00  0.00    +0.000 A 
ATOM      9  C   UNL     1      -6.226   5.812 132.985  0.00  0.00    +0.000 A 
ATOM     10  C   UNL     1      -7.505   6.026 132.458  0.00  0.00    +0.000 A 
ATOM     11  C   UNL     1      -7.669   6.818 131.219  0.00  0.00    +0.000 C 
ATOM     12  O   UNL     1      -6.693   7.307 130.665  0.00  0.00    +0.000 OA
ENDROOT
BRANCH   1  16
ATOM     13  N   UNL     1     -11.942   7.612 127.266  0.00  0.00    +0.000 N 
ATOM     14  C   UNL     1     -10.694   7.314 127.723  0.00  0.00    +0.000 C 
ATOM     15  O   UNL     1      -9.952   6.616 127.042  0.00  0.00    +0.000 OA
ATOM     16  N   UNL     1     -10.413   7.856 128.955  0.00  0.00    +0.000 N 
ATOM     17  H   UNL     1     -12.173   7.229 126.358  0.00  0.00    +0.000 HD
ATOM     18  H   UNL     1     -12.619   8.182 127.741  0.00  0.00    +0.000 HD
ATOM     19  H   UNL     1     -11.111   8.420 129.408  0.00  0.00    +0.000 HD
ENDBRANCH   1  16
TORSDOF 1
ENDMDL
MODEL 4
REMARK VINA RESULT:      -6.7      3.328      6.244
REMARK  Name = Naftazone
REMARK  1 active torsions:
REMARK  status: ('A' for Active; 'I' for Inactive)
REMARK    1  A    between atoms: N_4  and  N_5
REMARK                            x       y       z     vdW  Elec       q    Type
REMARK                         _______ _______ _______ _____ _____    ______ ____
ROOT
ATOM      1  N   UNL     1     -11.896   5.382 129.429  0.00  0.00    +0.000 NA
ATOM      2  C   UNL     1     -11.129   5.295 130.471  0.00  0.00    +0.000 C 
ATOM      3  C   UNL     1     -11.006   6.294 131.568  0.00  0.00    +0.000 C 
ATOM      4  C   UNL     1     -10.228   6.080 132.633  0.00  0.00    +0.000 C 
ATOM      5  C   UNL     1      -9.434   4.867 132.794  0.00  0.00    +0.000 A 
ATOM      6  C   UNL     1      -8.649   4.698 133.941  0.00  0.00    +0.000 A 
ATOM      7  C   UNL     1      -7.880   3.544 134.108  0.00  0.00    +0.000 A 
ATOM      8  C   UNL     1      -7.885   2.553 133.129  0.00  0.00    +0.000 A 
ATOM      9  C   UNL     1      -8.663   2.710 131.981  0.00  0.00    +0.000 A 
ATOM     10  C   UNL     1      -9.437   3.866 131.818  0.00  0.00    +0.000 A 
ATOM     11  C   UNL     1     -10.266   4.031 130.604  0.00  0.00    +0.000 C 
ATOM     12  O   UNL     1     -10.260   3.174 129.729  0.00  0.00    +0.000 OA
ENDROOT
BRANCH   1  16
ATOM     13  N   UNL     1     -13.620   8.123 127.943  0.00  0.00    +0.000 N 
ATOM     14  C   UNL     1     -12.805   7.033 127.986  0.00  0.00    +0.000 C 
ATOM     15  O   UNL     1     -12.262   6.643 126.960  0.00  0.00    +0.000 OA
ATOM     16  N   UNL     1     -12.695   6.476 129.239  0.00  0.00    +0.000 N 
ATOM     17  H   UNL     1     -13.715   8.557 127.033  0.00  0.00    +0.000 HD
ATOM     18  H   UNL     1     -14.101   8.526 128.727  0.00  0.00    +0.000 HD
ATOM     19  H   UNL     1     -13.190   6.899 130.004  0.00  0.00    +0.000 HD
ENDBRANCH   1  16
TORSDOF 1
ENDMDL
MODEL 5
REMARK VINA RESULT:      -6.3      8.769     10.235
REMARK  Name = Naftazone
REMARK  1 active torsions:
REMARK  status: ('A' for Active; 'I' for Inactive)
REMARK    1  A    between atoms: N_4  and  N_5
REMARK                            x       y       z     vdW  Elec       q    Type
REMARK                         _______ _______ _______ _____ _____    ______ ____
ROOT
ATOM      1  N   UNL     1      -7.059   1.549 125.528  0.00  0.00    +0.000 NA
ATOM      2  C   UNL     1      -7.584   0.390 125.782  0.00  0.00    +0.000 C 
ATOM      3  C   UNL     1      -8.343  -0.468 124.833  0.00  0.00    +0.000 C 
ATOM      4  C   UNL     1      -8.791  -1.678 125.179  0.00  0.00    +0.000 C 
ATOM      5  C   UNL     1      -8.586  -2.240 126.509  0.00  0.00    +0.000 A 
ATOM      6  C   UNL     1      -9.071  -3.520 126.804  0.00  0.00    +0.000 A 
ATOM      7  C   UNL     1      -8.886  -4.070 128.075  0.00  0.00    +0.000 A 
ATOM      8  C   UNL     1      -8.221  -3.345 129.061  0.00  0.00    +0.000 A 
ATOM      9  C   UNL     1      -7.734  -2.068 128.779  0.00  0.00    +0.000 A 
ATOM     10  C   UNL     1      -7.916  -1.520 127.503  0.00  0.00    +0.000 A 
ATOM     11  C   UNL     1      -7.396  -0.168 127.201  0.00  0.00    +0.000 C 
ATOM     12  O   UNL     1      -6.828   0.484 128.068  0.00  0.00    +0.000 OA
ENDROOT
BRANCH   1  16
ATOM     13  N   UNL     1      -8.131   3.571 122.798  0.00  0.00    +0.000 N 
ATOM     14  C   UNL     1      -8.106   3.110 124.078  0.00  0.00    +0.000 C 
ATOM     15  O   UNL     1      -8.864   3.594 124.910  0.00  0.00    +0.000 OA
ATOM     16  N   UNL     1      -7.182   2.114 124.288  0.00  0.00    +0.000 N 
ATOM     17  H   UNL     1      -8.807   4.303 122.614  0.00  0.00    +0.000 HD
ATOM     18  H   UNL     1      -7.560   3.235 122.043  0.00  0.00    +0.000 HD
ATOM     19  H   UNL     1      -6.622   1.799 123.515  0.00  0.00    +0.000 HD
ENDBRANCH   1  16
TORSDOF 1
ENDMDL
MODEL 6
REMARK VINA RESULT:      -6.3     10.470     10.697
REMARK  Name = Naftazone
REMARK  1 active torsions:
REMARK  status: ('A' for Active; 'I' for Inactive)
REMARK    1  A    between atoms: N_4  and  N_5
REMARK                            x       y       z     vdW  Elec       q    Type
REMARK                         _______ _______ _______ _____ _____    ______ ____
ROOT
ATOM      1  N   UNL     1      -6.212  -2.240 128.993  0.00  0.00    +0.000 NA
ATOM      2  C   UNL     1      -6.976  -2.569 127.998  0.00  0.00    +0.000 C 
ATOM      3  C   UNL     1      -8.257  -3.323 128.074  0.00  0.00    +0.000 C 
ATOM      4  C   UNL     1      -9.002  -3.558 126.990  0.00  0.00    +0.000 C 
ATOM      5  C   UNL     1      -8.613  -3.111 125.658  0.00  0.00    +0.000 A 
ATOM      6  C   UNL     1      -9.446  -3.379 124.565  0.00  0.00    +0.000 A 
ATOM      7  C   UNL     1      -9.085  -2.960 123.282  0.00  0.00    +0.000 A 
ATOM      8  C   UNL     1      -7.889  -2.276 123.080  0.00  0.00    +0.000 A 
ATOM      9  C   UNL     1      -7.050  -2.004 124.162  0.00  0.00    +0.000 A 
ATOM     10  C   UNL     1      -7.415  -2.420 125.448  0.00  0.00    +0.000 A 
ATOM     11  C   UNL     1      -6.529  -2.127 126.596  0.00  0.00    +0.000 C 
ATOM     12  O   UNL     1      -5.467  -1.545 126.424  0.00  0.00    +0.000 OA
ENDROOT
BRANCH   1  16
ATOM     13  N   UNL     1      -6.334  -3.906 132.140  0.00  0.00    +0.000 N 
ATOM     14  C   UNL     1      -5.901  -3.653 130.874  0.00  0.00    +0.000 C 
ATOM     15  O   UNL     1      -5.015  -4.346 130.390  0.00  0.00    +0.000 OA
ATOM     16  N   UNL     1      -6.540  -2.595 130.273  0.00  0.00    +0.000 N 
ATOM     17  H   UNL     1      -5.884  -4.684 132.605  0.00  0.00    +0.000 HD
ATOM     18  H   UNL     1      -7.060  -3.404 132.622  0.00  0.00    +0.000 HD
ATOM     19  H   UNL     1      -7.260  -2.110 130.779  0.00  0.00    +0.000 HD
ENDBRANCH   1  16
TORSDOF 1
ENDMDL
MODEL 7
REMARK VINA RESULT:      -6.2      3.714      5.640
REMARK  Name = Naftazone
REMARK  1 active torsions:
REMARK  status: ('A' for Active; 'I' for Inactive)
REMARK    1  A    between atoms: N_4  and  N_5
REMARK                            x       y       z     vdW  Elec       q    Type
REMARK                         _______ _______ _______ _____ _____    ______ ____
ROOT
ATOM      1  N   UNL     1      -8.739   5.230 127.168  0.00  0.00    +0.000 NA
ATOM      2  C   UNL     1      -9.618   6.136 127.465  0.00  0.00    +0.000 C 
ATOM      3  C   UNL     1     -10.228   7.121 126.531  0.00  0.00    +0.000 C 
ATOM      4  C   UNL     1     -11.174   7.977 126.927  0.00  0.00    +0.000 C 
ATOM      5  C   UNL     1     -11.667   8.022 128.299  0.00  0.00    +0.000 A 
ATOM      6  C   UNL     1     -12.670   8.935 128.646  0.00  0.00    +0.000 A 
ATOM      7  C   UNL     1     -13.150   8.993 129.957  0.00  0.00    +0.000 A 
ATOM      8  C   UNL     1     -12.628   8.144 130.931  0.00  0.00    +0.000 A 
ATOM      9  C   UNL     1     -11.627   7.231 130.596  0.00  0.00    +0.000 A 
ATOM     10  C   UNL     1     -11.151   7.170 129.281  0.00  0.00    +0.000 A 
ATOM     11  C   UNL     1     -10.094   6.199 128.924  0.00  0.00    +0.000 C 
ATOM     12  O   UNL     1      -9.616   5.464 129.778  0.00  0.00    +0.000 OA
ENDROOT
BRANCH   1  16
ATOM     13  N   UNL     1      -7.757   3.902 124.011  0.00  0.00    +0.000 N 
ATOM     14  C   UNL     1      -8.269   3.881 125.273  0.00  0.00    +0.000 C 
ATOM     15  O   UNL     1      -8.682   2.826 125.739  0.00  0.00    +0.000 OA
ATOM     16  N   UNL     1      -8.265   5.109 125.891  0.00  0.00    +0.000 N 
ATOM     17  H   UNL     1      -7.743   3.009 123.534  0.00  0.00    +0.000 HD
ATOM     18  H   UNL     1      -7.385   4.709 123.543  0.00  0.00    +0.000 HD
ATOM     19  H   UNL     1      -7.889   5.900 125.397  0.00  0.00    +0.000 HD
ENDBRANCH   1  16
TORSDOF 1
ENDMDL
MODEL 8
REMARK VINA RESULT:      -6.1      9.474     10.390
REMARK  Name = Naftazone
REMARK  1 active torsions:
REMARK  status: ('A' for Active; 'I' for Inactive)
REMARK    1  A    between atoms: N_4  and  N_5
REMARK                            x       y       z     vdW  Elec       q    Type
REMARK                         _______ _______ _______ _____ _____    ______ ____
ROOT
ATOM      1  N   UNL     1      -5.372   1.372 125.736  0.00  0.00    +0.000 NA
ATOM      2  C   UNL     1      -5.884   0.199 125.519  0.00  0.00    +0.000 C 
ATOM      3  C   UNL     1      -5.473  -1.081 126.156  0.00  0.00    +0.000 C 
ATOM      4  C   UNL     1      -6.108  -2.229 125.907  0.00  0.00    +0.000 C 
ATOM      5  C   UNL     1      -7.235  -2.319 124.986  0.00  0.00    +0.000 A 
ATOM      6  C   UNL     1      -7.866  -3.551 124.779  0.00  0.00    +0.000 A 
ATOM      7  C   UNL     1      -8.944  -3.654 123.896  0.00  0.00    +0.000 A 
ATOM      8  C   UNL     1      -9.397  -2.528 123.212  0.00  0.00    +0.000 A 
ATOM      9  C   UNL     1      -8.776  -1.295 123.410  0.00  0.00    +0.000 A 
ATOM     10  C   UNL     1      -7.698  -1.192 124.298  0.00  0.00    +0.000 A 
ATOM     11  C   UNL     1      -7.042   0.116 124.513  0.00  0.00    +0.000 C 
ATOM     12  O   UNL     1      -7.421   1.106 123.899  0.00  0.00    +0.000 OA
ENDROOT
BRANCH   1  16
ATOM     13  N   UNL     1      -2.617   2.721 127.546  0.00  0.00    +0.000 N 
ATOM     14  C   UNL     1      -3.624   2.704 126.631  0.00  0.00    +0.000 C 
ATOM     15  O   UNL     1      -3.816   3.687 125.926  0.00  0.00    +0.000 OA
ATOM     16  N   UNL     1      -4.339   1.530 126.618  0.00  0.00    +0.000 N 
ATOM     17  H   UNL     1      -2.070   3.573 127.574  0.00  0.00    +0.000 HD
ATOM     18  H   UNL     1      -2.372   1.965 128.162  0.00  0.00    +0.000 HD
ATOM     19  H   UNL     1      -4.073   0.792 127.247  0.00  0.00    +0.000 HD
ENDBRANCH   1  16
TORSDOF 1
ENDMDL
MODEL 9
REMARK VINA RESULT:      -6.1      4.360      7.468
REMARK  Name = Naftazone
REMARK  1 active torsions:
REMARK  status: ('A' for Active; 'I' for Inactive)
REMARK    1  A    between atoms: N_4  and  N_5
REMARK                            x       y       z     vdW  Elec       q    Type
REMARK                         _______ _______ _______ _____ _____    ______ ____
ROOT
ATOM      1  N   UNL     1      -7.334   7.234 130.617  0.00  0.00    +0.000 NA
ATOM      2  C   UNL     1      -6.314   6.794 131.286  0.00  0.00    +0.000 C 
ATOM      3  C   UNL     1      -6.352   5.930 132.497  0.00  0.00    +0.000 C 
ATOM      4  C   UNL     1      -5.237   5.479 133.079  0.00  0.00    +0.000 C 
ATOM      5  C   UNL     1      -3.905   5.811 132.585  0.00  0.00    +0.000 A 
ATOM      6  C   UNL     1      -2.777   5.296 133.233  0.00  0.00    +0.000 A 
ATOM      7  C   UNL     1      -1.494   5.608 132.774  0.00  0.00    +0.000 A 
ATOM      8  C   UNL     1      -1.331   6.439 131.668  0.00  0.00    +0.000 A 
ATOM      9  C   UNL     1      -2.448   6.959 131.015  0.00  0.00    +0.000 A 
ATOM     10  C   UNL     1      -3.733   6.642 131.473  0.00  0.00    +0.000 A 
ATOM     11  C   UNL     1      -4.919   7.188 130.778  0.00  0.00    +0.000 C 
ATOM     12  O   UNL     1      -4.783   7.936 129.818  0.00  0.00    +0.000 OA
ENDROOT
BRANCH   1  16
ATOM     13  N   UNL     1     -10.878   6.875 130.692  0.00  0.00    +0.000 N 
ATOM     14  C   UNL     1      -9.666   7.222 130.177  0.00  0.00    +0.000 C 
ATOM     15  O   UNL     1      -9.607   7.739 129.068  0.00  0.00    +0.000 OA
ATOM     16  N   UNL     1      -8.609   6.926 131.005  0.00  0.00    +0.000 N 
ATOM     17  H   UNL     1     -11.675   7.086 130.105  0.00  0.00    +0.000 HD
ATOM     18  H   UNL     1     -11.033   6.458 131.593  0.00  0.00    +0.000 HD
ATOM     19  H   UNL     1      -8.794   6.506 131.898  0.00  0.00    +0.000 HD
ENDBRANCH   1  16
TORSDOF 1
ENDMDL
