MODEL 1
REMARK VINA RESULT:      -8.6      0.000      0.000
REMARK  Name = Naftifine
REMARK  6 active torsions:
REMARK  status: ('A' for Active; 'I' for Inactive)
REMARK    1  A    between atoms: C_1  and  N_2
REMARK    2  A    between atoms: N_2  and  C_3
REMARK    3  A    between atoms: N_2  and  C_12
REMARK    4  A    between atoms: C_3  and  C_4
REMARK    5  A    between atoms: C_5  and  C_6
REMARK    6  A    between atoms: C_12  and  C_13
REMARK                            x       y       z     vdW  Elec       q    Type
REMARK                         _______ _______ _______ _____ _____    ______ ____
ROOT
ATOM      1  C   UNL     1      -9.996   1.366 123.345  0.00  0.00    +0.000 C 
ATOM      2  N   UNL     1      -8.727   1.039 123.996  0.00  0.00    +0.000 NA
ENDROOT
BRANCH   2   3
ATOM      3  C   UNL     1      -7.968   2.260 124.313  0.00  0.00    +0.000 C 
BRANCH   3   4
ATOM      4  C   UNL     1      -7.795   3.071 123.076  0.00  0.00    +0.000 C 
ATOM      5  C   UNL     1      -6.810   2.873 122.195  0.00  0.00    +0.000 C 
BRANCH   5   6
ATOM      6  C   UNL     1      -6.603   3.797 121.085  0.00  0.00    +0.000 A 
ATOM      7  C   UNL     1      -7.557   3.889 120.074  0.00  0.00    +0.000 A 
ATOM      8  C   UNL     1      -7.291   4.654 118.939  0.00  0.00    +0.000 A 
ATOM      9  C   UNL     1      -6.090   5.358 118.832  0.00  0.00    +0.000 A 
ATOM     10  C   UNL     1      -5.146   5.294 119.853  0.00  0.00    +0.000 A 
ATOM     11  C   UNL     1      -5.397   4.506 120.971  0.00  0.00    +0.000 A 
ENDBRANCH   5   6
ENDBRANCH   3   4
ENDBRANCH   2   3
BRANCH   2  12
ATOM     12  C   UNL     1      -8.943   0.234 125.196  0.00  0.00    +0.000 C 
BRANCH  12  13
ATOM     13  C   UNL     1      -8.677  -1.264 125.032  0.00  0.00    +0.000 A 
ATOM     14  C   UNL     1      -9.389  -2.059 125.970  0.00  0.00    +0.000 A 
ATOM     15  C   UNL     1      -9.094  -3.405 126.129  0.00  0.00    +0.000 A 
ATOM     16  C   UNL     1      -8.060  -3.945 125.388  0.00  0.00    +0.000 A 
ATOM     17  C   UNL     1      -7.318  -3.183 124.484  0.00  0.00    +0.000 A 
ATOM     18  C   UNL     1      -6.147  -3.717 123.962  0.00  0.00    +0.000 A 
ATOM     19  C   UNL     1      -5.240  -2.912 123.312  0.00  0.00    +0.000 A 
ATOM     20  C   UNL     1      -5.843  -2.023 122.462  0.00  0.00    +0.000 A 
ATOM     21  C   UNL     1      -6.930  -1.332 123.005  0.00  0.00    +0.000 A 
ATOM     22  C   UNL     1      -7.673  -1.850 124.150  0.00  0.00    +0.000 A 
ENDBRANCH  12  13
ENDBRANCH   2  12
TORSDOF 5
ENDMDL
MODEL 2
REMARK VINA RESULT:      -8.6      1.422      2.840
REMARK  Name = Naftifine
REMARK  6 active torsions:
REMARK  status: ('A' for Active; 'I' for Inactive)
REMARK    1  A    between atoms: C_1  and  N_2
REMARK    2  A    between atoms: N_2  and  C_3
REMARK    3  A    between atoms: N_2  and  C_12
REMARK    4  A    between atoms: C_3  and  C_4
REMARK    5  A    between atoms: C_5  and  C_6
REMARK    6  A    between atoms: C_12  and  C_13
REMARK                            x       y       z     vdW  Elec       q    Type
REMARK                         _______ _______ _______ _____ _____    ______ ____
ROOT
ATOM      1  C   UNL     1     -10.045   1.477 123.390  0.00  0.00    +0.000 C 
ATOM      2  N   UNL     1      -8.784   0.982 123.945  0.00  0.00    +0.000 NA
ENDROOT
BRANCH   2   3
ATOM      3  C   UNL     1      -7.786   2.061 124.029  0.00  0.00    +0.000 C 
BRANCH   3   4
ATOM      4  C   UNL     1      -7.598   2.667 122.681  0.00  0.00    +0.000 C 
ATOM      5  C   UNL     1      -6.428   3.138 122.242  0.00  0.00    +0.000 C 
BRANCH   5   6
ATOM      6  C   UNL     1      -6.340   3.860 120.977  0.00  0.00    +0.000 A 
ATOM      7  C   UNL     1      -5.230   4.659 120.711  0.00  0.00    +0.000 A 
ATOM      8  C   UNL     1      -5.214   5.467 119.575  0.00  0.00    +0.000 A 
ATOM      9  C   UNL     1      -6.290   5.446 118.684  0.00  0.00    +0.000 A 
ATOM     10  C   UNL     1      -7.387   4.625 118.928  0.00  0.00    +0.000 A 
ATOM     11  C   UNL     1      -7.418   3.844 120.077  0.00  0.00    +0.000 A 
ENDBRANCH   5   6
ENDBRANCH   3   4
ENDBRANCH   2   3
BRANCH   2  12
ATOM     12  C   UNL     1      -8.993   0.363 125.252  0.00  0.00    +0.000 C 
BRANCH  12  13
ATOM     13  C   UNL     1      -8.637  -1.123 125.332  0.00  0.00    +0.000 A 
ATOM     14  C   UNL     1      -8.827  -1.807 124.102  0.00  0.00    +0.000 A 
ATOM     15  C   UNL     1      -8.785  -3.192 124.044  0.00  0.00    +0.000 A 
ATOM     16  C   UNL     1      -8.601  -3.895 125.219  0.00  0.00    +0.000 A 
ATOM     17  C   UNL     1      -8.447  -3.255 126.450  0.00  0.00    +0.000 A 
ATOM     18  C   UNL     1      -8.515  -4.014 127.612  0.00  0.00    +0.000 A 
ATOM     19  C   UNL     1      -8.664  -3.406 128.837  0.00  0.00    +0.000 A 
ATOM     20  C   UNL     1      -7.870  -2.297 128.973  0.00  0.00    +0.000 A 
ATOM     21  C   UNL     1      -7.902  -1.413 127.891  0.00  0.00    +0.000 A 
ATOM     22  C   UNL     1      -8.311  -1.846 126.557  0.00  0.00    +0.000 A 
ENDBRANCH  12  13
ENDBRANCH   2  12
TORSDOF 5
ENDMDL
MODEL 3
REMARK VINA RESULT:      -8.2      2.113      6.625
REMARK  Name = Naftifine
REMARK  6 active torsions:
REMARK  status: ('A' for Active; 'I' for Inactive)
REMARK    1  A    between atoms: C_1  and  N_2
REMARK    2  A    between atoms: N_2  and  C_3
REMARK    3  A    between atoms: N_2  and  C_12
REMARK    4  A    between atoms: C_3  and  C_4
REMARK    5  A    between atoms: C_5  and  C_6
REMARK    6  A    between atoms: C_12  and  C_13
REMARK                            x       y       z     vdW  Elec       q    Type
REMARK                         _______ _______ _______ _____ _____    ______ ____
ROOT
ATOM      1  C   UNL     1      -4.033   3.080 126.319  0.00  0.00    +0.000 C 
ATOM      2  N   UNL     1      -5.131   2.192 125.935  0.00  0.00    +0.000 NA
ENDROOT
BRANCH   2   3
ATOM      3  C   UNL     1      -5.142   0.978 126.768  0.00  0.00    +0.000 C 
BRANCH   3   4
ATOM      4  C   UNL     1      -6.150   0.021 126.236  0.00  0.00    +0.000 C 
ATOM      5  C   UNL     1      -6.031  -0.597 125.057  0.00  0.00    +0.000 C 
BRANCH   5   6
ATOM      6  C   UNL     1      -7.123  -1.403 124.521  0.00  0.00    +0.000 A 
ATOM      7  C   UNL     1      -7.523  -2.558 125.189  0.00  0.00    +0.000 A 
ATOM      8  C   UNL     1      -8.458  -3.409 124.602  0.00  0.00    +0.000 A 
ATOM      9  C   UNL     1      -9.022  -3.086 123.366  0.00  0.00    +0.000 A 
ATOM     10  C   UNL     1      -8.649  -1.917 122.708  0.00  0.00    +0.000 A 
ATOM     11  C   UNL     1      -7.693  -1.085 123.279  0.00  0.00    +0.000 A 
ENDBRANCH   5   6
ENDBRANCH   3   4
ENDBRANCH   2   3
BRANCH   2  12
ATOM     12  C   UNL     1      -6.416   2.884 126.006  0.00  0.00    +0.000 C 
BRANCH  12  13
ATOM     13  C   UNL     1      -7.130   3.069 124.665  0.00  0.00    +0.000 A 
ATOM     14  C   UNL     1      -8.425   2.486 124.642  0.00  0.00    +0.000 A 
ATOM     15  C   UNL     1      -9.120   2.347 123.450  0.00  0.00    +0.000 A 
ATOM     16  C   UNL     1      -8.506   2.745 122.278  0.00  0.00    +0.000 A 
ATOM     17  C   UNL     1      -7.221   3.289 122.263  0.00  0.00    +0.000 A 
ATOM     18  C   UNL     1      -6.571   3.436 121.043  0.00  0.00    +0.000 A 
ATOM     19  C   UNL     1      -5.218   3.684 120.996  0.00  0.00    +0.000 A 
ATOM     20  C   UNL     1      -4.823   4.611 121.924  0.00  0.00    +0.000 A 
ATOM     21  C   UNL     1      -5.319   4.405 123.214  0.00  0.00    +0.000 A 
ATOM     22  C   UNL     1      -6.523   3.614 123.455  0.00  0.00    +0.000 A 
ENDBRANCH  12  13
ENDBRANCH   2  12
TORSDOF 5
ENDMDL
MODEL 4
REMARK VINA RESULT:      -8.1      2.885      6.727
REMARK  Name = Naftifine
REMARK  6 active torsions:
REMARK  status: ('A' for Active; 'I' for Inactive)
REMARK    1  A    between atoms: C_1  and  N_2
REMARK    2  A    between atoms: N_2  and  C_3
REMARK    3  A    between atoms: N_2  and  C_12
REMARK    4  A    between atoms: C_3  and  C_4
REMARK    5  A    between atoms: C_5  and  C_6
REMARK    6  A    between atoms: C_12  and  C_13
REMARK                            x       y       z     vdW  Elec       q    Type
REMARK                         _______ _______ _______ _____ _____    ______ ____
ROOT
ATOM      1  C   UNL     1      -5.433   2.547 125.842  0.00  0.00    +0.000 C 
ATOM      2  N   UNL     1      -6.604   1.770 125.436  0.00  0.00    +0.000 NA
ENDROOT
BRANCH   2   3
ATOM      3  C   UNL     1      -7.711   1.950 126.389  0.00  0.00    +0.000 C 
BRANCH   3   4
ATOM      4  C   UNL     1      -8.161   0.619 126.883  0.00  0.00    +0.000 C 
ATOM      5  C   UNL     1      -7.335  -0.291 127.407  0.00  0.00    +0.000 C 
BRANCH   5   6
ATOM      6  C   UNL     1      -7.808  -1.633 127.730  0.00  0.00    +0.000 A 
ATOM      7  C   UNL     1      -8.523  -2.362 126.782  0.00  0.00    +0.000 A 
ATOM      8  C   UNL     1      -9.106  -3.577 127.138  0.00  0.00    +0.000 A 
ATOM      9  C   UNL     1      -8.942  -4.083 128.429  0.00  0.00    +0.000 A 
ATOM     10  C   UNL     1      -8.202  -3.374 129.371  0.00  0.00    +0.000 A 
ATOM     11  C   UNL     1      -7.648  -2.147 129.027  0.00  0.00    +0.000 A 
ENDBRANCH   5   6
ENDBRANCH   3   4
ENDBRANCH   2   3
BRANCH   2  12
ATOM     12  C   UNL     1      -7.022   2.119 124.080  0.00  0.00    +0.000 C 
BRANCH  12  13
ATOM     13  C   UNL     1      -7.906   1.082 123.383  0.00  0.00    +0.000 A 
ATOM     14  C   UNL     1      -9.177   1.596 123.013  0.00  0.00    +0.000 A 
ATOM     15  C   UNL     1     -10.190   0.749 122.591  0.00  0.00    +0.000 A 
ATOM     16  C   UNL     1      -9.951  -0.611 122.582  0.00  0.00    +0.000 A 
ATOM     17  C   UNL     1      -8.725  -1.151 122.973  0.00  0.00    +0.000 A 
ATOM     18  C   UNL     1      -8.633  -2.523 123.177  0.00  0.00    +0.000 A 
ATOM     19  C   UNL     1      -7.551  -3.061 123.837  0.00  0.00    +0.000 A 
ATOM     20  C   UNL     1      -6.364  -2.501 123.442  0.00  0.00    +0.000 A 
ATOM     21  C   UNL     1      -6.360  -1.104 123.387  0.00  0.00    +0.000 A 
ATOM     22  C   UNL     1      -7.596  -0.338 123.254  0.00  0.00    +0.000 A 
ENDBRANCH  12  13
ENDBRANCH   2  12
TORSDOF 5
ENDMDL
MODEL 5
REMARK VINA RESULT:      -8.0      3.722      6.817
REMARK  Name = Naftifine
REMARK  6 active torsions:
REMARK  status: ('A' for Active; 'I' for Inactive)
REMARK    1  A    between atoms: C_1  and  N_2
REMARK    2  A    between atoms: N_2  and  C_3
REMARK    3  A    between atoms: N_2  and  C_12
REMARK    4  A    between atoms: C_3  and  C_4
REMARK    5  A    between atoms: C_5  and  C_6
REMARK    6  A    between atoms: C_12  and  C_13
REMARK                            x       y       z     vdW  Elec       q    Type
REMARK                         _______ _______ _______ _____ _____    ______ ____
ROOT
ATOM      1  C   UNL     1      -8.631   1.063 126.839  0.00  0.00    +0.000 C 
ATOM      2  N   UNL     1      -7.859   1.158 125.599  0.00  0.00    +0.000 NA
ENDROOT
BRANCH   2   3
ATOM      3  C   UNL     1      -6.492   0.647 125.791  0.00  0.00    +0.000 C 
BRANCH   3   4
ATOM      4  C   UNL     1      -6.455  -0.232 126.993  0.00  0.00    +0.000 C 
ATOM      5  C   UNL     1      -5.631  -1.276 127.119  0.00  0.00    +0.000 C 
BRANCH   5   6
ATOM      6  C   UNL     1      -5.749  -2.189 128.251  0.00  0.00    +0.000 A 
ATOM      7  C   UNL     1      -4.605  -2.776 128.789  0.00  0.00    +0.000 A 
ATOM      8  C   UNL     1      -4.727  -3.763 129.766  0.00  0.00    +0.000 A 
ATOM      9  C   UNL     1      -5.990  -4.136 130.233  0.00  0.00    +0.000 A 
ATOM     10  C   UNL     1      -7.134  -3.531 129.722  0.00  0.00    +0.000 A 
ATOM     11  C   UNL     1      -7.015  -2.570 128.724  0.00  0.00    +0.000 A 
ENDBRANCH   5   6
ENDBRANCH   3   4
ENDBRANCH   2   3
BRANCH   2  12
ATOM     12  C   UNL     1      -8.529   0.457 124.507  0.00  0.00    +0.000 C 
BRANCH  12  13
ATOM     13  C   UNL     1      -8.452  -1.071 124.569  0.00  0.00    +0.000 A 
ATOM     14  C   UNL     1      -9.410  -1.640 125.450  0.00  0.00    +0.000 A 
ATOM     15  C   UNL     1      -9.336  -2.975 125.814  0.00  0.00    +0.000 A 
ATOM     16  C   UNL     1      -8.282  -3.731 125.338  0.00  0.00    +0.000 A 
ATOM     17  C   UNL     1      -7.304  -3.193 124.500  0.00  0.00    +0.000 A 
ATOM     18  C   UNL     1      -6.149  -3.929 124.262  0.00  0.00    +0.000 A 
ATOM     19  C   UNL     1      -5.045  -3.334 123.695  0.00  0.00    +0.000 A 
ATOM     20  C   UNL     1      -5.371  -2.506 122.654  0.00  0.00    +0.000 A 
ATOM     21  C   UNL     1      -6.425  -1.623 122.909  0.00  0.00    +0.000 A 
ATOM     22  C   UNL     1      -7.410  -1.887 123.955  0.00  0.00    +0.000 A 
ENDBRANCH  12  13
ENDBRANCH   2  12
TORSDOF 5
ENDMDL
MODEL 6
REMARK VINA RESULT:      -8.0      1.203      1.524
REMARK  Name = Naftifine
REMARK  6 active torsions:
REMARK  status: ('A' for Active; 'I' for Inactive)
REMARK    1  A    between atoms: C_1  and  N_2
REMARK    2  A    between atoms: N_2  and  C_3
REMARK    3  A    between atoms: N_2  and  C_12
REMARK    4  A    between atoms: C_3  and  C_4
REMARK    5  A    between atoms: C_5  and  C_6
REMARK    6  A    between atoms: C_12  and  C_13
REMARK                            x       y       z     vdW  Elec       q    Type
REMARK                         _______ _______ _______ _____ _____    ______ ____
ROOT
ATOM      1  C   UNL     1      -8.077   3.811 125.433  0.00  0.00    +0.000 C 
ATOM      2  N   UNL     1      -8.388   2.392 125.258  0.00  0.00    +0.000 NA
ENDROOT
BRANCH   2   3
ATOM      3  C   UNL     1      -8.862   2.122 123.891  0.00  0.00    +0.000 C 
BRANCH   3   4
ATOM      4  C   UNL     1      -8.106   2.970 122.928  0.00  0.00    +0.000 C 
ATOM      5  C   UNL     1      -8.495   3.182 121.668  0.00  0.00    +0.000 C 
BRANCH   5   6
ATOM      6  C   UNL     1      -7.635   3.893 120.729  0.00  0.00    +0.000 A 
ATOM      7  C   UNL     1      -8.112   4.213 119.459  0.00  0.00    +0.000 A 
ATOM      8  C   UNL     1      -7.245   4.754 118.510  0.00  0.00    +0.000 A 
ATOM      9  C   UNL     1      -5.913   5.012 118.841  0.00  0.00    +0.000 A 
ATOM     10  C   UNL     1      -5.440   4.724 120.118  0.00  0.00    +0.000 A 
ATOM     11  C   UNL     1      -6.295   4.154 121.055  0.00  0.00    +0.000 A 
ENDBRANCH   5   6
ENDBRANCH   3   4
ENDBRANCH   2   3
BRANCH   2  12
ATOM     12  C   UNL     1      -7.234   1.557 125.584  0.00  0.00    +0.000 C 
BRANCH  12  13
ATOM     13  C   UNL     1      -7.515   0.054 125.649  0.00  0.00    +0.000 A 
ATOM     14  C   UNL     1      -8.050  -0.356 126.900  0.00  0.00    +0.000 A 
ATOM     15  C   UNL     1      -8.144  -1.701 127.225  0.00  0.00    +0.000 A 
ATOM     16  C   UNL     1      -7.663  -2.632 126.326  0.00  0.00    +0.000 A 
ATOM     17  C   UNL     1      -7.099  -2.261 125.104  0.00  0.00    +0.000 A 
ATOM     18  C   UNL     1      -6.415  -3.218 124.365  0.00  0.00    +0.000 A 
ATOM     19  C   UNL     1      -5.602  -2.844 123.319  0.00  0.00    +0.000 A 
ATOM     20  C   UNL     1      -6.166  -1.872 122.537  0.00  0.00    +0.000 A 
ATOM     21  C   UNL     1      -6.721  -0.797 123.238  0.00  0.00    +0.000 A 
ATOM     22  C   UNL     1      -7.125  -0.921 124.637  0.00  0.00    +0.000 A 
ENDBRANCH  12  13
ENDBRANCH   2  12
TORSDOF 5
ENDMDL
MODEL 7
REMARK VINA RESULT:      -8.0      1.960      2.731
REMARK  Name = Naftifine
REMARK  6 active torsions:
REMARK  status: ('A' for Active; 'I' for Inactive)
REMARK    1  A    between atoms: C_1  and  N_2
REMARK    2  A    between atoms: N_2  and  C_3
REMARK    3  A    between atoms: N_2  and  C_12
REMARK    4  A    between atoms: C_3  and  C_4
REMARK    5  A    between atoms: C_5  and  C_6
REMARK    6  A    between atoms: C_12  and  C_13
REMARK                            x       y       z     vdW  Elec       q    Type
REMARK                         _______ _______ _______ _____ _____    ______ ____
ROOT
ATOM      1  C   UNL     1      -7.454   1.761 127.811  0.00  0.00    +0.000 C 
ATOM      2  N   UNL     1      -7.008   1.359 126.477  0.00  0.00    +0.000 NA
ENDROOT
BRANCH   2   3
ATOM      3  C   UNL     1      -6.021   2.311 125.943  0.00  0.00    +0.000 C 
BRANCH   3   4
ATOM      4  C   UNL     1      -6.516   2.867 124.652  0.00  0.00    +0.000 C 
ATOM      5  C   UNL     1      -6.706   2.128 123.556  0.00  0.00    +0.000 C 
BRANCH   5   6
ATOM      6  C   UNL     1      -7.044   2.753 122.282  0.00  0.00    +0.000 A 
ATOM      7  C   UNL     1      -6.028   3.165 121.422  0.00  0.00    +0.000 A 
ATOM      8  C   UNL     1      -6.342   3.898 120.278  0.00  0.00    +0.000 A 
ATOM      9  C   UNL     1      -7.675   4.187 119.974  0.00  0.00    +0.000 A 
ATOM     10  C   UNL     1      -8.696   3.751 120.813  0.00  0.00    +0.000 A 
ATOM     11  C   UNL     1      -8.380   3.047 121.970  0.00  0.00    +0.000 A 
ENDBRANCH   5   6
ENDBRANCH   3   4
ENDBRANCH   2   3
BRANCH   2  12
ATOM     12  C   UNL     1      -6.468   0.002 126.490  0.00  0.00    +0.000 C 
BRANCH  12  13
ATOM     13  C   UNL     1      -7.514  -1.115 126.503  0.00  0.00    +0.000 A 
ATOM     14  C   UNL     1      -7.517  -1.858 127.714  0.00  0.00    +0.000 A 
ATOM     15  C   UNL     1      -8.225  -3.046 127.817  0.00  0.00    +0.000 A 
ATOM     16  C   UNL     1      -8.888  -3.517 126.700  0.00  0.00    +0.000 A 
ATOM     17  C   UNL     1      -8.875  -2.830 125.485  0.00  0.00    +0.000 A 
ATOM     18  C   UNL     1      -9.348  -3.473 124.348  0.00  0.00    +0.000 A 
ATOM     19  C   UNL     1      -9.088  -2.962 123.096  0.00  0.00    +0.000 A 
ATOM     20  C   UNL     1      -9.246  -1.603 123.042  0.00  0.00    +0.000 A 
ATOM     21  C   UNL     1      -8.638  -0.895 124.083  0.00  0.00    +0.000 A 
ATOM     22  C   UNL     1      -8.316  -1.531 125.357  0.00  0.00    +0.000 A 
ENDBRANCH  12  13
ENDBRANCH   2  12
TORSDOF 5
ENDMDL
MODEL 8
REMARK VINA RESULT:      -7.7      2.648      3.812
REMARK  Name = Naftifine
REMARK  6 active torsions:
REMARK  status: ('A' for Active; 'I' for Inactive)
REMARK    1  A    between atoms: C_1  and  N_2
REMARK    2  A    between atoms: N_2  and  C_3
REMARK    3  A    between atoms: N_2  and  C_12
REMARK    4  A    between atoms: C_3  and  C_4
REMARK    5  A    between atoms: C_5  and  C_6
REMARK    6  A    between atoms: C_12  and  C_13
REMARK                            x       y       z     vdW  Elec       q    Type
REMARK                         _______ _______ _______ _____ _____    ______ ____
ROOT
ATOM      1  C   UNL     1      -7.227  -0.807 123.718  0.00  0.00    +0.000 C 
ATOM      2  N   UNL     1      -7.159  -0.290 125.086  0.00  0.00    +0.000 NA
ENDROOT
BRANCH   2   3
ATOM      3  C   UNL     1      -6.929   1.164 125.087  0.00  0.00    +0.000 C 
BRANCH   3   4
ATOM      4  C   UNL     1      -7.198   1.710 123.728  0.00  0.00    +0.000 C 
ATOM      5  C   UNL     1      -6.686   2.860 123.280  0.00  0.00    +0.000 C 
BRANCH   5   6
ATOM      6  C   UNL     1      -7.109   3.418 122.000  0.00  0.00    +0.000 A 
ATOM      7  C   UNL     1      -8.460   3.428 121.661  0.00  0.00    +0.000 A 
ATOM      8  C   UNL     1      -8.851   3.818 120.381  0.00  0.00    +0.000 A 
ATOM      9  C   UNL     1      -7.895   4.236 119.452  0.00  0.00    +0.000 A 
ATOM     10  C   UNL     1      -6.546   4.258 119.796  0.00  0.00    +0.000 A 
ATOM     11  C   UNL     1      -6.153   3.838 121.061  0.00  0.00    +0.000 A 
ENDBRANCH   5   6
ENDBRANCH   3   4
ENDBRANCH   2   3
BRANCH   2  12
ATOM     12  C   UNL     1      -8.365  -0.627 125.836  0.00  0.00    +0.000 C 
BRANCH  12  13
ATOM     13  C   UNL     1      -8.176  -1.675 126.936  0.00  0.00    +0.000 A 
ATOM     14  C   UNL     1      -8.797  -2.916 126.632  0.00  0.00    +0.000 A 
ATOM     15  C   UNL     1      -8.935  -3.898 127.601  0.00  0.00    +0.000 A 
ATOM     16  C   UNL     1      -8.497  -3.625 128.883  0.00  0.00    +0.000 A 
ATOM     17  C   UNL     1      -7.915  -2.403 129.223  0.00  0.00    +0.000 A 
ATOM     18  C   UNL     1      -7.727  -2.103 130.567  0.00  0.00    +0.000 A 
ATOM     19  C   UNL     1      -7.438  -0.816 130.962  0.00  0.00    +0.000 A 
ATOM     20  C   UNL     1      -6.517  -0.212 130.149  0.00  0.00    +0.000 A 
ATOM     21  C   UNL     1      -6.761  -0.344 128.778  0.00  0.00    +0.000 A 
ATOM     22  C   UNL     1      -7.591  -1.423 128.249  0.00  0.00    +0.000 A 
ENDBRANCH  12  13
ENDBRANCH   2  12
TORSDOF 5
ENDMDL
MODEL 9
REMARK VINA RESULT:      -7.7      2.085      3.600
REMARK  Name = Naftifine
REMARK  6 active torsions:
REMARK  status: ('A' for Active; 'I' for Inactive)
REMARK    1  A    between atoms: C_1  and  N_2
REMARK    2  A    between atoms: N_2  and  C_3
REMARK    3  A    between atoms: N_2  and  C_12
REMARK    4  A    between atoms: C_3  and  C_4
REMARK    5  A    between atoms: C_5  and  C_6
REMARK    6  A    between atoms: C_12  and  C_13
REMARK                            x       y       z     vdW  Elec       q    Type
REMARK                         _______ _______ _______ _____ _____    ______ ____
ROOT
ATOM      1  C   UNL     1      -5.727   1.339 127.760  0.00  0.00    +0.000 C 
ATOM      2  N   UNL     1      -6.752   0.834 126.846  0.00  0.00    +0.000 NA
ENDROOT
BRANCH   2   3
ATOM      3  C   UNL     1      -7.473   1.943 126.201  0.00  0.00    +0.000 C 
BRANCH   3   4
ATOM      4  C   UNL     1      -6.832   2.257 124.893  0.00  0.00    +0.000 C 
ATOM      5  C   UNL     1      -6.711   3.497 124.409  0.00  0.00    +0.000 C 
BRANCH   5   6
ATOM      6  C   UNL     1      -6.215   3.726 123.057  0.00  0.00    +0.000 A 
ATOM      7  C   UNL     1      -5.028   4.431 122.866  0.00  0.00    +0.000 A 
ATOM      8  C   UNL     1      -4.632   4.784 121.576  0.00  0.00    +0.000 A 
ATOM      9  C   UNL     1      -5.401   4.399 120.476  0.00  0.00    +0.000 A 
ATOM     10  C   UNL     1      -6.571   3.668 120.659  0.00  0.00    +0.000 A 
ATOM     11  C   UNL     1      -6.983   3.344 121.947  0.00  0.00    +0.000 A 
ENDBRANCH   5   6
ENDBRANCH   3   4
ENDBRANCH   2   3
BRANCH   2  12
ATOM     12  C   UNL     1      -6.172  -0.061 125.848  0.00  0.00    +0.000 C 
BRANCH  12  13
ATOM     13  C   UNL     1      -6.892  -1.401 125.678  0.00  0.00    +0.000 A 
ATOM     14  C   UNL     1      -7.365  -1.612 124.355  0.00  0.00    +0.000 A 
ATOM     15  C   UNL     1      -8.239  -2.650 124.070  0.00  0.00    +0.000 A 
ATOM     16  C   UNL     1      -8.678  -3.446 125.110  0.00  0.00    +0.000 A 
ATOM     17  C   UNL     1      -8.261  -3.243 126.427  0.00  0.00    +0.000 A 
ATOM     18  C   UNL     1      -8.924  -3.911 127.449  0.00  0.00    +0.000 A 
ATOM     19  C   UNL     1      -8.754  -3.529 128.760  0.00  0.00    +0.000 A 
ATOM     20  C   UNL     1      -7.445  -3.260 129.063  0.00  0.00    +0.000 A 
ATOM     21  C   UNL     1      -6.781  -2.444 128.141  0.00  0.00    +0.000 A 
ATOM     22  C   UNL     1      -7.243  -2.312 126.762  0.00  0.00    +0.000 A 
ENDBRANCH  12  13
ENDBRANCH   2  12
TORSDOF 5
ENDMDL
