MODEL 1
REMARK VINA RESULT:      -7.8      0.000      0.000
REMARK  Name = Nalbuphine
REMARK  5 active torsions:
REMARK  status: ('A' for Active; 'I' for Inactive)
REMARK    1  A    between atoms: O_1  and  C_2
REMARK    2  A    between atoms: C_5  and  O_6
REMARK    3  A    between atoms: C_12  and  O_13
REMARK    4  A    between atoms: N_19  and  C_20
REMARK    5  A    between atoms: C_20  and  C_21
REMARK                            x       y       z     vdW  Elec       q    Type
REMARK                         _______ _______ _______ _____ _____    ______ ____
ROOT
ATOM      1  C   UNL     1      -8.000  -3.140 127.911  0.00  0.00    +0.000 C 
ATOM      2  C   UNL     1      -8.909  -3.550 126.821  0.00  0.00    +0.000 C 
ATOM      3  C   UNL     1      -8.522  -2.911 125.319  0.00  0.00    +0.000 C 
ATOM      4  C   UNL     1      -8.042  -1.157 124.917  0.00  0.00    +0.000 C 
ATOM      5  C   UNL     1      -7.683   0.507 123.933  0.00  0.00    +0.000 C 
ATOM      6  C   UNL     1      -7.116   1.410 125.050  0.00  0.00    +0.000 C 
ATOM      7  C   UNL     1      -6.570   1.296 126.341  0.00  0.00    +0.000 A 
ATOM      8  C   UNL     1      -5.490   2.076 126.701  0.00  0.00    +0.000 A 
ATOM      9  C   UNL     1      -4.785   1.728 127.764  0.00  0.00    +0.000 A 
ATOM     10  C   UNL     1      -5.061   0.508 128.422  0.00  0.00    +0.000 A 
ATOM     11  C   UNL     1      -6.184  -0.239 127.975  0.00  0.00    +0.000 A 
ATOM     12  C   UNL     1      -7.052   0.203 127.038  0.00  0.00    +0.000 A 
ATOM     13  C   UNL     1      -8.257  -0.550 126.378  0.00  0.00    +0.000 C 
ATOM     14  C   UNL     1      -9.687   0.459 125.542  0.00  0.00    +0.000 C 
ATOM     15  C   UNL     1      -9.655   1.792 124.326  0.00  0.00    +0.000 C 
ATOM     16  N   UNL     1      -8.624   1.581 123.276  0.00  0.00    +0.000 NA
ATOM     17  C   UNL     1      -7.390  -1.912 127.287  0.00  0.00    +0.000 C 
ATOM     18  O   UNL     1      -6.464  -1.505 128.354  0.00  0.00    +0.000 OA
ENDROOT
BRANCH   1  19
ATOM     19  O   UNL     1      -8.639  -2.829 129.151  0.00  0.00    +0.000 OA
ATOM     20  H   UNL     1      -9.324  -2.154 129.019  0.00  0.00    +0.000 HD
ENDBRANCH   1  19
BRANCH   4  21
ATOM     21  O   UNL     1      -9.302  -1.484 124.148  0.00  0.00    +0.000 OA
ATOM     22  H   UNL     1     -10.105  -1.427 124.663  0.00  0.00    +0.000 HD
ENDBRANCH   4  21
BRANCH  10  23
ATOM     23  O   UNL     1      -4.246   0.149 129.442  0.00  0.00    +0.000 OA
ATOM     24  H   UNL     1      -4.364   0.817 130.147  0.00  0.00    +0.000 HD
ENDBRANCH  10  23
BRANCH  16  25
ATOM     25  C   UNL     1      -8.149   3.027 122.677  0.00  0.00    +0.000 C 
BRANCH  25  26
ATOM     26  C   UNL     1      -6.698   3.048 121.991  0.00  0.00    +0.000 C 
ATOM     27  C   UNL     1      -6.430   3.877 120.675  0.00  0.00    +0.000 C 
ATOM     28  C   UNL     1      -5.088   4.331 121.292  0.00  0.00    +0.000 C 
ATOM     29  C   UNL     1      -5.682   3.992 122.662  0.00  0.00    +0.000 C 
ENDBRANCH  25  26
ENDBRANCH  16  25
TORSDOF 5
ENDMDL
MODEL 2
REMARK VINA RESULT:      -7.8      6.723      7.715
REMARK  Name = Nalbuphine
REMARK  5 active torsions:
REMARK  status: ('A' for Active; 'I' for Inactive)
REMARK    1  A    between atoms: O_1  and  C_2
REMARK    2  A    between atoms: C_5  and  O_6
REMARK    3  A    between atoms: C_12  and  O_13
REMARK    4  A    between atoms: N_19  and  C_20
REMARK    5  A    between atoms: C_20  and  C_21
REMARK                            x       y       z     vdW  Elec       q    Type
REMARK                         _______ _______ _______ _____ _____    ______ ____
ROOT
ATOM      1  C   UNL     1      -7.406   1.714 132.591  0.00  0.00    +0.000 C 
ATOM      2  C   UNL     1      -8.777   1.242 132.309  0.00  0.00    +0.000 C 
ATOM      3  C   UNL     1      -9.526   2.016 131.023  0.00  0.00    +0.000 C 
ATOM      4  C   UNL     1      -9.555   3.842 130.654  0.00  0.00    +0.000 C 
ATOM      5  C   UNL     1     -10.053   5.595 129.916  0.00  0.00    +0.000 C 
ATOM      6  C   UNL     1      -8.954   6.502 130.508  0.00  0.00    +0.000 C 
ATOM      7  C   UNL     1      -7.685   6.392 131.103  0.00  0.00    +0.000 A 
ATOM      8  C   UNL     1      -6.694   7.297 130.779  0.00  0.00    +0.000 A 
ATOM      9  C   UNL     1      -5.440   6.992 131.068  0.00  0.00    +0.000 A 
ATOM     10  C   UNL     1      -5.127   5.709 131.570  0.00  0.00    +0.000 A 
ATOM     11  C   UNL     1      -6.209   4.836 131.861  0.00  0.00    +0.000 A 
ATOM     12  C   UNL     1      -7.507   5.204 131.786  0.00  0.00    +0.000 A 
ATOM     13  C   UNL     1      -8.791   4.325 131.970  0.00  0.00    +0.000 C 
ATOM     14  C   UNL     1     -10.482   5.165 132.413  0.00  0.00    +0.000 C 
ATOM     15  C   UNL     1     -11.355   6.557 131.668  0.00  0.00    +0.000 C 
ATOM     16  N   UNL     1     -11.265   6.559 130.184  0.00  0.00    +0.000 NA
ATOM     17  C   UNL     1      -7.448   3.051 131.899  0.00  0.00    +0.000 C 
ATOM     18  O   UNL     1      -6.080   3.523 132.152  0.00  0.00    +0.000 OA
ENDROOT
BRANCH   1  19
ATOM     19  O   UNL     1      -7.085   1.857 133.976  0.00  0.00    +0.000 OA
ATOM     20  H   UNL     1      -7.699   1.338 134.521  0.00  0.00    +0.000 HD
ENDBRANCH   1  19
BRANCH   4  21
ATOM     21  O   UNL     1     -10.983   3.383 130.851  0.00  0.00    +0.000 OA
ATOM     22  H   UNL     1     -11.359   2.930 130.099  0.00  0.00    +0.000 HD
ENDBRANCH   4  21
BRANCH  10  23
ATOM     23  O   UNL     1      -3.818   5.412 131.754  0.00  0.00    +0.000 OA
ATOM     24  H   UNL     1      -3.784   4.658 132.377  0.00  0.00    +0.000 HD
ENDBRANCH  10  23
BRANCH  16  25
ATOM     25  C   UNL     1     -11.408   8.090 129.628  0.00  0.00    +0.000 C 
BRANCH  25  26
ATOM     26  C   UNL     1     -11.881   8.230 128.101  0.00  0.00    +0.000 C 
ATOM     27  C   UNL     1     -10.996   7.673 126.919  0.00  0.00    +0.000 C 
ATOM     28  C   UNL     1     -12.291   7.137 126.266  0.00  0.00    +0.000 C 
ATOM     29  C   UNL     1     -12.933   7.196 127.655  0.00  0.00    +0.000 C 
ENDBRANCH  25  26
ENDBRANCH  16  25
TORSDOF 5
ENDMDL
MODEL 3
REMARK VINA RESULT:      -7.7      2.707      4.215
REMARK  Name = Nalbuphine
REMARK  5 active torsions:
REMARK  status: ('A' for Active; 'I' for Inactive)
REMARK    1  A    between atoms: O_1  and  C_2
REMARK    2  A    between atoms: C_5  and  O_6
REMARK    3  A    between atoms: C_12  and  O_13
REMARK    4  A    between atoms: N_19  and  C_20
REMARK    5  A    between atoms: C_20  and  C_21
REMARK                            x       y       z     vdW  Elec       q    Type
REMARK                         _______ _______ _______ _____ _____    ______ ____
ROOT
ATOM      1  C   UNL     1      -8.685  -3.060 123.579  0.00  0.00    +0.000 C 
ATOM      2  C   UNL     1      -8.242  -2.136 122.515  0.00  0.00    +0.000 C 
ATOM      3  C   UNL     1      -6.969  -1.134 122.952  0.00  0.00    +0.000 C 
ATOM      4  C   UNL     1      -6.763  -0.181 124.539  0.00  0.00    +0.000 C 
ATOM      5  C   UNL     1      -6.143   1.125 125.871  0.00  0.00    +0.000 C 
ATOM      6  C   UNL     1      -6.909   0.668 127.130  0.00  0.00    +0.000 C 
ATOM      7  C   UNL     1      -7.602  -0.458 127.609  0.00  0.00    +0.000 A 
ATOM      8  C   UNL     1      -7.448  -0.851 128.923  0.00  0.00    +0.000 A 
ATOM      9  C   UNL     1      -7.818  -2.074 129.265  0.00  0.00    +0.000 A 
ATOM     10  C   UNL     1      -8.230  -2.988 128.269  0.00  0.00    +0.000 A 
ATOM     11  C   UNL     1      -8.345  -2.501 126.939  0.00  0.00    +0.000 A 
ATOM     12  C   UNL     1      -8.188  -1.201 126.602  0.00  0.00    +0.000 A 
ATOM     13  C   UNL     1      -8.179  -0.548 125.178  0.00  0.00    +0.000 C 
ATOM     14  C   UNL     1      -8.545   1.347 124.982  0.00  0.00    +0.000 C 
ATOM     15  C   UNL     1      -7.852   2.789 125.817  0.00  0.00    +0.000 C 
ATOM     16  N   UNL     1      -6.388   2.668 126.045  0.00  0.00    +0.000 NA
ATOM     17  C   UNL     1      -8.114  -2.356 124.782  0.00  0.00    +0.000 C 
ATOM     18  O   UNL     1      -8.528  -3.278 125.849  0.00  0.00    +0.000 OA
ENDROOT
BRANCH   1  19
ATOM     19  O   UNL     1     -10.100  -3.220 123.696  0.00  0.00    +0.000 OA
ATOM     20  H   UNL     1     -10.451  -3.700 122.928  0.00  0.00    +0.000 HD
ENDBRANCH   1  19
BRANCH   4  21
ATOM     21  O   UNL     1      -6.792   0.812 123.398  0.00  0.00    +0.000 OA
ATOM     22  H   UNL     1      -7.000   0.430 122.548  0.00  0.00    +0.000 HD
ENDBRANCH   4  21
BRANCH  10  23
ATOM     23  O   UNL     1      -8.502  -4.256 128.657  0.00  0.00    +0.000 OA
ATOM     24  H   UNL     1      -7.641  -4.704 128.785  0.00  0.00    +0.000 HD
ENDBRANCH  10  23
BRANCH  16  25
ATOM     25  C   UNL     1      -5.960   3.561 127.346  0.00  0.00    +0.000 C 
BRANCH  25  26
ATOM     26  C   UNL     1      -4.398   3.912 127.461  0.00  0.00    +0.000 C 
ATOM     27  C   UNL     1      -3.367   2.863 128.031  0.00  0.00    +0.000 C 
ATOM     28  C   UNL     1      -2.395   3.277 126.903  0.00  0.00    +0.000 C 
ATOM     29  C   UNL     1      -3.614   3.801 126.139  0.00  0.00    +0.000 C 
ENDBRANCH  25  26
ENDBRANCH  16  25
TORSDOF 5
ENDMDL
MODEL 4
REMARK VINA RESULT:      -7.7      2.816      6.964
REMARK  Name = Nalbuphine
REMARK  5 active torsions:
REMARK  status: ('A' for Active; 'I' for Inactive)
REMARK    1  A    between atoms: O_1  and  C_2
REMARK    2  A    between atoms: C_5  and  O_6
REMARK    3  A    between atoms: C_12  and  O_13
REMARK    4  A    between atoms: N_19  and  C_20
REMARK    5  A    between atoms: C_20  and  C_21
REMARK                            x       y       z     vdW  Elec       q    Type
REMARK                         _______ _______ _______ _____ _____    ______ ____
ROOT
ATOM      1  C   UNL     1      -9.654   1.700 123.914  0.00  0.00    +0.000 C 
ATOM      2  C   UNL     1      -8.848   2.797 124.488  0.00  0.00    +0.000 C 
ATOM      3  C   UNL     1      -7.288   2.356 124.922  0.00  0.00    +0.000 C 
ATOM      4  C   UNL     1      -6.751   0.826 125.838  0.00  0.00    +0.000 C 
ATOM      5  C   UNL     1      -5.685  -0.450 126.888  0.00  0.00    +0.000 C 
ATOM      6  C   UNL     1      -6.601  -1.692 126.886  0.00  0.00    +0.000 C 
ATOM      7  C   UNL     1      -7.704  -2.204 126.179  0.00  0.00    +0.000 A 
ATOM      8  C   UNL     1      -7.756  -3.548 125.868  0.00  0.00    +0.000 A 
ATOM      9  C   UNL     1      -8.600  -3.948 124.932  0.00  0.00    +0.000 A 
ATOM     10  C   UNL     1      -9.324  -2.992 124.183  0.00  0.00    +0.000 A 
ATOM     11  C   UNL     1      -9.198  -1.629 124.563  0.00  0.00    +0.000 A 
ATOM     12  C   UNL     1      -8.518  -1.217 125.656  0.00  0.00    +0.000 A 
ATOM     13  C   UNL     1      -8.209   0.244 126.130  0.00  0.00    +0.000 C 
ATOM     14  C   UNL     1      -7.766   0.584 127.987  0.00  0.00    +0.000 C 
ATOM     15  C   UNL     1      -6.567  -0.191 129.090  0.00  0.00    +0.000 C 
ATOM     16  N   UNL     1      -5.284  -0.509 128.407  0.00  0.00    +0.000 NA
ATOM     17  C   UNL     1      -8.876   0.516 124.423  0.00  0.00    +0.000 C 
ATOM     18  O   UNL     1      -9.655  -0.585 123.839  0.00  0.00    +0.000 OA
ENDROOT
BRANCH   1  19
ATOM     19  O   UNL     1     -11.014   1.653 124.349  0.00  0.00    +0.000 OA
ATOM     20  H   UNL     1     -11.531   1.058 123.782  0.00  0.00    +0.000 HD
ENDBRANCH   1  19
BRANCH   4  21
ATOM     21  O   UNL     1      -6.345   2.029 126.661  0.00  0.00    +0.000 OA
ATOM     22  H   UNL     1      -7.001   2.312 127.294  0.00  0.00    +0.000 HD
ENDBRANCH   4  21
BRANCH  10  23
ATOM     23  O   UNL     1     -10.098  -3.447 123.170  0.00  0.00    +0.000 OA
ATOM     24  H   UNL     1      -9.494  -3.824 122.498  0.00  0.00    +0.000 HD
ENDBRANCH  10  23
BRANCH  16  25
ATOM     25  C   UNL     1      -4.563  -1.770 129.156  0.00  0.00    +0.000 C 
BRANCH  25  26
ATOM     26  C   UNL     1      -5.450  -2.513 130.268  0.00  0.00    +0.000 C 
ATOM     27  C   UNL     1      -6.297  -3.796 129.912  0.00  0.00    +0.000 C 
ATOM     28  C   UNL     1      -5.832  -4.416 131.249  0.00  0.00    +0.000 C 
ATOM     29  C   UNL     1      -4.657  -3.433 131.216  0.00  0.00    +0.000 C 
ENDBRANCH  25  26
ENDBRANCH  16  25
TORSDOF 5
ENDMDL
MODEL 5
REMARK VINA RESULT:      -7.6      3.952      5.742
REMARK  Name = Nalbuphine
REMARK  5 active torsions:
REMARK  status: ('A' for Active; 'I' for Inactive)
REMARK    1  A    between atoms: O_1  and  C_2
REMARK    2  A    between atoms: C_5  and  O_6
REMARK    3  A    between atoms: C_12  and  O_13
REMARK    4  A    between atoms: N_19  and  C_20
REMARK    5  A    between atoms: C_20  and  C_21
REMARK                            x       y       z     vdW  Elec       q    Type
REMARK                         _______ _______ _______ _____ _____    ______ ____
ROOT
ATOM      1  C   UNL     1      -7.343  -2.803 133.879  0.00  0.00    +0.000 C 
ATOM      2  C   UNL     1      -6.706  -4.002 133.299  0.00  0.00    +0.000 C 
ATOM      3  C   UNL     1      -5.784  -3.704 131.929  0.00  0.00    +0.000 C 
ATOM      4  C   UNL     1      -6.226  -2.634 130.470  0.00  0.00    +0.000 C 
ATOM      5  C   UNL     1      -6.244  -1.829 128.676  0.00  0.00    +0.000 C 
ATOM      6  C   UNL     1      -7.307  -0.724 128.845  0.00  0.00    +0.000 C 
ATOM      7  C   UNL     1      -7.964  -0.021 129.872  0.00  0.00    +0.000 A 
ATOM      8  C   UNL     1      -8.192   1.333 129.739  0.00  0.00    +0.000 A 
ATOM      9  C   UNL     1      -8.489   2.033 130.821  0.00  0.00    +0.000 A 
ATOM     10  C   UNL     1      -8.435   1.418 132.092  0.00  0.00    +0.000 A 
ATOM     11  C   UNL     1      -8.179   0.022 132.136  0.00  0.00    +0.000 A 
ATOM     12  C   UNL     1      -8.093  -0.757 131.034  0.00  0.00    +0.000 A 
ATOM     13  C   UNL     1      -7.712  -2.273 130.929  0.00  0.00    +0.000 C 
ATOM     14  C   UNL     1      -8.239  -3.296 129.367  0.00  0.00    +0.000 C 
ATOM     15  C   UNL     1      -8.047  -2.966 127.603  0.00  0.00    +0.000 C 
ATOM     16  N   UNL     1      -6.731  -2.354 127.277  0.00  0.00    +0.000 NA
ATOM     17  C   UNL     1      -7.287  -1.882 132.689  0.00  0.00    +0.000 C 
ATOM     18  O   UNL     1      -7.898  -0.673 133.260  0.00  0.00    +0.000 OA
ENDROOT
BRANCH   1  19
ATOM     19  O   UNL     1      -8.687  -2.985 134.330  0.00  0.00    +0.000 OA
ATOM     20  H   UNL     1      -9.159  -3.603 133.747  0.00  0.00    +0.000 HD
ENDBRANCH   1  19
BRANCH   4  21
ATOM     21  O   UNL     1      -6.016  -4.046 129.968  0.00  0.00    +0.000 OA
ATOM     22  H   UNL     1      -5.190  -4.442 130.240  0.00  0.00    +0.000 HD
ENDBRANCH   4  21
BRANCH  10  23
ATOM     23  O   UNL     1      -8.650   2.202 133.176  0.00  0.00    +0.000 OA
ATOM     24  H   UNL     1      -9.616   2.214 133.330  0.00  0.00    +0.000 HD
ENDBRANCH  10  23
BRANCH  16  25
ATOM     25  C   UNL     1      -6.866  -1.458 125.916  0.00  0.00    +0.000 C 
BRANCH  25  26
ATOM     26  C   UNL     1      -5.747  -1.729 124.797  0.00  0.00    +0.000 C 
ATOM     27  C   UNL     1      -5.225  -3.189 124.502  0.00  0.00    +0.000 C 
ATOM     28  C   UNL     1      -5.280  -2.852 122.995  0.00  0.00    +0.000 C 
ATOM     29  C   UNL     1      -6.274  -1.742 123.349  0.00  0.00    +0.000 C 
ENDBRANCH  25  26
ENDBRANCH  16  25
TORSDOF 5
ENDMDL
MODEL 6
REMARK VINA RESULT:      -7.6      1.902      3.973
REMARK  Name = Nalbuphine
REMARK  5 active torsions:
REMARK  status: ('A' for Active; 'I' for Inactive)
REMARK    1  A    between atoms: O_1  and  C_2
REMARK    2  A    between atoms: C_5  and  O_6
REMARK    3  A    between atoms: C_12  and  O_13
REMARK    4  A    between atoms: N_19  and  C_20
REMARK    5  A    between atoms: C_20  and  C_21
REMARK                            x       y       z     vdW  Elec       q    Type
REMARK                         _______ _______ _______ _____ _____    ______ ____
ROOT
ATOM      1  C   UNL     1      -7.363  -0.517 128.474  0.00  0.00    +0.000 C 
ATOM      2  C   UNL     1      -7.513   0.925 128.755  0.00  0.00    +0.000 C 
ATOM      3  C   UNL     1      -8.590   1.720 127.743  0.00  0.00    +0.000 C 
ATOM      4  C   UNL     1      -8.737   1.567 125.893  0.00  0.00    +0.000 C 
ATOM      5  C   UNL     1      -9.194   1.929 124.014  0.00  0.00    +0.000 C 
ATOM      6  C   UNL     1      -8.651   0.665 123.316  0.00  0.00    +0.000 C 
ATOM      7  C   UNL     1      -8.246  -0.643 123.638  0.00  0.00    +0.000 A 
ATOM      8  C   UNL     1      -8.591  -1.692 122.811  0.00  0.00    +0.000 A 
ATOM      9  C   UNL     1      -8.508  -2.924 123.284  0.00  0.00    +0.000 A 
ATOM     10  C   UNL     1      -8.204  -3.134 124.648  0.00  0.00    +0.000 A 
ATOM     11  C   UNL     1      -7.876  -1.995 125.430  0.00  0.00    +0.000 A 
ATOM     12  C   UNL     1      -7.736  -0.752 124.918  0.00  0.00    +0.000 A 
ATOM     13  C   UNL     1      -7.487   0.600 125.671  0.00  0.00    +0.000 C 
ATOM     14  C   UNL     1      -6.729   2.110 124.719  0.00  0.00    +0.000 C 
ATOM     15  C   UNL     1      -7.185   2.887 123.156  0.00  0.00    +0.000 C 
ATOM     16  N   UNL     1      -8.658   2.973 122.969  0.00  0.00    +0.000 NA
ATOM     17  C   UNL     1      -7.883  -0.558 127.061  0.00  0.00    +0.000 C 
ATOM     18  O   UNL     1      -7.760  -1.995 126.776  0.00  0.00    +0.000 OA
ENDROOT
BRANCH   1  19
ATOM     19  O   UNL     1      -6.025  -1.014 128.549  0.00  0.00    +0.000 OA
ATOM     20  H   UNL     1      -5.997  -1.832 129.072  0.00  0.00    +0.000 HD
ENDBRANCH   1  19
BRANCH   4  21
ATOM     21  O   UNL     1      -8.407   3.007 126.217  0.00  0.00    +0.000 OA
ATOM     22  H   UNL     1      -9.096   3.472 126.689  0.00  0.00    +0.000 HD
ENDBRANCH   4  21
BRANCH  10  23
ATOM     23  O   UNL     1      -8.230  -4.409 125.106  0.00  0.00    +0.000 OA
ATOM     24  H   UNL     1      -9.160  -4.710 125.053  0.00  0.00    +0.000 HD
ENDBRANCH  10  23
BRANCH  16  25
ATOM     25  C   UNL     1      -9.008   2.990 121.372  0.00  0.00    +0.000 C 
BRANCH  25  26
ATOM     26  C   UNL     1      -8.268   4.128 120.515  0.00  0.00    +0.000 C 
ATOM     27  C   UNL     1      -6.829   3.888 119.911  0.00  0.00    +0.000 C 
ATOM     28  C   UNL     1      -7.313   4.574 118.613  0.00  0.00    +0.000 C 
ATOM     29  C   UNL     1      -8.743   4.246 119.054  0.00  0.00    +0.000 C 
ENDBRANCH  25  26
ENDBRANCH  16  25
TORSDOF 5
ENDMDL
MODEL 7
REMARK VINA RESULT:      -7.5      6.745      8.583
REMARK  Name = Nalbuphine
REMARK  5 active torsions:
REMARK  status: ('A' for Active; 'I' for Inactive)
REMARK    1  A    between atoms: O_1  and  C_2
REMARK    2  A    between atoms: C_5  and  O_6
REMARK    3  A    between atoms: C_12  and  O_13
REMARK    4  A    between atoms: N_19  and  C_20
REMARK    5  A    between atoms: C_20  and  C_21
REMARK                            x       y       z     vdW  Elec       q    Type
REMARK                         _______ _______ _______ _____ _____    ______ ____
ROOT
ATOM      1  C   UNL     1      -6.103   3.525 134.258  0.00  0.00    +0.000 C 
ATOM      2  C   UNL     1      -6.696   4.677 134.966  0.00  0.00    +0.000 C 
ATOM      3  C   UNL     1      -8.320   4.935 134.632  0.00  0.00    +0.000 C 
ATOM      4  C   UNL     1      -9.160   4.901 132.970  0.00  0.00    +0.000 C 
ATOM      5  C   UNL     1     -10.472   5.165 131.530  0.00  0.00    +0.000 C 
ATOM      6  C   UNL     1      -9.811   4.397 130.366  0.00  0.00    +0.000 C 
ATOM      7  C   UNL     1      -8.812   3.429 130.156  0.00  0.00    +0.000 A 
ATOM      8  C   UNL     1      -9.013   2.426 129.229  0.00  0.00    +0.000 A 
ATOM      9  C   UNL     1      -8.241   1.353 129.282  0.00  0.00    +0.000 A 
ATOM     10  C   UNL     1      -7.333   1.193 130.352  0.00  0.00    +0.000 A 
ATOM     11  C   UNL     1      -7.202   2.271 131.269  0.00  0.00    +0.000 A 
ATOM     12  C   UNL     1      -7.814   3.466 131.111  0.00  0.00    +0.000 A 
ATOM     13  C   UNL     1      -7.847   4.691 132.086  0.00  0.00    +0.000 C 
ATOM     14  C   UNL     1      -8.255   6.460 131.402  0.00  0.00    +0.000 C 
ATOM     15  C   UNL     1      -9.603   7.056 130.362  0.00  0.00    +0.000 C 
ATOM     16  N   UNL     1     -10.908   6.429 130.704  0.00  0.00    +0.000 NA
ATOM     17  C   UNL     1      -7.105   3.365 133.145  0.00  0.00    +0.000 C 
ATOM     18  O   UNL     1      -6.538   2.204 132.444  0.00  0.00    +0.000 OA
ENDROOT
BRANCH   1  19
ATOM     19  O   UNL     1      -4.787   3.738 133.745  0.00  0.00    +0.000 OA
ATOM     20  H   UNL     1      -4.749   3.506 132.803  0.00  0.00    +0.000 HD
ENDBRANCH   1  19
BRANCH   4  21
ATOM     21  O   UNL     1      -9.345   6.282 133.558  0.00  0.00    +0.000 OA
ATOM     22  H   UNL     1      -8.609   6.587 134.086  0.00  0.00    +0.000 HD
ENDBRANCH   4  21
BRANCH  10  23
ATOM     23  O   UNL     1      -6.638   0.032 130.416  0.00  0.00    +0.000 OA
ATOM     24  H   UNL     1      -5.976   0.137 131.128  0.00  0.00    +0.000 HD
ENDBRANCH  10  23
BRANCH  16  25
ATOM     25  C   UNL     1     -11.874   6.421 129.384  0.00  0.00    +0.000 C 
BRANCH  25  26
ATOM     26  C   UNL     1     -13.007   7.557 129.350  0.00  0.00    +0.000 C 
ATOM     27  C   UNL     1     -12.657   9.067 129.648  0.00  0.00    +0.000 C 
ATOM     28  C   UNL     1     -13.579   9.463 128.472  0.00  0.00    +0.000 C 
ATOM     29  C   UNL     1     -13.394   8.039 127.939  0.00  0.00    +0.000 C 
ENDBRANCH  25  26
ENDBRANCH  16  25
TORSDOF 5
ENDMDL
MODEL 8
REMARK VINA RESULT:      -7.5      2.356      5.108
REMARK  Name = Nalbuphine
REMARK  5 active torsions:
REMARK  status: ('A' for Active; 'I' for Inactive)
REMARK    1  A    between atoms: O_1  and  C_2
REMARK    2  A    between atoms: C_5  and  O_6
REMARK    3  A    between atoms: C_12  and  O_13
REMARK    4  A    between atoms: N_19  and  C_20
REMARK    5  A    between atoms: C_20  and  C_21
REMARK                            x       y       z     vdW  Elec       q    Type
REMARK                         _______ _______ _______ _____ _____    ______ ____
ROOT
ATOM      1  C   UNL     1      -8.797  -2.895 125.975  0.00  0.00    +0.000 C 
ATOM      2  C   UNL     1      -8.029  -3.022 127.230  0.00  0.00    +0.000 C 
ATOM      3  C   UNL     1      -7.864  -1.589 128.089  0.00  0.00    +0.000 C 
ATOM      4  C   UNL     1      -7.430   0.094 127.422  0.00  0.00    +0.000 C 
ATOM      5  C   UNL     1      -6.848   1.969 127.305  0.00  0.00    +0.000 C 
ATOM      6  C   UNL     1      -7.095   2.276 125.813  0.00  0.00    +0.000 C 
ATOM      7  C   UNL     1      -7.812   1.756 124.720  0.00  0.00    +0.000 A 
ATOM      8  C   UNL     1      -8.457   2.614 123.853  0.00  0.00    +0.000 A 
ATOM      9  C   UNL     1      -9.388   2.121 123.052  0.00  0.00    +0.000 A 
ATOM     10  C   UNL     1      -9.794   0.775 123.192  0.00  0.00    +0.000 A 
ATOM     11  C   UNL     1      -9.083  -0.032 124.121  0.00  0.00    +0.000 A 
ATOM     12  C   UNL     1      -7.985   0.387 124.788  0.00  0.00    +0.000 A 
ATOM     13  C   UNL     1      -7.174  -0.349 125.909  0.00  0.00    +0.000 C 
ATOM     14  C   UNL     1      -5.339   0.164 126.270  0.00  0.00    +0.000 C 
ATOM     15  C   UNL     1      -4.587   1.777 126.569  0.00  0.00    +0.000 C 
ATOM     16  N   UNL     1      -5.439   2.656 127.414  0.00  0.00    +0.000 NA
ATOM     17  C   UNL     1      -8.685  -1.409 125.755  0.00  0.00    +0.000 C 
ATOM     18  O   UNL     1      -9.467  -1.265 124.518  0.00  0.00    +0.000 OA
ENDROOT
BRANCH   1  19
ATOM     19  O   UNL     1      -8.271  -3.624 124.864  0.00  0.00    +0.000 OA
ATOM     20  H   UNL     1      -7.958  -4.498 125.150  0.00  0.00    +0.000 HD
ENDBRANCH   1  19
BRANCH   4  21
ATOM     21  O   UNL     1      -6.361  -0.303 128.415  0.00  0.00    +0.000 OA
ATOM     22  H   UNL     1      -5.783  -1.002 128.113  0.00  0.00    +0.000 HD
ENDBRANCH   4  21
BRANCH  10  23
ATOM     23  O   UNL     1     -10.819   0.347 122.418  0.00  0.00    +0.000 OA
ATOM     24  H   UNL     1     -10.811   0.896 121.608  0.00  0.00    +0.000 HD
ENDBRANCH  10  23
BRANCH  16  25
ATOM     25  C   UNL     1      -5.112   4.223 127.076  0.00  0.00    +0.000 C 
BRANCH  25  26
ATOM     26  C   UNL     1      -4.187   4.981 128.146  0.00  0.00    +0.000 C 
ATOM     27  C   UNL     1      -2.642   4.680 128.247  0.00  0.00    +0.000 C 
ATOM     28  C   UNL     1      -2.404   6.200 128.398  0.00  0.00    +0.000 C 
ATOM     29  C   UNL     1      -3.772   6.409 127.741  0.00  0.00    +0.000 C 
ENDBRANCH  25  26
ENDBRANCH  16  25
TORSDOF 5
ENDMDL
MODEL 9
REMARK VINA RESULT:      -7.4      7.470      9.738
REMARK  Name = Nalbuphine
REMARK  5 active torsions:
REMARK  status: ('A' for Active; 'I' for Inactive)
REMARK    1  A    between atoms: O_1  and  C_2
REMARK    2  A    between atoms: C_5  and  O_6
REMARK    3  A    between atoms: C_12  and  O_13
REMARK    4  A    between atoms: N_19  and  C_20
REMARK    5  A    between atoms: C_20  and  C_21
REMARK                            x       y       z     vdW  Elec       q    Type
REMARK                         _______ _______ _______ _____ _____    ______ ____
ROOT
ATOM      1  C   UNL     1      -2.305   5.934 133.027  0.00  0.00    +0.000 C 
ATOM      2  C   UNL     1      -2.150   6.298 131.604  0.00  0.00    +0.000 C 
ATOM      3  C   UNL     1      -3.426   7.186 130.972  0.00  0.00    +0.000 C 
ATOM      4  C   UNL     1      -5.249   6.879 131.198  0.00  0.00    +0.000 C 
ATOM      5  C   UNL     1      -7.199   6.919 130.951  0.00  0.00    +0.000 C 
ATOM      6  C   UNL     1      -7.681   6.096 132.164  0.00  0.00    +0.000 C 
ATOM      7  C   UNL     1      -7.199   5.641 133.406  0.00  0.00    +0.000 A 
ATOM      8  C   UNL     1      -8.022   5.669 134.513  0.00  0.00    +0.000 A 
ATOM      9  C   UNL     1      -7.473   5.570 135.711  0.00  0.00    +0.000 A 
ATOM     10  C   UNL     1      -6.066   5.573 135.842  0.00  0.00    +0.000 A 
ATOM     11  C   UNL     1      -5.296   5.561 134.649  0.00  0.00    +0.000 A 
ATOM     12  C   UNL     1      -5.832   5.437 133.414  0.00  0.00    +0.000 A 
ATOM     13  C   UNL     1      -5.122   5.516 132.020  0.00  0.00    +0.000 C 
ATOM     14  C   UNL     1      -5.959   4.721 130.462  0.00  0.00    +0.000 C 
ATOM     15  C   UNL     1      -7.628   4.877 129.792  0.00  0.00    +0.000 C 
ATOM     16  N   UNL     1      -8.152   6.266 129.884  0.00  0.00    +0.000 NA
ATOM     17  C   UNL     1      -3.795   6.101 133.172  0.00  0.00    +0.000 C 
ATOM     18  O   UNL     1      -3.962   5.763 134.593  0.00  0.00    +0.000 OA
ENDROOT
BRANCH   1  19
ATOM     19  O   UNL     1      -1.897   4.606 133.363  0.00  0.00    +0.000 OA
ATOM     20  H   UNL     1      -0.932   4.522 133.297  0.00  0.00    +0.000 HD
ENDBRANCH   1  19
BRANCH   4  21
ATOM     21  O   UNL     1      -4.940   6.789 129.720  0.00  0.00    +0.000 OA
ATOM     22  H   UNL     1      -4.082   7.129 129.476  0.00  0.00    +0.000 HD
ENDBRANCH   4  21
BRANCH  10  23
ATOM     23  O   UNL     1      -5.554   5.571 137.096  0.00  0.00    +0.000 OA
ATOM     24  H   UNL     1      -5.404   4.635 137.339  0.00  0.00    +0.000 HD
ENDBRANCH  10  23
BRANCH  16  25
ATOM     25  C   UNL     1      -9.785   6.232 129.958  0.00  0.00    +0.000 C 
BRANCH  25  26
ATOM     26  C   UNL     1     -10.517   7.641 129.724  0.00  0.00    +0.000 C 
ATOM     27  C   UNL     1     -10.567   8.307 128.294  0.00  0.00    +0.000 C 
ATOM     28  C   UNL     1     -12.043   8.675 128.571  0.00  0.00    +0.000 C 
ATOM     29  C   UNL     1     -12.052   7.561 129.621  0.00  0.00    +0.000 C 
ENDBRANCH  25  26
ENDBRANCH  16  25
TORSDOF 5
ENDMDL
