MODEL 1
REMARK VINA RESULT:     -11.1      0.000      0.000
REMARK  Name = Naldemedine
REMARK  11 active torsions:
REMARK  status: ('A' for Active; 'I' for Inactive)
REMARK    1  A    between atoms: N_10  and  C_11
REMARK    2  A    between atoms: C_11  and  C_12
REMARK    3  A    between atoms: C_18  and  O_19
REMARK    4  A    between atoms: C_21  and  C_22
REMARK    5  A    between atoms: N_24  and  C_25
REMARK    6  A    between atoms: C_25  and  C_26
REMARK    7  A    between atoms: C_25  and  C_27
REMARK    8  A    between atoms: C_25  and  C_28
REMARK    9  A    between atoms: C_30  and  C_33
REMARK   10  A    between atoms: C_39  and  O_40
REMARK   11  A    between atoms: C_43  and  O_44
REMARK                            x       y       z     vdW  Elec       q    Type
REMARK                         _______ _______ _______ _____ _____    ______ ____
ROOT
ATOM      1  C   UNL     1      -6.036   0.944 125.981  0.00  0.00    +0.000 C 
ATOM      2  O   UNL     1      -6.784   0.134 125.053  0.00  0.00    +0.000 OA
ATOM      3  C   UNL     1      -7.407   1.090 124.311  0.00  0.00    +0.000 A 
ATOM      4  C   UNL     1      -6.998   2.390 124.588  0.00  0.00    +0.000 A 
ATOM      5  C   UNL     1      -7.464   2.752 125.741  0.00  0.00    +0.000 A 
ATOM      6  C   UNL     1      -5.939   2.640 127.255  0.00  0.00    +0.000 C 
ATOM      7  C   UNL     1      -5.447   3.766 128.048  0.00  0.00    +0.000 C 
ATOM      8  N   UNL     1      -4.229   4.355 127.435  0.00  0.00    +0.000 NA
ATOM      9  C   UNL     1      -3.800   3.900 126.076  0.00  0.00    +0.000 C 
ATOM     10  C   UNL     1      -4.956   3.803 125.056  0.00  0.00    +0.000 C 
ATOM     11  C   UNL     1      -6.054   2.841 125.491  0.00  0.00    +0.000 C 
ATOM     12  C   UNL     1      -6.738   3.545 127.356  0.00  0.00    +0.000 C 
ATOM     13  C   UNL     1      -7.857   2.242 128.147  0.00  0.00    +0.000 C 
ATOM     14  C   UNL     1      -7.020   1.334 129.074  0.00  0.00    +0.000 C 
ATOM     15  C   UNL     1      -6.364   0.484 127.826  0.00  0.00    +0.000 C 
ATOM     16  C   UNL     1      -8.897   2.886 125.130  0.00  0.00    +0.000 A 
ATOM     17  C   UNL     1      -9.398   1.961 123.917  0.00  0.00    +0.000 A 
ATOM     18  C   UNL     1      -8.613   0.874 123.703  0.00  0.00    +0.000 A 
ENDROOT
BRANCH  14  19
ATOM     19  C   UNL     1      -7.878   2.439 130.380  0.00  0.00    +0.000 C 
ATOM     20  O   UNL     1      -8.829   1.921 131.001  0.00  0.00    +0.000 OA
ATOM     21  N   UNL     1      -7.655   3.859 130.818  0.00  0.00    +0.000 N 
ATOM     22  H   UNL     1      -7.079   4.471 130.266  0.00  0.00    +0.000 HD
BRANCH  21  23
ATOM     23  C   UNL     1      -8.280   4.811 132.152  0.00  0.00    +0.000 C 
ATOM     24  C   UNL     1      -8.654   4.053 133.473  0.00  0.00    +0.000 C 
ATOM     25  C   UNL     1      -7.284   5.924 132.572  0.00  0.00    +0.000 C 
BRANCH  23  26
ATOM     26  C   UNL     1      -9.621   5.565 131.770  0.00  0.00    +0.000 A 
ATOM     27  N   UNL     1     -10.193   5.781 130.586  0.00  0.00    +0.000 NA
ATOM     28  C   UNL     1     -11.288   6.588 130.893  0.00  0.00    +0.000 A 
ATOM     29  N   UNL     1     -11.403   6.825 132.208  0.00  0.00    +0.000 NA
ATOM     30  O   UNL     1     -10.327   6.137 132.783  0.00  0.00    +0.000 OA
BRANCH  28  31
ATOM     31  C   UNL     1     -12.193   7.150 129.879  0.00  0.00    +0.000 A 
ATOM     32  C   UNL     1     -12.463   8.524 129.823  0.00  0.00    +0.000 A 
ATOM     33  C   UNL     1     -13.030   9.077 128.669  0.00  0.00    +0.000 A 
ATOM     34  C   UNL     1     -13.702   8.255 127.773  0.00  0.00    +0.000 A 
ATOM     35  C   UNL     1     -13.610   6.875 127.920  0.00  0.00    +0.000 A 
ATOM     36  C   UNL     1     -12.760   6.334 128.894  0.00  0.00    +0.000 A 
ENDBRANCH  28  31
ENDBRANCH  23  26
ENDBRANCH  21  23
ENDBRANCH  14  19
BRANCH  12  37
ATOM     37  O   UNL     1      -7.442   4.742 127.543  0.00  0.00    +0.000 OA
ATOM     38  H   UNL     1      -6.994   5.319 126.918  0.00  0.00    +0.000 HD
ENDBRANCH  12  37
BRANCH  15  39
ATOM     39  O   UNL     1      -5.313  -0.431 127.861  0.00  0.00    +0.000 OA
ATOM     40  H   UNL     1      -4.423  -0.170 128.079  0.00  0.00    +0.000 HD
ENDBRANCH  15  39
BRANCH  18  41
ATOM     41  O   UNL     1      -8.961  -0.298 123.125  0.00  0.00    +0.000 OA
ATOM     42  H   UNL     1      -9.078  -0.233 122.161  0.00  0.00    +0.000 HD
ENDBRANCH  18  41
BRANCH   8  43
ATOM     43  C   UNL     1      -3.070   4.461 128.366  0.00  0.00    +0.000 C 
BRANCH  43  44
ATOM     44  C   UNL     1      -2.338   5.786 128.409  0.00  0.00    +0.000 C 
ATOM     45  C   UNL     1      -3.187   7.044 128.444  0.00  0.00    +0.000 C 
ATOM     46  C   UNL     1      -2.352   6.686 129.641  0.00  0.00    +0.000 C 
ENDBRANCH  43  44
ENDBRANCH   8  43
TORSDOF 9
ENDMDL
MODEL 2
REMARK VINA RESULT:     -11.0      2.670      8.070
REMARK  Name = Naldemedine
REMARK  11 active torsions:
REMARK  status: ('A' for Active; 'I' for Inactive)
REMARK    1  A    between atoms: N_10  and  C_11
REMARK    2  A    between atoms: C_11  and  C_12
REMARK    3  A    between atoms: C_18  and  O_19
REMARK    4  A    between atoms: C_21  and  C_22
REMARK    5  A    between atoms: N_24  and  C_25
REMARK    6  A    between atoms: C_25  and  C_26
REMARK    7  A    between atoms: C_25  and  C_27
REMARK    8  A    between atoms: C_25  and  C_28
REMARK    9  A    between atoms: C_30  and  C_33
REMARK   10  A    between atoms: C_39  and  O_40
REMARK   11  A    between atoms: C_43  and  O_44
REMARK                            x       y       z     vdW  Elec       q    Type
REMARK                         _______ _______ _______ _____ _____    ______ ____
ROOT
ATOM      1  C   UNL     1     -10.570   5.928 132.194  0.00  0.00    +0.000 C 
ATOM      2  O   UNL     1     -11.488   7.039 132.193  0.00  0.00    +0.000 OA
ATOM      3  C   UNL     1     -11.955   6.993 130.914  0.00  0.00    +0.000 A 
ATOM      4  C   UNL     1     -11.537   5.882 130.189  0.00  0.00    +0.000 A 
ATOM      5  C   UNL     1     -10.281   6.006 129.898  0.00  0.00    +0.000 A 
ATOM      6  C   UNL     1      -9.067   4.802 131.204  0.00  0.00    +0.000 C 
ATOM      7  C   UNL     1      -8.188   3.712 130.780  0.00  0.00    +0.000 C 
ATOM      8  N   UNL     1      -8.881   2.403 130.879  0.00  0.00    +0.000 NA
ATOM      9  C   UNL     1     -10.347   2.371 131.175  0.00  0.00    +0.000 C 
ATOM     10  C   UNL     1     -11.172   3.388 130.357  0.00  0.00    +0.000 C 
ATOM     11  C   UNL     1     -10.733   4.828 130.581  0.00  0.00    +0.000 C 
ATOM     12  C   UNL     1      -8.693   4.902 130.055  0.00  0.00    +0.000 C 
ATOM     13  C   UNL     1      -7.959   6.552 130.617  0.00  0.00    +0.000 C 
ATOM     14  C   UNL     1      -7.338   6.392 132.022  0.00  0.00    +0.000 C 
ATOM     15  C   UNL     1      -8.797   6.409 132.785  0.00  0.00    +0.000 C 
ATOM     16  C   UNL     1     -10.626   7.095 128.831  0.00  0.00    +0.000 A 
ATOM     17  C   UNL     1     -11.880   8.085 128.996  0.00  0.00    +0.000 A 
ATOM     18  C   UNL     1     -12.391   8.108 130.253  0.00  0.00    +0.000 A 
ENDROOT
BRANCH  14  19
ATOM     19  C   UNL     1      -5.750   6.383 130.955  0.00  0.00    +0.000 C 
ATOM     20  O   UNL     1      -4.774   7.011 131.414  0.00  0.00    +0.000 OA
ATOM     21  N   UNL     1      -5.422   5.776 129.620  0.00  0.00    +0.000 N 
ATOM     22  H   UNL     1      -6.160   5.431 129.030  0.00  0.00    +0.000 HD
BRANCH  21  23
ATOM     23  C   UNL     1      -3.922   5.573 128.734  0.00  0.00    +0.000 C 
ATOM     24  C   UNL     1      -3.068   6.857 128.445  0.00  0.00    +0.000 C 
ATOM     25  C   UNL     1      -2.967   4.584 129.452  0.00  0.00    +0.000 C 
BRANCH  23  26
ATOM     26  C   UNL     1      -4.159   4.959 127.292  0.00  0.00    +0.000 A 
ATOM     27  N   UNL     1      -5.171   5.109 126.436  0.00  0.00    +0.000 NA
ATOM     28  C   UNL     1      -4.851   4.238 125.396  0.00  0.00    +0.000 A 
ATOM     29  N   UNL     1      -3.680   3.611 125.586  0.00  0.00    +0.000 NA
ATOM     30  O   UNL     1      -3.218   4.102 126.814  0.00  0.00    +0.000 OA
BRANCH  28  31
ATOM     31  C   UNL     1      -5.724   4.002 124.236  0.00  0.00    +0.000 A 
ATOM     32  C   UNL     1      -5.319   4.335 122.936  0.00  0.00    +0.000 A 
ATOM     33  C   UNL     1      -5.994   3.796 121.835  0.00  0.00    +0.000 A 
ATOM     34  C   UNL     1      -7.280   3.296 121.997  0.00  0.00    +0.000 A 
ATOM     35  C   UNL     1      -7.788   3.134 123.281  0.00  0.00    +0.000 A 
ATOM     36  C   UNL     1      -6.964   3.372 124.390  0.00  0.00    +0.000 A 
ENDBRANCH  28  31
ENDBRANCH  23  26
ENDBRANCH  21  23
ENDBRANCH  14  19
BRANCH  12  37
ATOM     37  O   UNL     1      -8.203   4.748 128.752  0.00  0.00    +0.000 OA
ATOM     38  H   UNL     1      -7.269   4.929 128.883  0.00  0.00    +0.000 HD
ENDBRANCH  12  37
BRANCH  15  39
ATOM     39  O   UNL     1      -9.079   6.109 134.116  0.00  0.00    +0.000 OA
ATOM     40  H   UNL     1      -9.950   5.851 134.403  0.00  0.00    +0.000 HD
ENDBRANCH  15  39
BRANCH  18  41
ATOM     41  O   UNL     1     -13.091   9.103 130.845  0.00  0.00    +0.000 OA
ATOM     42  H   UNL     1     -13.877   8.789 131.325  0.00  0.00    +0.000 HD
ENDBRANCH  18  41
BRANCH   8  43
ATOM     43  C   UNL     1      -8.141   1.380 131.672  0.00  0.00    +0.000 C 
BRANCH  43  44
ATOM     44  C   UNL     1      -8.609  -0.055 131.556  0.00  0.00    +0.000 C 
ATOM     45  C   UNL     1      -7.913  -0.928 130.528  0.00  0.00    +0.000 C 
ATOM     46  C   UNL     1      -7.741  -1.233 131.990  0.00  0.00    +0.000 C 
ENDBRANCH  43  44
ENDBRANCH   8  43
TORSDOF 9
ENDMDL
MODEL 3
REMARK VINA RESULT:     -11.0      2.202      4.475
REMARK  Name = Naldemedine
REMARK  11 active torsions:
REMARK  status: ('A' for Active; 'I' for Inactive)
REMARK    1  A    between atoms: N_10  and  C_11
REMARK    2  A    between atoms: C_11  and  C_12
REMARK    3  A    between atoms: C_18  and  O_19
REMARK    4  A    between atoms: C_21  and  C_22
REMARK    5  A    between atoms: N_24  and  C_25
REMARK    6  A    between atoms: C_25  and  C_26
REMARK    7  A    between atoms: C_25  and  C_27
REMARK    8  A    between atoms: C_25  and  C_28
REMARK    9  A    between atoms: C_30  and  C_33
REMARK   10  A    between atoms: C_39  and  O_40
REMARK   11  A    between atoms: C_43  and  O_44
REMARK                            x       y       z     vdW  Elec       q    Type
REMARK                         _______ _______ _______ _____ _____    ______ ____
ROOT
ATOM      1  C   UNL     1      -6.081  -0.380 126.992  0.00  0.00    +0.000 C 
ATOM      2  O   UNL     1      -5.643  -1.580 127.659  0.00  0.00    +0.000 OA
ATOM      3  C   UNL     1      -6.774  -1.937 128.328  0.00  0.00    +0.000 A 
ATOM      4  C   UNL     1      -7.892  -1.171 128.017  0.00  0.00    +0.000 A 
ATOM      5  C   UNL     1      -7.764   0.009 128.535  0.00  0.00    +0.000 A 
ATOM      6  C   UNL     1      -7.170   1.442 127.043  0.00  0.00    +0.000 C 
ATOM      7  C   UNL     1      -7.937   2.624 126.649  0.00  0.00    +0.000 C 
ATOM      8  N   UNL     1      -8.779   2.338 125.461  0.00  0.00    +0.000 NA
ATOM      9  C   UNL     1      -8.897   0.930 124.968  0.00  0.00    +0.000 C 
ATOM     10  C   UNL     1      -9.131  -0.106 126.089  0.00  0.00    +0.000 C 
ATOM     11  C   UNL     1      -8.018  -0.120 127.129  0.00  0.00    +0.000 C 
ATOM     12  C   UNL     1      -7.925   1.837 127.905  0.00  0.00    +0.000 C 
ATOM     13  C   UNL     1      -6.360   2.024 128.951  0.00  0.00    +0.000 C 
ATOM     14  C   UNL     1      -5.216   2.581 128.076  0.00  0.00    +0.000 C 
ATOM     15  C   UNL     1      -4.939   1.138 127.333  0.00  0.00    +0.000 C 
ATOM     16  C   UNL     1      -8.041  -0.576 129.958  0.00  0.00    +0.000 A 
ATOM     17  C   UNL     1      -7.619  -2.071 130.364  0.00  0.00    +0.000 A 
ATOM     18  C   UNL     1      -6.739  -2.640 129.501  0.00  0.00    +0.000 A 
ENDROOT
BRANCH  14  19
ATOM     19  C   UNL     1      -5.695   4.163 129.040  0.00  0.00    +0.000 C 
ATOM     20  O   UNL     1      -5.906   5.184 128.354  0.00  0.00    +0.000 OA
ATOM     21  N   UNL     1      -5.856   4.454 130.506  0.00  0.00    +0.000 N 
ATOM     22  H   UNL     1      -5.512   3.801 131.189  0.00  0.00    +0.000 HD
BRANCH  21  23
ATOM     23  C   UNL     1      -6.502   5.825 131.389  0.00  0.00    +0.000 C 
ATOM     24  C   UNL     1      -6.520   5.737 132.956  0.00  0.00    +0.000 C 
ATOM     25  C   UNL     1      -5.740   7.131 131.048  0.00  0.00    +0.000 C 
BRANCH  23  26
ATOM     26  C   UNL     1      -8.018   6.111 131.022  0.00  0.00    +0.000 A 
ATOM     27  N   UNL     1      -8.647   6.101 129.846  0.00  0.00    +0.000 NA
ATOM     28  C   UNL     1      -9.934   6.534 130.161  0.00  0.00    +0.000 A 
ATOM     29  N   UNL     1     -10.097   6.763 131.473  0.00  0.00    +0.000 NA
ATOM     30  O   UNL     1      -8.852   6.463 132.037  0.00  0.00    +0.000 OA
BRANCH  28  31
ATOM     31  C   UNL     1     -10.985   6.756 129.156  0.00  0.00    +0.000 A 
ATOM     32  C   UNL     1     -12.323   6.431 129.415  0.00  0.00    +0.000 A 
ATOM     33  C   UNL     1     -13.339   6.959 128.608  0.00  0.00    +0.000 A 
ATOM     34  C   UNL     1     -13.028   7.437 127.341  0.00  0.00    +0.000 A 
ATOM     35  C   UNL     1     -11.694   7.589 126.982  0.00  0.00    +0.000 A 
ATOM     36  C   UNL     1     -10.688   7.364 127.932  0.00  0.00    +0.000 A 
ENDBRANCH  28  31
ENDBRANCH  23  26
ENDBRANCH  21  23
ENDBRANCH  14  19
BRANCH  12  37
ATOM     37  O   UNL     1      -8.922   2.427 128.694  0.00  0.00    +0.000 OA
ATOM     38  H   UNL     1      -9.376   1.649 129.029  0.00  0.00    +0.000 HD
ENDBRANCH  12  37
BRANCH  15  39
ATOM     39  O   UNL     1      -4.138   0.878 126.222  0.00  0.00    +0.000 OA
ATOM     40  H   UNL     1      -4.235   0.085 125.703  0.00  0.00    +0.000 HD
ENDBRANCH  15  39
BRANCH  18  41
ATOM     41  O   UNL     1      -5.856  -3.633 129.753  0.00  0.00    +0.000 OA
ATOM     42  H   UNL     1      -5.224  -3.780 129.029  0.00  0.00    +0.000 HD
ENDBRANCH  18  41
BRANCH   8  43
ATOM     43  C   UNL     1      -8.588   3.296 124.334  0.00  0.00    +0.000 C 
BRANCH  43  44
ATOM     44  C   UNL     1      -8.118   2.725 123.014  0.00  0.00    +0.000 C 
ATOM     45  C   UNL     1      -8.593   3.422 121.751  0.00  0.00    +0.000 C 
ATOM     46  C   UNL     1      -7.133   3.462 122.110  0.00  0.00    +0.000 C 
ENDBRANCH  43  44
ENDBRANCH   8  43
TORSDOF 9
ENDMDL
MODEL 4
REMARK VINA RESULT:     -10.8      2.820      8.239
REMARK  Name = Naldemedine
REMARK  11 active torsions:
REMARK  status: ('A' for Active; 'I' for Inactive)
REMARK    1  A    between atoms: N_10  and  C_11
REMARK    2  A    between atoms: C_11  and  C_12
REMARK    3  A    between atoms: C_18  and  O_19
REMARK    4  A    between atoms: C_21  and  C_22
REMARK    5  A    between atoms: N_24  and  C_25
REMARK    6  A    between atoms: C_25  and  C_26
REMARK    7  A    between atoms: C_25  and  C_27
REMARK    8  A    between atoms: C_25  and  C_28
REMARK    9  A    between atoms: C_30  and  C_33
REMARK   10  A    between atoms: C_39  and  O_40
REMARK   11  A    between atoms: C_43  and  O_44
REMARK                            x       y       z     vdW  Elec       q    Type
REMARK                         _______ _______ _______ _____ _____    ______ ____
ROOT
ATOM      1  C   UNL     1      -7.795   3.984 132.495  0.00  0.00    +0.000 C 
ATOM      2  O   UNL     1      -6.903   3.550 133.540  0.00  0.00    +0.000 OA
ATOM      3  C   UNL     1      -5.746   4.166 133.170  0.00  0.00    +0.000 A 
ATOM      4  C   UNL     1      -5.879   5.047 132.103  0.00  0.00    +0.000 A 
ATOM      5  C   UNL     1      -6.062   4.376 131.010  0.00  0.00    +0.000 A 
ATOM      6  C   UNL     1      -8.136   4.389 130.438  0.00  0.00    +0.000 C 
ATOM      7  C   UNL     1      -8.669   4.937 129.191  0.00  0.00    +0.000 C 
ATOM      8  N   UNL     1      -9.129   6.336 129.380  0.00  0.00    +0.000 NA
ATOM      9  C   UNL     1      -8.826   7.039 130.666  0.00  0.00    +0.000 C 
ATOM     10  C   UNL     1      -7.373   6.850 131.154  0.00  0.00    +0.000 C 
ATOM     11  C   UNL     1      -7.007   5.390 131.381  0.00  0.00    +0.000 C 
ATOM     12  C   UNL     1      -7.325   4.417 129.538  0.00  0.00    +0.000 C 
ATOM     13  C   UNL     1      -7.232   2.546 129.791  0.00  0.00    +0.000 C 
ATOM     14  C   UNL     1      -8.647   1.986 130.051  0.00  0.00    +0.000 C 
ATOM     15  C   UNL     1      -8.690   2.523 131.607  0.00  0.00    +0.000 C 
ATOM     16  C   UNL     1      -4.558   3.946 131.011  0.00  0.00    +0.000 A 
ATOM     17  C   UNL     1      -3.730   3.741 132.372  0.00  0.00    +0.000 A 
ATOM     18  C   UNL     1      -4.514   3.654 133.477  0.00  0.00    +0.000 A 
ENDROOT
BRANCH  14  19
ATOM     19  C   UNL     1      -8.411   1.456 128.227  0.00  0.00    +0.000 C 
ATOM     20  O   UNL     1      -9.107   2.058 127.384  0.00  0.00    +0.000 OA
ATOM     21  N   UNL     1      -7.550   0.413 127.573  0.00  0.00    +0.000 N 
ATOM     22  H   UNL     1      -7.103  -0.293 128.132  0.00  0.00    +0.000 HD
BRANCH  21  23
ATOM     23  C   UNL     1      -7.159   0.063 125.899  0.00  0.00    +0.000 C 
ATOM     24  C   UNL     1      -5.970  -0.923 125.621  0.00  0.00    +0.000 C 
ATOM     25  C   UNL     1      -8.378  -0.522 125.140  0.00  0.00    +0.000 C 
BRANCH  23  26
ATOM     26  C   UNL     1      -6.747   1.367 125.097  0.00  0.00    +0.000 A 
ATOM     27  N   UNL     1      -6.938   1.703 123.821  0.00  0.00    +0.000 NA
ATOM     28  C   UNL     1      -6.259   2.914 123.696  0.00  0.00    +0.000 A 
ATOM     29  N   UNL     1      -5.709   3.321 124.850  0.00  0.00    +0.000 NA
ATOM     30  O   UNL     1      -6.049   2.321 125.770  0.00  0.00    +0.000 OA
BRANCH  28  31
ATOM     31  C   UNL     1      -6.127   3.645 122.427  0.00  0.00    +0.000 A 
ATOM     32  C   UNL     1      -5.050   4.510 122.191  0.00  0.00    +0.000 A 
ATOM     33  C   UNL     1      -4.753   4.916 120.884  0.00  0.00    +0.000 A 
ATOM     34  C   UNL     1      -5.729   4.823 119.899  0.00  0.00    +0.000 A 
ATOM     35  C   UNL     1      -6.902   4.129 120.171  0.00  0.00    +0.000 A 
ATOM     36  C   UNL     1      -7.040   3.443 121.386  0.00  0.00    +0.000 A 
ENDBRANCH  28  31
ENDBRANCH  23  26
ENDBRANCH  21  23
ENDBRANCH  14  19
BRANCH  12  37
ATOM     37  O   UNL     1      -6.561   4.634 128.384  0.00  0.00    +0.000 OA
ATOM     38  H   UNL     1      -6.543   3.751 128.006  0.00  0.00    +0.000 HD
ENDBRANCH  12  37
BRANCH  15  39
ATOM     39  O   UNL     1      -9.777   2.562 132.478  0.00  0.00    +0.000 OA
ATOM     40  H   UNL     1     -10.166   3.383 132.764  0.00  0.00    +0.000 HD
ENDBRANCH  15  39
BRANCH  18  41
ATOM     41  O   UNL     1      -4.227   3.048 134.651  0.00  0.00    +0.000 OA
ATOM     42  H   UNL     1      -4.987   2.999 135.256  0.00  0.00    +0.000 HD
ENDBRANCH  18  41
BRANCH   8  43
ATOM     43  C   UNL     1     -10.533   6.580 128.941  0.00  0.00    +0.000 C 
BRANCH  43  44
ATOM     44  C   UNL     1     -11.288   7.695 129.632  0.00  0.00    +0.000 C 
ATOM     45  C   UNL     1     -11.979   8.715 128.745  0.00  0.00    +0.000 C 
ATOM     46  C   UNL     1     -12.811   7.794 129.594  0.00  0.00    +0.000 C 
ENDBRANCH  43  44
ENDBRANCH   8  43
TORSDOF 9
ENDMDL
MODEL 5
REMARK VINA RESULT:     -10.6      4.828      8.060
REMARK  Name = Naldemedine
REMARK  11 active torsions:
REMARK  status: ('A' for Active; 'I' for Inactive)
REMARK    1  A    between atoms: N_10  and  C_11
REMARK    2  A    between atoms: C_11  and  C_12
REMARK    3  A    between atoms: C_18  and  O_19
REMARK    4  A    between atoms: C_21  and  C_22
REMARK    5  A    between atoms: N_24  and  C_25
REMARK    6  A    between atoms: C_25  and  C_26
REMARK    7  A    between atoms: C_25  and  C_27
REMARK    8  A    between atoms: C_25  and  C_28
REMARK    9  A    between atoms: C_30  and  C_33
REMARK   10  A    between atoms: C_39  and  O_40
REMARK   11  A    between atoms: C_43  and  O_44
REMARK                            x       y       z     vdW  Elec       q    Type
REMARK                         _______ _______ _______ _____ _____    ______ ____
ROOT
ATOM      1  C   UNL     1      -5.355  -3.183 130.486  0.00  0.00    +0.000 C 
ATOM      2  O   UNL     1      -5.506  -3.728 131.812  0.00  0.00    +0.000 OA
ATOM      3  C   UNL     1      -6.820  -3.466 132.056  0.00  0.00    +0.000 A 
ATOM      4  C   UNL     1      -7.518  -2.960 130.964  0.00  0.00    +0.000 A 
ATOM      5  C   UNL     1      -7.147  -1.739 130.744  0.00  0.00    +0.000 A 
ATOM      6  C   UNL     1      -5.774  -1.639 129.090  0.00  0.00    +0.000 C 
ATOM      7  C   UNL     1      -5.996  -0.902 127.846  0.00  0.00    +0.000 C 
ATOM      8  N   UNL     1      -6.565  -1.786 126.799  0.00  0.00    +0.000 NA
ATOM      9  C   UNL     1      -7.006  -3.168 127.167  0.00  0.00    +0.000 C 
ATOM     10  C   UNL     1      -7.831  -3.233 128.472  0.00  0.00    +0.000 C 
ATOM     11  C   UNL     1      -7.074  -2.700 129.681  0.00  0.00    +0.000 C 
ATOM     12  C   UNL     1      -6.548  -0.714 129.209  0.00  0.00    +0.000 C 
ATOM     13  C   UNL     1      -5.316  -0.069 130.490  0.00  0.00    +0.000 C 
ATOM     14  C   UNL     1      -3.875  -0.310 129.990  0.00  0.00    +0.000 C 
ATOM     15  C   UNL     1      -3.905  -1.917 130.349  0.00  0.00    +0.000 C 
ATOM     16  C   UNL     1      -7.940  -1.261 132.004  0.00  0.00    +0.000 A 
ATOM     17  C   UNL     1      -8.138  -2.197 133.294  0.00  0.00    +0.000 A 
ATOM     18  C   UNL     1      -7.305  -3.268 133.320  0.00  0.00    +0.000 A 
ENDROOT
BRANCH  14  19
ATOM     19  C   UNL     1      -4.039   1.563 129.637  0.00  0.00    +0.000 C 
ATOM     20  O   UNL     1      -3.854   2.326 130.607  0.00  0.00    +0.000 OA
ATOM     21  N   UNL     1      -4.379   2.340 128.396  0.00  0.00    +0.000 N 
ATOM     22  H   UNL     1      -4.765   1.868 127.597  0.00  0.00    +0.000 HD
BRANCH  21  23
ATOM     23  C   UNL     1      -4.320   4.049 128.001  0.00  0.00    +0.000 C 
ATOM     24  C   UNL     1      -5.059   5.043 128.964  0.00  0.00    +0.000 C 
ATOM     25  C   UNL     1      -2.860   4.561 127.905  0.00  0.00    +0.000 C 
BRANCH  23  26
ATOM     26  C   UNL     1      -4.971   4.357 126.589  0.00  0.00    +0.000 A 
ATOM     27  N   UNL     1      -4.980   3.648 125.459  0.00  0.00    +0.000 NA
ATOM     28  C   UNL     1      -5.616   4.491 124.549  0.00  0.00    +0.000 A 
ATOM     29  N   UNL     1      -6.011   5.647 125.102  0.00  0.00    +0.000 NA
ATOM     30  O   UNL     1      -5.611   5.548 126.441  0.00  0.00    +0.000 OA
BRANCH  28  31
ATOM     31  C   UNL     1      -5.795   4.163 123.126  0.00  0.00    +0.000 A 
ATOM     32  C   UNL     1      -6.925   3.468 122.674  0.00  0.00    +0.000 A 
ATOM     33  C   UNL     1      -7.248   3.471 121.311  0.00  0.00    +0.000 A 
ATOM     34  C   UNL     1      -6.269   3.782 120.376  0.00  0.00    +0.000 A 
ATOM     35  C   UNL     1      -5.053   4.298 120.812  0.00  0.00    +0.000 A 
ATOM     36  C   UNL     1      -4.872   4.598 122.170  0.00  0.00    +0.000 A 
ENDBRANCH  28  31
ENDBRANCH  23  26
ENDBRANCH  21  23
ENDBRANCH  14  19
BRANCH  12  37
ATOM     37  O   UNL     1      -7.463   0.338 129.071  0.00  0.00    +0.000 OA
ATOM     38  H   UNL     1      -6.922   0.996 128.626  0.00  0.00    +0.000 HD
ENDBRANCH  12  37
BRANCH  15  39
ATOM     39  O   UNL     1      -2.983  -2.899 129.991  0.00  0.00    +0.000 OA
ATOM     40  H   UNL     1      -2.810  -3.655 130.544  0.00  0.00    +0.000 HD
ENDBRANCH  15  39
BRANCH  18  41
ATOM     41  O   UNL     1      -6.881  -3.962 134.400  0.00  0.00    +0.000 OA
ATOM     42  H   UNL     1      -7.428  -4.742 134.597  0.00  0.00    +0.000 HD
ENDBRANCH  18  41
BRANCH   8  43
ATOM     43  C   UNL     1      -5.803  -1.780 125.517  0.00  0.00    +0.000 C 
BRANCH  43  44
ATOM     44  C   UNL     1      -6.023  -2.946 124.578  0.00  0.00    +0.000 C 
ATOM     45  C   UNL     1      -5.576  -2.768 123.138  0.00  0.00    +0.000 C 
ATOM     46  C   UNL     1      -4.867  -3.766 124.011  0.00  0.00    +0.000 C 
ENDBRANCH  43  44
ENDBRANCH   8  43
TORSDOF 9
ENDMDL
MODEL 6
REMARK VINA RESULT:     -10.4      3.381      6.058
REMARK  Name = Naldemedine
REMARK  11 active torsions:
REMARK  status: ('A' for Active; 'I' for Inactive)
REMARK    1  A    between atoms: N_10  and  C_11
REMARK    2  A    between atoms: C_11  and  C_12
REMARK    3  A    between atoms: C_18  and  O_19
REMARK    4  A    between atoms: C_21  and  C_22
REMARK    5  A    between atoms: N_24  and  C_25
REMARK    6  A    between atoms: C_25  and  C_26
REMARK    7  A    between atoms: C_25  and  C_27
REMARK    8  A    between atoms: C_25  and  C_28
REMARK    9  A    between atoms: C_30  and  C_33
REMARK   10  A    between atoms: C_39  and  O_40
REMARK   11  A    between atoms: C_43  and  O_44
REMARK                            x       y       z     vdW  Elec       q    Type
REMARK                         _______ _______ _______ _____ _____    ______ ____
ROOT
ATOM      1  C   UNL     1      -5.089  -2.254 130.385  0.00  0.00    +0.000 C 
ATOM      2  O   UNL     1      -4.471  -3.278 131.190  0.00  0.00    +0.000 OA
ATOM      3  C   UNL     1      -5.565  -3.941 131.657  0.00  0.00    +0.000 A 
ATOM      4  C   UNL     1      -6.770  -3.527 131.101  0.00  0.00    +0.000 A 
ATOM      5  C   UNL     1      -7.080  -2.358 131.565  0.00  0.00    +0.000 A 
ATOM      6  C   UNL     1      -6.632  -0.818 130.129  0.00  0.00    +0.000 C 
ATOM      7  C   UNL     1      -7.607   0.094 129.532  0.00  0.00    +0.000 C 
ATOM      8  N   UNL     1      -8.088  -0.422 128.227  0.00  0.00    +0.000 NA
ATOM      9  C   UNL     1      -7.711  -1.807 127.803  0.00  0.00    +0.000 C 
ATOM     10  C   UNL     1      -7.859  -2.864 128.919  0.00  0.00    +0.000 C 
ATOM     11  C   UNL     1      -7.010  -2.557 130.146  0.00  0.00    +0.000 C 
ATOM     12  C   UNL     1      -7.620  -0.652 130.812  0.00  0.00    +0.000 C 
ATOM     13  C   UNL     1      -6.403  -0.025 132.117  0.00  0.00    +0.000 C 
ATOM     14  C   UNL     1      -5.312   0.833 131.439  0.00  0.00    +0.000 C 
ATOM     15  C   UNL     1      -4.505  -0.473 130.844  0.00  0.00    +0.000 C 
ATOM     16  C   UNL     1      -7.453  -2.993 132.943  0.00  0.00    +0.000 A 
ATOM     17  C   UNL     1      -6.718  -4.305 133.506  0.00  0.00    +0.000 A 
ATOM     18  C   UNL     1      -5.564  -4.602 132.855  0.00  0.00    +0.000 A 
ENDROOT
BRANCH  14  19
ATOM     19  C   UNL     1      -6.392   2.215 132.204  0.00  0.00    +0.000 C 
ATOM     20  O   UNL     1      -6.076   2.589 133.352  0.00  0.00    +0.000 OA
ATOM     21  N   UNL     1      -7.599   2.959 131.706  0.00  0.00    +0.000 N 
ATOM     22  H   UNL     1      -8.100   2.623 130.901  0.00  0.00    +0.000 HD
BRANCH  21  23
ATOM     23  C   UNL     1      -8.463   4.368 132.295  0.00  0.00    +0.000 C 
ATOM     24  C   UNL     1      -9.176   4.254 133.688  0.00  0.00    +0.000 C 
ATOM     25  C   UNL     1      -7.533   5.604 132.396  0.00  0.00    +0.000 C 
BRANCH  23  26
ATOM     26  C   UNL     1      -9.635   4.799 131.318  0.00  0.00    +0.000 A 
ATOM     27  N   UNL     1     -10.070   6.007 130.957  0.00  0.00    +0.000 NA
ATOM     28  C   UNL     1     -11.186   5.731 130.169  0.00  0.00    +0.000 A 
ATOM     29  N   UNL     1     -11.404   4.415 130.023  0.00  0.00    +0.000 NA
ATOM     30  O   UNL     1     -10.376   3.807 130.754  0.00  0.00    +0.000 OA
BRANCH  28  31
ATOM     31  C   UNL     1     -12.053   6.771 129.595  0.00  0.00    +0.000 A 
ATOM     32  C   UNL     1     -12.155   8.041 130.179  0.00  0.00    +0.000 A 
ATOM     33  C   UNL     1     -12.693   9.105 129.446  0.00  0.00    +0.000 A 
ATOM     34  C   UNL     1     -13.493   8.841 128.340  0.00  0.00    +0.000 A 
ATOM     35  C   UNL     1     -13.564   7.542 127.850  0.00  0.00    +0.000 A 
ATOM     36  C   UNL     1     -12.751   6.544 128.404  0.00  0.00    +0.000 A 
ENDBRANCH  28  31
ENDBRANCH  23  26
ENDBRANCH  21  23
ENDBRANCH  14  19
BRANCH  12  37
ATOM     37  O   UNL     1      -8.875  -0.370 131.367  0.00  0.00    +0.000 OA
ATOM     38  H   UNL     1      -9.287   0.119 130.651  0.00  0.00    +0.000 HD
ENDBRANCH  12  37
BRANCH  15  39
ATOM     39  O   UNL     1      -3.464  -0.497 129.918  0.00  0.00    +0.000 OA
ATOM     40  H   UNL     1      -2.569  -0.708 130.168  0.00  0.00    +0.000 HD
ENDBRANCH  15  39
BRANCH  18  41
ATOM     41  O   UNL     1      -4.505  -5.301 133.323  0.00  0.00    +0.000 OA
ATOM     42  H   UNL     1      -4.513  -6.237 133.058  0.00  0.00    +0.000 HD
ENDBRANCH  18  41
BRANCH   8  43
ATOM     43  C   UNL     1      -7.958   0.548 127.102  0.00  0.00    +0.000 C 
BRANCH  43  44
ATOM     44  C   UNL     1      -9.194   0.808 126.268  0.00  0.00    +0.000 C 
ATOM     45  C   UNL     1      -9.027   1.686 125.041  0.00  0.00    +0.000 C 
ATOM     46  C   UNL     1      -9.367   0.232 124.865  0.00  0.00    +0.000 C 
ENDBRANCH  43  44
ENDBRANCH   8  43
TORSDOF 9
ENDMDL
MODEL 7
REMARK VINA RESULT:     -10.4      3.667      6.781
REMARK  Name = Naldemedine
REMARK  11 active torsions:
REMARK  status: ('A' for Active; 'I' for Inactive)
REMARK    1  A    between atoms: N_10  and  C_11
REMARK    2  A    between atoms: C_11  and  C_12
REMARK    3  A    between atoms: C_18  and  O_19
REMARK    4  A    between atoms: C_21  and  C_22
REMARK    5  A    between atoms: N_24  and  C_25
REMARK    6  A    between atoms: C_25  and  C_26
REMARK    7  A    between atoms: C_25  and  C_27
REMARK    8  A    between atoms: C_25  and  C_28
REMARK    9  A    between atoms: C_30  and  C_33
REMARK   10  A    between atoms: C_39  and  O_40
REMARK   11  A    between atoms: C_43  and  O_44
REMARK                            x       y       z     vdW  Elec       q    Type
REMARK                         _______ _______ _______ _____ _____    ______ ____
ROOT
ATOM      1  C   UNL     1      -5.639  -3.324 130.295  0.00  0.00    +0.000 C 
ATOM      2  O   UNL     1      -5.346  -3.916 131.576  0.00  0.00    +0.000 OA
ATOM      3  C   UNL     1      -6.518  -3.705 132.236  0.00  0.00    +0.000 A 
ATOM      4  C   UNL     1      -7.539  -3.189 131.446  0.00  0.00    +0.000 A 
ATOM      5  C   UNL     1      -7.285  -1.949 131.169  0.00  0.00    +0.000 A 
ATOM      6  C   UNL     1      -6.516  -1.752 129.169  0.00  0.00    +0.000 C 
ATOM      7  C   UNL     1      -7.141  -0.983 128.093  0.00  0.00    +0.000 C 
ATOM      8  N   UNL     1      -7.995  -1.853 127.246  0.00  0.00    +0.000 NA
ATOM      9  C   UNL     1      -8.266  -3.259 127.680  0.00  0.00    +0.000 C 
ATOM     10  C   UNL     1      -8.628  -3.393 129.175  0.00  0.00    +0.000 C 
ATOM     11  C   UNL     1      -7.536  -2.873 130.101  0.00  0.00    +0.000 C 
ATOM     12  C   UNL     1      -7.232  -0.857 129.566  0.00  0.00    +0.000 C 
ATOM     13  C   UNL     1      -5.668  -0.213 130.412  0.00  0.00    +0.000 C 
ATOM     14  C   UNL     1      -4.458  -0.389 129.469  0.00  0.00    +0.000 C 
ATOM     15  C   UNL     1      -4.337  -2.006 129.753  0.00  0.00    +0.000 C 
ATOM     16  C   UNL     1      -7.643  -1.539 132.635  0.00  0.00    +0.000 A 
ATOM     17  C   UNL     1      -7.397  -2.521 133.881  0.00  0.00    +0.000 A 
ATOM     18  C   UNL     1      -6.577  -3.564 133.596  0.00  0.00    +0.000 A 
ENDROOT
BRANCH  14  19
ATOM     19  C   UNL     1      -4.767   1.488 129.263  0.00  0.00    +0.000 C 
ATOM     20  O   UNL     1      -3.753   2.200 129.112  0.00  0.00    +0.000 OA
ATOM     21  N   UNL     1      -6.018   2.321 129.268  0.00  0.00    +0.000 N 
ATOM     22  H   UNL     1      -6.883   1.927 129.594  0.00  0.00    +0.000 HD
BRANCH  21  23
ATOM     23  C   UNL     1      -6.339   3.999 128.866  0.00  0.00    +0.000 C 
ATOM     24  C   UNL     1      -5.482   5.096 129.589  0.00  0.00    +0.000 C 
ATOM     25  C   UNL     1      -6.168   4.262 127.347  0.00  0.00    +0.000 C 
BRANCH  23  26
ATOM     26  C   UNL     1      -7.830   4.417 129.204  0.00  0.00    +0.000 A 
ATOM     27  N   UNL     1      -8.400   5.620 129.291  0.00  0.00    +0.000 NA
ATOM     28  C   UNL     1      -9.696   5.337 129.722  0.00  0.00    +0.000 A 
ATOM     29  N   UNL     1      -9.921   4.021 129.857  0.00  0.00    +0.000 NA
ATOM     30  O   UNL     1      -8.709   3.421 129.494  0.00  0.00    +0.000 OA
BRANCH  28  31
ATOM     31  C   UNL     1     -10.692   6.373 130.034  0.00  0.00    +0.000 A 
ATOM     32  C   UNL     1     -10.749   7.573 129.313  0.00  0.00    +0.000 A 
ATOM     33  C   UNL     1     -11.894   8.376 129.384  0.00  0.00    +0.000 A 
ATOM     34  C   UNL     1     -12.771   8.227 130.451  0.00  0.00    +0.000 A 
ATOM     35  C   UNL     1     -12.620   7.141 131.306  0.00  0.00    +0.000 A 
ATOM     36  C   UNL     1     -11.661   6.159 131.021  0.00  0.00    +0.000 A 
ENDBRANCH  28  31
ENDBRANCH  23  26
ENDBRANCH  21  23
ENDBRANCH  14  19
BRANCH  12  37
ATOM     37  O   UNL     1      -8.165   0.167 129.770  0.00  0.00    +0.000 OA
ATOM     38  H   UNL     1      -7.788   0.610 130.535  0.00  0.00    +0.000 HD
ENDBRANCH  12  37
BRANCH  15  39
ATOM     39  O   UNL     1      -3.557  -2.946 129.080  0.00  0.00    +0.000 OA
ATOM     40  H   UNL     1      -2.884  -3.454 129.523  0.00  0.00    +0.000 HD
ENDBRANCH  15  39
BRANCH  18  41
ATOM     41  O   UNL     1      -5.815  -4.278 134.456  0.00  0.00    +0.000 OA
ATOM     42  H   UNL     1      -6.189  -4.330 135.352  0.00  0.00    +0.000 HD
ENDBRANCH  18  41
BRANCH   8  43
ATOM     43  C   UNL     1      -7.684  -1.781 125.790  0.00  0.00    +0.000 C 
BRANCH  43  44
ATOM     44  C   UNL     1      -7.997  -3.005 124.956  0.00  0.00    +0.000 C 
ATOM     45  C   UNL     1      -9.355  -3.051 124.279  0.00  0.00    +0.000 C 
ATOM     46  C   UNL     1      -8.115  -2.946 123.435  0.00  0.00    +0.000 C 
ENDBRANCH  43  44
ENDBRANCH   8  43
TORSDOF 9
ENDMDL
MODEL 8
REMARK VINA RESULT:     -10.3      4.044      8.194
REMARK  Name = Naldemedine
REMARK  11 active torsions:
REMARK  status: ('A' for Active; 'I' for Inactive)
REMARK    1  A    between atoms: N_10  and  C_11
REMARK    2  A    between atoms: C_11  and  C_12
REMARK    3  A    between atoms: C_18  and  O_19
REMARK    4  A    between atoms: C_21  and  C_22
REMARK    5  A    between atoms: N_24  and  C_25
REMARK    6  A    between atoms: C_25  and  C_26
REMARK    7  A    between atoms: C_25  and  C_27
REMARK    8  A    between atoms: C_25  and  C_28
REMARK    9  A    between atoms: C_30  and  C_33
REMARK   10  A    between atoms: C_39  and  O_40
REMARK   11  A    between atoms: C_43  and  O_44
REMARK                            x       y       z     vdW  Elec       q    Type
REMARK                         _______ _______ _______ _____ _____    ______ ____
ROOT
ATOM      1  C   UNL     1      -4.182   6.914 130.415  0.00  0.00    +0.000 C 
ATOM      2  O   UNL     1      -3.441   7.756 131.320  0.00  0.00    +0.000 OA
ATOM      3  C   UNL     1      -2.276   7.060 131.433  0.00  0.00    +0.000 A 
ATOM      4  C   UNL     1      -2.172   5.970 130.576  0.00  0.00    +0.000 A 
ATOM      5  C   UNL     1      -2.963   5.027 130.980  0.00  0.00    +0.000 A 
ATOM      6  C   UNL     1      -4.756   4.967 129.792  0.00  0.00    +0.000 C 
ATOM      7  C   UNL     1      -5.199   3.832 128.981  0.00  0.00    +0.000 C 
ATOM      8  N   UNL     1      -4.752   3.980 127.573  0.00  0.00    +0.000 NA
ATOM      9  C   UNL     1      -3.798   5.077 127.218  0.00  0.00    +0.000 C 
ATOM     10  C   UNL     1      -2.619   5.222 128.204  0.00  0.00    +0.000 C 
ATOM     11  C   UNL     1      -3.068   5.505 129.632  0.00  0.00    +0.000 C 
ATOM     12  C   UNL     1      -4.323   3.901 130.175  0.00  0.00    +0.000 C 
ATOM     13  C   UNL     1      -5.208   4.317 131.793  0.00  0.00    +0.000 C 
ATOM     14  C   UNL     1      -6.577   4.962 131.485  0.00  0.00    +0.000 C 
ATOM     15  C   UNL     1      -5.920   6.419 131.091  0.00  0.00    +0.000 C 
ATOM     16  C   UNL     1      -1.999   4.716 132.171  0.00  0.00    +0.000 A 
ATOM     17  C   UNL     1      -1.105   5.854 132.866  0.00  0.00    +0.000 A 
ATOM     18  C   UNL     1      -1.496   7.116 132.556  0.00  0.00    +0.000 A 
ENDROOT
BRANCH  14  19
ATOM     19  C   UNL     1      -7.143   3.199 131.970  0.00  0.00    +0.000 C 
ATOM     20  O   UNL     1      -7.630   3.071 133.112  0.00  0.00    +0.000 OA
ATOM     21  N   UNL     1      -7.104   1.882 131.247  0.00  0.00    +0.000 N 
ATOM     22  H   UNL     1      -6.548   1.781 130.416  0.00  0.00    +0.000 HD
BRANCH  21  23
ATOM     23  C   UNL     1      -7.810   0.312 131.584  0.00  0.00    +0.000 C 
ATOM     24  C   UNL     1      -7.252  -0.488 132.813  0.00  0.00    +0.000 C 
ATOM     25  C   UNL     1      -9.342   0.413 131.807  0.00  0.00    +0.000 C 
BRANCH  23  26
ATOM     26  C   UNL     1      -7.624  -0.697 130.376  0.00  0.00    +0.000 A 
ATOM     27  N   UNL     1      -7.290  -0.481 129.103  0.00  0.00    +0.000 NA
ATOM     28  C   UNL     1      -7.396  -1.743 128.518  0.00  0.00    +0.000 A 
ATOM     29  N   UNL     1      -7.742  -2.694 129.399  0.00  0.00    +0.000 NA
ATOM     30  O   UNL     1      -7.867  -2.014 130.617  0.00  0.00    +0.000 OA
BRANCH  28  31
ATOM     31  C   UNL     1      -7.191  -1.994 127.084  0.00  0.00    +0.000 A 
ATOM     32  C   UNL     1      -8.263  -1.993 126.181  0.00  0.00    +0.000 A 
ATOM     33  C   UNL     1      -8.018  -1.885 124.807  0.00  0.00    +0.000 A 
ATOM     34  C   UNL     1      -6.760  -2.198 124.308  0.00  0.00    +0.000 A 
ATOM     35  C   UNL     1      -5.709  -2.396 125.196  0.00  0.00    +0.000 A 
ATOM     36  C   UNL     1      -5.903  -2.173 126.566  0.00  0.00    +0.000 A 
ENDBRANCH  28  31
ENDBRANCH  23  26
ENDBRANCH  21  23
ENDBRANCH  14  19
BRANCH  12  37
ATOM     37  O   UNL     1      -3.889   2.583 130.364  0.00  0.00    +0.000 OA
ATOM     38  H   UNL     1      -2.981   2.641 130.055  0.00  0.00    +0.000 HD
ENDBRANCH  12  37
BRANCH  15  39
ATOM     39  O   UNL     1      -6.544   7.515 130.496  0.00  0.00    +0.000 OA
ATOM     40  H   UNL     1      -6.519   8.384 130.885  0.00  0.00    +0.000 HD
ENDBRANCH  15  39
BRANCH  18  41
ATOM     41  O   UNL     1      -1.300   8.245 133.275  0.00  0.00    +0.000 OA
ATOM     42  H   UNL     1      -1.523   8.147 134.216  0.00  0.00    +0.000 HD
ENDBRANCH  18  41
BRANCH   8  43
ATOM     43  C   UNL     1      -5.849   3.864 126.571  0.00  0.00    +0.000 C 
BRANCH  43  44
ATOM     44  C   UNL     1      -5.783   2.700 125.606  0.00  0.00    +0.000 C 
ATOM     45  C   UNL     1      -5.223   1.392 126.138  0.00  0.00    +0.000 C 
ATOM     46  C   UNL     1      -6.674   1.468 125.752  0.00  0.00    +0.000 C 
ENDBRANCH  43  44
ENDBRANCH   8  43
TORSDOF 9
ENDMDL
MODEL 9
REMARK VINA RESULT:     -10.2      2.883      8.180
REMARK  Name = Naldemedine
REMARK  11 active torsions:
REMARK  status: ('A' for Active; 'I' for Inactive)
REMARK    1  A    between atoms: N_10  and  C_11
REMARK    2  A    between atoms: C_11  and  C_12
REMARK    3  A    between atoms: C_18  and  O_19
REMARK    4  A    between atoms: C_21  and  C_22
REMARK    5  A    between atoms: N_24  and  C_25
REMARK    6  A    between atoms: C_25  and  C_26
REMARK    7  A    between atoms: C_25  and  C_27
REMARK    8  A    between atoms: C_25  and  C_28
REMARK    9  A    between atoms: C_30  and  C_33
REMARK   10  A    between atoms: C_39  and  O_40
REMARK   11  A    between atoms: C_43  and  O_44
REMARK                            x       y       z     vdW  Elec       q    Type
REMARK                         _______ _______ _______ _____ _____    ______ ____
ROOT
ATOM      1  C   UNL     1     -10.337   5.783 132.191  0.00  0.00    +0.000 C 
ATOM      2  O   UNL     1     -11.199   6.919 131.983  0.00  0.00    +0.000 OA
ATOM      3  C   UNL     1     -11.552   6.746 130.679  0.00  0.00    +0.000 A 
ATOM      4  C   UNL     1     -11.123   5.547 130.121  0.00  0.00    +0.000 A 
ATOM      5  C   UNL     1      -9.841   5.592 129.937  0.00  0.00    +0.000 A 
ATOM      6  C   UNL     1      -8.804   4.500 131.474  0.00  0.00    +0.000 C 
ATOM      7  C   UNL     1      -7.943   3.339 131.255  0.00  0.00    +0.000 C 
ATOM      8  N   UNL     1      -8.701   2.075 131.430  0.00  0.00    +0.000 NA
ATOM      9  C   UNL     1     -10.187   2.128 131.590  0.00  0.00    +0.000 C 
ATOM     10  C   UNL     1     -10.889   3.076 130.592  0.00  0.00    +0.000 C 
ATOM     11  C   UNL     1     -10.406   4.516 130.698  0.00  0.00    +0.000 C 
ATOM     12  C   UNL     1      -8.326   4.457 130.361  0.00  0.00    +0.000 C 
ATOM     13  C   UNL     1      -7.570   6.132 130.806  0.00  0.00    +0.000 C 
ATOM     14  C   UNL     1      -7.085   6.109 132.272  0.00  0.00    +0.000 C 
ATOM     15  C   UNL     1      -8.603   6.264 132.889  0.00  0.00    +0.000 C 
ATOM     16  C   UNL     1     -10.040   6.567 128.730  0.00  0.00    +0.000 A 
ATOM     17  C   UNL     1     -11.257   7.613 128.669  0.00  0.00    +0.000 A 
ATOM     18  C   UNL     1     -11.876   7.795 129.863  0.00  0.00    +0.000 A 
ENDROOT
BRANCH  14  19
ATOM     19  C   UNL     1      -5.410   5.924 131.365  0.00  0.00    +0.000 C 
ATOM     20  O   UNL     1      -4.672   4.996 131.755  0.00  0.00    +0.000 OA
ATOM     21  N   UNL     1      -4.760   6.703 130.256  0.00  0.00    +0.000 N 
ATOM     22  H   UNL     1      -5.127   7.600 129.990  0.00  0.00    +0.000 HD
BRANCH  21  23
ATOM     23  C   UNL     1      -3.335   6.420 129.271  0.00  0.00    +0.000 C 
ATOM     24  C   UNL     1      -3.028   7.448 128.126  0.00  0.00    +0.000 C 
ATOM     25  C   UNL     1      -2.050   6.355 130.136  0.00  0.00    +0.000 C 
BRANCH  23  26
ATOM     26  C   UNL     1      -3.404   5.032 128.509  0.00  0.00    +0.000 A 
ATOM     27  N   UNL     1      -4.372   4.118 128.447  0.00  0.00    +0.000 NA
ATOM     28  C   UNL     1      -3.797   3.081 127.714  0.00  0.00    +0.000 A 
ATOM     29  N   UNL     1      -2.548   3.361 127.313  0.00  0.00    +0.000 NA
ATOM     30  O   UNL     1      -2.301   4.646 127.812  0.00  0.00    +0.000 OA
BRANCH  28  31
ATOM     31  C   UNL     1      -4.473   1.802 127.446  0.00  0.00    +0.000 A 
ATOM     32  C   UNL     1      -4.944   0.993 128.489  0.00  0.00    +0.000 A 
ATOM     33  C   UNL     1      -5.872  -0.020 128.221  0.00  0.00    +0.000 A 
ATOM     34  C   UNL     1      -6.007  -0.501 126.924  0.00  0.00    +0.000 A 
ATOM     35  C   UNL     1      -5.386   0.177 125.882  0.00  0.00    +0.000 A 
ATOM     36  C   UNL     1      -4.727   1.388 126.134  0.00  0.00    +0.000 A 
ENDBRANCH  28  31
ENDBRANCH  23  26
ENDBRANCH  21  23
ENDBRANCH  14  19
BRANCH  12  37
ATOM     37  O   UNL     1      -7.730   4.140 129.134  0.00  0.00    +0.000 OA
ATOM     38  H   UNL     1      -6.906   3.742 129.426  0.00  0.00    +0.000 HD
ENDBRANCH  12  37
BRANCH  15  39
ATOM     39  O   UNL     1      -9.016   6.125 134.213  0.00  0.00    +0.000 OA
ATOM     40  H   UNL     1      -9.195   5.274 134.600  0.00  0.00    +0.000 HD
ENDBRANCH  15  39
BRANCH  18  41
ATOM     41  O   UNL     1     -12.580   8.874 130.275  0.00  0.00    +0.000 OA
ATOM     42  H   UNL     1     -13.410   9.004 129.785  0.00  0.00    +0.000 HD
ENDBRANCH  18  41
BRANCH   8  43
ATOM     43  C   UNL     1      -8.081   1.122 132.395  0.00  0.00    +0.000 C 
BRANCH  43  44
ATOM     44  C   UNL     1      -8.344  -0.352 132.173  0.00  0.00    +0.000 C 
ATOM     45  C   UNL     1      -8.193  -0.876 130.756  0.00  0.00    +0.000 C 
ATOM     46  C   UNL     1      -7.230  -1.334 131.816  0.00  0.00    +0.000 C 
ENDBRANCH  43  44
ENDBRANCH   8  43
TORSDOF 9
ENDMDL
