MODEL 1
REMARK VINA RESULT:      -6.2      0.000      0.000
REMARK  Name = Nalidixic acid
REMARK  5 active torsions:
REMARK  status: ('A' for Active; 'I' for Inactive)
REMARK    1  A    between atoms: C_1  and  C_2
REMARK    2  A    between atoms: C_2  and  N_3
REMARK    3  A    between atoms: C_5  and  C_6
REMARK    4  A    between atoms: C_6  and  O_7
REMARK    5  A    between atoms: C_14  and  C_15
REMARK                            x       y       z     vdW  Elec       q    Type
REMARK                         _______ _______ _______ _____ _____    ______ ____
ROOT
ATOM      1  N   UNL     1      -8.688   4.898 129.663  0.00  0.00    +0.000 N 
ATOM      2  C   UNL     1      -8.473   4.578 130.996  0.00  0.00    +0.000 A 
ATOM      3  C   UNL     1      -9.136   5.081 132.045  0.00  0.00    +0.000 A 
ATOM      4  C   UNL     1     -10.179   6.073 131.752  0.00  0.00    +0.000 A 
ATOM      5  O   UNL     1     -10.818   6.591 132.668  0.00  0.00    +0.000 OA
ATOM      6  C   UNL     1     -10.395   6.467 130.353  0.00  0.00    +0.000 A 
ATOM      7  C   UNL     1      -9.653   5.875 129.322  0.00  0.00    +0.000 A 
ATOM      8  N   UNL     1      -9.837   6.277 128.042  0.00  0.00    +0.000 NA
ATOM      9  C   UNL     1     -10.629   7.362 127.814  0.00  0.00    +0.000 A 
ATOM     10  C   UNL     1     -10.891   7.769 126.395  0.00  0.00    +0.000 C 
ATOM     11  C   UNL     1     -11.273   8.060 128.825  0.00  0.00    +0.000 A 
ATOM     12  C   UNL     1     -11.265   7.520 130.093  0.00  0.00    +0.000 A 
ENDROOT
BRANCH   1  14
ATOM     13  C   UNL     1      -8.300   2.683 128.706  0.00  0.00    +0.000 C 
ATOM     14  C   UNL     1      -8.024   4.176 128.570  0.00  0.00    +0.000 C 
ENDBRANCH   1  14
BRANCH   3  15
ATOM     15  C   UNL     1      -8.807   4.632 133.412  0.00  0.00    +0.000 C 
ATOM     16  O   UNL     1      -7.704   4.764 133.910  0.00  0.00    +0.000 OA
BRANCH  15  17
ATOM     17  O   UNL     1      -9.836   4.053 134.074  0.00  0.00    +0.000 OA
ATOM     18  H   UNL     1      -9.593   3.674 134.956  0.00  0.00    +0.000 HD
ENDBRANCH  15  17
ENDBRANCH   3  15
TORSDOF 3
ENDMDL
MODEL 2
REMARK VINA RESULT:      -5.9      8.796     10.444
REMARK  Name = Nalidixic acid
REMARK  5 active torsions:
REMARK  status: ('A' for Active; 'I' for Inactive)
REMARK    1  A    between atoms: C_1  and  C_2
REMARK    2  A    between atoms: C_2  and  N_3
REMARK    3  A    between atoms: C_5  and  C_6
REMARK    4  A    between atoms: C_6  and  O_7
REMARK    5  A    between atoms: C_14  and  C_15
REMARK                            x       y       z     vdW  Elec       q    Type
REMARK                         _______ _______ _______ _____ _____    ______ ____
ROOT
ATOM      1  N   UNL     1      -6.498  -1.498 125.871  0.00  0.00    +0.000 N 
ATOM      2  C   UNL     1      -7.323  -1.563 124.756  0.00  0.00    +0.000 A 
ATOM      3  C   UNL     1      -8.544  -2.110 124.711  0.00  0.00    +0.000 A 
ATOM      4  C   UNL     1      -9.047  -2.706 125.956  0.00  0.00    +0.000 A 
ATOM      5  O   UNL     1     -10.155  -3.242 125.984  0.00  0.00    +0.000 OA
ATOM      6  C   UNL     1      -8.175  -2.695 127.138  0.00  0.00    +0.000 A 
ATOM      7  C   UNL     1      -6.913  -2.088 127.088  0.00  0.00    +0.000 A 
ATOM      8  N   UNL     1      -6.104  -2.120 128.174  0.00  0.00    +0.000 NA
ATOM      9  C   UNL     1      -6.483  -2.882 129.237  0.00  0.00    +0.000 A 
ATOM     10  C   UNL     1      -5.628  -2.866 130.468  0.00  0.00    +0.000 C 
ATOM     11  C   UNL     1      -7.665  -3.609 129.270  0.00  0.00    +0.000 A 
ATOM     12  C   UNL     1      -8.583  -3.399 128.264  0.00  0.00    +0.000 A 
ENDROOT
BRANCH   1  14
ATOM     13  C   UNL     1      -5.552   0.753 125.986  0.00  0.00    +0.000 C 
ATOM     14  C   UNL     1      -5.242  -0.735 125.868  0.00  0.00    +0.000 C 
ENDBRANCH   1  14
BRANCH   3  15
ATOM     15  C   UNL     1      -9.316  -2.092 123.453  0.00  0.00    +0.000 C 
ATOM     16  O   UNL     1      -9.263  -1.176 122.652  0.00  0.00    +0.000 OA
BRANCH  15  17
ATOM     17  O   UNL     1     -10.097  -3.180 123.259  0.00  0.00    +0.000 OA
ATOM     18  H   UNL     1      -9.614  -4.042 123.296  0.00  0.00    +0.000 HD
ENDBRANCH  15  17
ENDBRANCH   3  15
TORSDOF 3
ENDMDL
MODEL 3
REMARK VINA RESULT:      -5.9      7.253      9.929
REMARK  Name = Nalidixic acid
REMARK  5 active torsions:
REMARK  status: ('A' for Active; 'I' for Inactive)
REMARK    1  A    between atoms: C_1  and  C_2
REMARK    2  A    between atoms: C_2  and  N_3
REMARK    3  A    between atoms: C_5  and  C_6
REMARK    4  A    between atoms: C_6  and  O_7
REMARK    5  A    between atoms: C_14  and  C_15
REMARK                            x       y       z     vdW  Elec       q    Type
REMARK                         _______ _______ _______ _____ _____    ______ ____
ROOT
ATOM      1  N   UNL     1      -6.983  -1.195 126.400  0.00  0.00    +0.000 N 
ATOM      2  C   UNL     1      -7.661   0.015 126.439  0.00  0.00    +0.000 A 
ATOM      3  C   UNL     1      -8.036   0.744 125.380  0.00  0.00    +0.000 A 
ATOM      4  C   UNL     1      -7.682   0.213 124.056  0.00  0.00    +0.000 A 
ATOM      5  O   UNL     1      -7.979   0.839 123.038  0.00  0.00    +0.000 OA
ATOM      6  C   UNL     1      -6.921  -1.041 123.987  0.00  0.00    +0.000 A 
ATOM      7  C   UNL     1      -6.583  -1.736 125.155  0.00  0.00    +0.000 A 
ATOM      8  N   UNL     1      -5.847  -2.871 125.077  0.00  0.00    +0.000 NA
ATOM      9  C   UNL     1      -5.324  -3.218 123.869  0.00  0.00    +0.000 A 
ATOM     10  C   UNL     1      -4.568  -4.508 123.761  0.00  0.00    +0.000 C 
ATOM     11  C   UNL     1      -5.525  -2.478 122.711  0.00  0.00    +0.000 A 
ATOM     12  C   UNL     1      -6.448  -1.456 122.748  0.00  0.00    +0.000 A 
ENDROOT
BRANCH   1  14
ATOM     13  C   UNL     1      -8.041  -2.739 127.972  0.00  0.00    +0.000 C 
ATOM     14  C   UNL     1      -6.757  -2.002 127.606  0.00  0.00    +0.000 C 
ENDBRANCH   1  14
BRANCH   3  15
ATOM     15  C   UNL     1      -8.769   2.010 125.576  0.00  0.00    +0.000 C 
ATOM     16  O   UNL     1      -8.489   2.815 126.444  0.00  0.00    +0.000 OA
BRANCH  15  17
ATOM     17  O   UNL     1      -9.789   2.206 124.708  0.00  0.00    +0.000 OA
ATOM     18  H   UNL     1      -9.828   1.551 123.967  0.00  0.00    +0.000 HD
ENDBRANCH  15  17
ENDBRANCH   3  15
TORSDOF 3
ENDMDL
MODEL 4
REMARK VINA RESULT:      -5.8      6.894      8.460
REMARK  Name = Nalidixic acid
REMARK  5 active torsions:
REMARK  status: ('A' for Active; 'I' for Inactive)
REMARK    1  A    between atoms: C_1  and  C_2
REMARK    2  A    between atoms: C_2  and  N_3
REMARK    3  A    between atoms: C_5  and  C_6
REMARK    4  A    between atoms: C_6  and  O_7
REMARK    5  A    between atoms: C_14  and  C_15
REMARK                            x       y       z     vdW  Elec       q    Type
REMARK                         _______ _______ _______ _____ _____    ______ ____
ROOT
ATOM      1  N   UNL     1      -8.094   2.515 123.167  0.00  0.00    +0.000 N 
ATOM      2  C   UNL     1      -7.680   2.220 124.459  0.00  0.00    +0.000 A 
ATOM      3  C   UNL     1      -6.561   2.661 125.048  0.00  0.00    +0.000 A 
ATOM      4  C   UNL     1      -5.689   3.528 124.243  0.00  0.00    +0.000 A 
ATOM      5  O   UNL     1      -4.635   3.957 124.714  0.00  0.00    +0.000 OA
ATOM      6  C   UNL     1      -6.078   3.816 122.856  0.00  0.00    +0.000 A 
ATOM      7  C   UNL     1      -7.276   3.312 122.332  0.00  0.00    +0.000 A 
ATOM      8  N   UNL     1      -7.602   3.554 121.040  0.00  0.00    +0.000 NA
ATOM      9  C   UNL     1      -6.674   4.151 120.242  0.00  0.00    +0.000 A 
ATOM     10  C   UNL     1      -7.053   4.484 118.831  0.00  0.00    +0.000 C 
ATOM     11  C   UNL     1      -5.420   4.542 120.692  0.00  0.00    +0.000 A 
ATOM     12  C   UNL     1      -5.176   4.497 122.048  0.00  0.00    +0.000 A 
ENDROOT
BRANCH   1  14
ATOM     13  C   UNL     1      -9.701   0.677 123.069  0.00  0.00    +0.000 C 
ATOM     14  C   UNL     1      -9.414   2.117 122.662  0.00  0.00    +0.000 C 
ENDBRANCH   1  14
BRANCH   3  15
ATOM     15  C   UNL     1      -6.258   2.277 126.440  0.00  0.00    +0.000 C 
ATOM     16  O   UNL     1      -7.075   2.334 127.341  0.00  0.00    +0.000 OA
BRANCH  15  17
ATOM     17  O   UNL     1      -4.987   1.854 126.641  0.00  0.00    +0.000 OA
ATOM     18  H   UNL     1      -4.781   1.610 127.577  0.00  0.00    +0.000 HD
ENDBRANCH  15  17
ENDBRANCH   3  15
TORSDOF 3
ENDMDL
MODEL 5
REMARK VINA RESULT:      -5.5      6.783      8.990
REMARK  Name = Nalidixic acid
REMARK  5 active torsions:
REMARK  status: ('A' for Active; 'I' for Inactive)
REMARK    1  A    between atoms: C_1  and  C_2
REMARK    2  A    between atoms: C_2  and  N_3
REMARK    3  A    between atoms: C_5  and  C_6
REMARK    4  A    between atoms: C_6  and  O_7
REMARK    5  A    between atoms: C_14  and  C_15
REMARK                            x       y       z     vdW  Elec       q    Type
REMARK                         _______ _______ _______ _____ _____    ______ ____
ROOT
ATOM      1  N   UNL     1      -7.973  -1.592 125.380  0.00  0.00    +0.000 N 
ATOM      2  C   UNL     1      -8.740  -0.618 124.756  0.00  0.00    +0.000 A 
ATOM      3  C   UNL     1      -9.125   0.547 125.293  0.00  0.00    +0.000 A 
ATOM      4  C   UNL     1      -8.702   0.807 126.675  0.00  0.00    +0.000 A 
ATOM      5  O   UNL     1      -9.034   1.851 127.239  0.00  0.00    +0.000 OA
ATOM      6  C   UNL     1      -7.932  -0.227 127.377  0.00  0.00    +0.000 A 
ATOM      7  C   UNL     1      -7.570  -1.414 126.725  0.00  0.00    +0.000 A 
ATOM      8  N   UNL     1      -6.893  -2.375 127.397  0.00  0.00    +0.000 NA
ATOM      9  C   UNL     1      -6.721  -2.223 128.740  0.00  0.00    +0.000 A 
ATOM     10  C   UNL     1      -5.913  -3.248 129.477  0.00  0.00    +0.000 C 
ATOM     11  C   UNL     1      -7.185  -1.123 129.447  0.00  0.00    +0.000 A 
ATOM     12  C   UNL     1      -7.674  -0.051 128.731  0.00  0.00    +0.000 A 
ENDROOT
BRANCH   1  14
ATOM     13  C   UNL     1      -6.333  -2.340 123.731  0.00  0.00    +0.000 C 
ATOM     14  C   UNL     1      -7.465  -2.766 124.659  0.00  0.00    +0.000 C 
ENDBRANCH   1  14
BRANCH   3  15
ATOM     15  C   UNL     1      -9.929   1.497 124.499  0.00  0.00    +0.000 C 
ATOM     16  O   UNL     1     -10.895   1.162 123.838  0.00  0.00    +0.000 OA
BRANCH  15  17
ATOM     17  O   UNL     1      -9.503   2.780 124.561  0.00  0.00    +0.000 OA
ATOM     18  H   UNL     1      -8.854   2.961 125.286  0.00  0.00    +0.000 HD
ENDBRANCH  15  17
ENDBRANCH   3  15
TORSDOF 3
ENDMDL
MODEL 6
REMARK VINA RESULT:      -5.4      6.124      8.552
REMARK  Name = Nalidixic acid
REMARK  5 active torsions:
REMARK  status: ('A' for Active; 'I' for Inactive)
REMARK    1  A    between atoms: C_1  and  C_2
REMARK    2  A    between atoms: C_2  and  N_3
REMARK    3  A    between atoms: C_5  and  C_6
REMARK    4  A    between atoms: C_6  and  O_7
REMARK    5  A    between atoms: C_14  and  C_15
REMARK                            x       y       z     vdW  Elec       q    Type
REMARK                         _______ _______ _______ _____ _____    ______ ____
ROOT
ATOM      1  N   UNL     1      -8.015   0.632 126.480  0.00  0.00    +0.000 N 
ATOM      2  C   UNL     1      -7.921   2.009 126.327  0.00  0.00    +0.000 A 
ATOM      3  C   UNL     1      -8.284   2.709 125.244  0.00  0.00    +0.000 A 
ATOM      4  C   UNL     1      -8.821   1.941 124.112  0.00  0.00    +0.000 A 
ATOM      5  O   UNL     1      -9.159   2.516 123.078  0.00  0.00    +0.000 OA
ATOM      6  C   UNL     1      -8.885   0.478 124.228  0.00  0.00    +0.000 A 
ATOM      7  C   UNL     1      -8.487  -0.163 125.409  0.00  0.00    +0.000 A 
ATOM      8  N   UNL     1      -8.516  -1.515 125.487  0.00  0.00    +0.000 NA
ATOM      9  C   UNL     1      -8.784  -2.220 124.353  0.00  0.00    +0.000 A 
ATOM     10  C   UNL     1      -8.886  -3.712 124.448  0.00  0.00    +0.000 C 
ATOM     11  C   UNL     1      -9.049  -1.622 123.129  0.00  0.00    +0.000 A 
ATOM     12  C   UNL     1      -9.238  -0.256 123.103  0.00  0.00    +0.000 A 
ENDROOT
BRANCH   1  14
ATOM     13  C   UNL     1      -8.086   0.918 128.906  0.00  0.00    +0.000 C 
ATOM     14  C   UNL     1      -7.743  -0.030 127.762  0.00  0.00    +0.000 C 
ENDBRANCH   1  14
BRANCH   3  15
ATOM     15  C   UNL     1      -8.141   4.178 125.231  0.00  0.00    +0.000 C 
ATOM     16  O   UNL     1      -8.822   4.920 125.914  0.00  0.00    +0.000 OA
BRANCH  15  17
ATOM     17  O   UNL     1      -7.187   4.640 124.390  0.00  0.00    +0.000 OA
ATOM     18  H   UNL     1      -6.265   4.579 124.744  0.00  0.00    +0.000 HD
ENDBRANCH  15  17
ENDBRANCH   3  15
TORSDOF 3
ENDMDL
MODEL 7
REMARK VINA RESULT:      -5.2      8.385      8.875
REMARK  Name = Nalidixic acid
REMARK  5 active torsions:
REMARK  status: ('A' for Active; 'I' for Inactive)
REMARK    1  A    between atoms: C_1  and  C_2
REMARK    2  A    between atoms: C_2  and  N_3
REMARK    3  A    between atoms: C_5  and  C_6
REMARK    4  A    between atoms: C_6  and  O_7
REMARK    5  A    between atoms: C_14  and  C_15
REMARK                            x       y       z     vdW  Elec       q    Type
REMARK                         _______ _______ _______ _____ _____    ______ ____
ROOT
ATOM      1  N   UNL     1      -8.096  -2.297 126.373  0.00  0.00    +0.000 N 
ATOM      2  C   UNL     1      -7.026  -2.410 127.250  0.00  0.00    +0.000 A 
ATOM      3  C   UNL     1      -5.982  -1.575 127.332  0.00  0.00    +0.000 A 
ATOM      4  C   UNL     1      -5.967  -0.443 126.397  0.00  0.00    +0.000 A 
ATOM      5  O   UNL     1      -5.030   0.356 126.404  0.00  0.00    +0.000 OA
ATOM      6  C   UNL     1      -7.062  -0.326 125.424  0.00  0.00    +0.000 A 
ATOM      7  C   UNL     1      -8.117  -1.248 125.423  0.00  0.00    +0.000 A 
ATOM      8  N   UNL     1      -9.099  -1.150 124.495  0.00  0.00    +0.000 NA
ATOM      9  C   UNL     1      -8.947  -0.245 123.489  0.00  0.00    +0.000 A 
ATOM     10  C   UNL     1     -10.061  -0.083 122.500  0.00  0.00    +0.000 C 
ATOM     11  C   UNL     1      -7.847   0.594 123.380  0.00  0.00    +0.000 A 
ATOM     12  C   UNL     1      -6.964   0.647 124.437  0.00  0.00    +0.000 A 
ENDROOT
BRANCH   1  14
ATOM     13  C   UNL     1      -9.181  -4.018 127.726  0.00  0.00    +0.000 C 
ATOM     14  C   UNL     1      -9.275  -3.168 126.464  0.00  0.00    +0.000 C 
ENDBRANCH   1  14
BRANCH   3  15
ATOM     15  C   UNL     1      -4.921  -1.814 128.331  0.00  0.00    +0.000 C 
ATOM     16  O   UNL     1      -4.445  -2.914 128.546  0.00  0.00    +0.000 OA
BRANCH  15  17
ATOM     17  O   UNL     1      -4.518  -0.707 128.996  0.00  0.00    +0.000 OA
ATOM     18  H   UNL     1      -4.064  -0.033 128.431  0.00  0.00    +0.000 HD
ENDBRANCH  15  17
ENDBRANCH   3  15
TORSDOF 3
ENDMDL
MODEL 8
REMARK VINA RESULT:      -5.2      6.871      9.635
REMARK  Name = Nalidixic acid
REMARK  5 active torsions:
REMARK  status: ('A' for Active; 'I' for Inactive)
REMARK    1  A    between atoms: C_1  and  C_2
REMARK    2  A    between atoms: C_2  and  N_3
REMARK    3  A    between atoms: C_5  and  C_6
REMARK    4  A    between atoms: C_6  and  O_7
REMARK    5  A    between atoms: C_14  and  C_15
REMARK                            x       y       z     vdW  Elec       q    Type
REMARK                         _______ _______ _______ _____ _____    ______ ____
ROOT
ATOM      1  N   UNL     1      -7.776   0.124 127.103  0.00  0.00    +0.000 N 
ATOM      2  C   UNL     1      -8.091   0.433 125.786  0.00  0.00    +0.000 A 
ATOM      3  C   UNL     1      -8.687  -0.381 124.906  0.00  0.00    +0.000 A 
ATOM      4  C   UNL     1      -9.026  -1.730 125.380  0.00  0.00    +0.000 A 
ATOM      5  O   UNL     1      -9.560  -2.538 124.620  0.00  0.00    +0.000 OA
ATOM      6  C   UNL     1      -8.660  -2.100 126.753  0.00  0.00    +0.000 A 
ATOM      7  C   UNL     1      -8.044  -1.172 127.603  0.00  0.00    +0.000 A 
ATOM      8  N   UNL     1      -7.678  -1.540 128.854  0.00  0.00    +0.000 NA
ATOM      9  C   UNL     1      -7.778  -2.855 129.194  0.00  0.00    +0.000 A 
ATOM     10  C   UNL     1      -7.441  -3.258 130.598  0.00  0.00    +0.000 C 
ATOM     11  C   UNL     1      -8.257  -3.830 128.330  0.00  0.00    +0.000 A 
ATOM     12  C   UNL     1      -8.833  -3.422 127.146  0.00  0.00    +0.000 A 
ENDROOT
BRANCH   1  14
ATOM     13  C   UNL     1      -7.790   2.509 127.637  0.00  0.00    +0.000 C 
ATOM     14  C   UNL     1      -7.270   1.134 128.041  0.00  0.00    +0.000 C 
ENDBRANCH   1  14
BRANCH   3  15
ATOM     15  C   UNL     1      -8.974   0.093 123.538  0.00  0.00    +0.000 C 
ATOM     16  O   UNL     1      -8.293   0.921 122.963  0.00  0.00    +0.000 OA
BRANCH  15  17
ATOM     17  O   UNL     1     -10.067  -0.468 122.969  0.00  0.00    +0.000 OA
ATOM     18  H   UNL     1      -9.878  -1.272 122.425  0.00  0.00    +0.000 HD
ENDBRANCH  15  17
ENDBRANCH   3  15
TORSDOF 3
ENDMDL
MODEL 9
REMARK VINA RESULT:      -5.2      7.410      8.659
REMARK  Name = Nalidixic acid
REMARK  5 active torsions:
REMARK  status: ('A' for Active; 'I' for Inactive)
REMARK    1  A    between atoms: C_1  and  C_2
REMARK    2  A    between atoms: C_2  and  N_3
REMARK    3  A    between atoms: C_5  and  C_6
REMARK    4  A    between atoms: C_6  and  O_7
REMARK    5  A    between atoms: C_14  and  C_15
REMARK                            x       y       z     vdW  Elec       q    Type
REMARK                         _______ _______ _______ _____ _____    ______ ____
ROOT
ATOM      1  N   UNL     1      -6.573  -1.829 124.747  0.00  0.00    +0.000 N 
ATOM      2  C   UNL     1      -5.877  -2.095 125.919  0.00  0.00    +0.000 A 
ATOM      3  C   UNL     1      -6.210  -1.674 127.146  0.00  0.00    +0.000 A 
ATOM      4  C   UNL     1      -7.419  -0.845 127.254  0.00  0.00    +0.000 A 
ATOM      5  O   UNL     1      -7.775  -0.408 128.349  0.00  0.00    +0.000 OA
ATOM      6  C   UNL     1      -8.147  -0.508 126.024  0.00  0.00    +0.000 A 
ATOM      7  C   UNL     1      -7.723  -1.005 124.784  0.00  0.00    +0.000 A 
ATOM      8  N   UNL     1      -8.382  -0.654 123.654  0.00  0.00    +0.000 NA
ATOM      9  C   UNL     1      -9.347   0.303 123.742  0.00  0.00    +0.000 A 
ATOM     10  C   UNL     1     -10.127   0.645 122.509  0.00  0.00    +0.000 C 
ATOM     11  C   UNL     1      -9.702   0.919 124.934  0.00  0.00    +0.000 A 
ATOM     12  C   UNL     1      -9.191   0.406 126.106  0.00  0.00    +0.000 A 
ENDROOT
BRANCH   1  14
ATOM     13  C   UNL     1      -4.930  -3.257 123.637  0.00  0.00    +0.000 C 
ATOM     14  C   UNL     1      -6.223  -2.467 123.472  0.00  0.00    +0.000 C 
ENDBRANCH   1  14
BRANCH   3  15
ATOM     15  C   UNL     1      -5.380  -2.049 128.307  0.00  0.00    +0.000 C 
ATOM     16  O   UNL     1      -5.553  -3.069 128.949  0.00  0.00    +0.000 OA
BRANCH  15  17
ATOM     17  O   UNL     1      -4.403  -1.162 128.607  0.00  0.00    +0.000 OA
ATOM     18  H   UNL     1      -4.260  -1.023 129.577  0.00  0.00    +0.000 HD
ENDBRANCH  15  17
ENDBRANCH   3  15
TORSDOF 3
ENDMDL
