MODEL 1
REMARK VINA RESULT:      -8.7      0.000      0.000
REMARK  Name = Nalmefene
REMARK  4 active torsions:
REMARK  status: ('A' for Active; 'I' for Inactive)
REMARK    1  A    between atoms: O_1  and  C_2
REMARK    2  A    between atoms: N_8  and  C_9
REMARK    3  A    between atoms: C_9  and  C_10
REMARK    4  A    between atoms: C_24  and  O_25
REMARK                            x       y       z     vdW  Elec       q    Type
REMARK                         _______ _______ _______ _____ _____    ______ ____
ROOT
ATOM      1  C   UNL     1     -11.078   7.769 127.484  0.00  0.00    +0.000 A 
ATOM      2  C   UNL     1     -12.203   8.358 128.117  0.00  0.00    +0.000 A 
ATOM      3  C   UNL     1     -12.567   7.989 129.482  0.00  0.00    +0.000 A 
ATOM      4  C   UNL     1     -11.791   7.101 130.225  0.00  0.00    +0.000 A 
ATOM      5  C   UNL     1     -11.690   6.675 131.772  0.00  0.00    +0.000 C 
ATOM      6  C   UNL     1     -10.224   5.689 132.437  0.00  0.00    +0.000 C 
ATOM      7  N   UNL     1      -8.583   6.351 132.885  0.00  0.00    +0.000 NA
ATOM      8  C   UNL     1      -8.039   6.365 131.545  0.00  0.00    +0.000 C 
ATOM      9  C   UNL     1      -8.965   6.909 130.581  0.00  0.00    +0.000 C 
ATOM     10  C   UNL     1      -9.792   5.684 130.058  0.00  0.00    +0.000 C 
ATOM     11  C   UNL     1      -9.262   4.999 128.821  0.00  0.00    +0.000 C 
ATOM     12  O   UNL     1      -9.275   6.058 127.805  0.00  0.00    +0.000 OA
ATOM     13  C   UNL     1     -10.451   6.775 128.128  0.00  0.00    +0.000 A 
ATOM     14  C   UNL     1     -10.836   6.462 129.443  0.00  0.00    +0.000 A 
ATOM     15  C   UNL     1      -7.956   4.347 129.253  0.00  0.00    +0.000 C 
ATOM     16  C   UNL     1      -6.760   4.690 128.722  0.00  0.00    +0.000 C 
ATOM     17  C   UNL     1      -8.007   3.429 130.496  0.00  0.00    +0.000 C 
ATOM     18  C   UNL     1      -9.334   3.427 131.305  0.00  0.00    +0.000 C 
ATOM     19  C   UNL     1     -10.217   4.686 131.169  0.00  0.00    +0.000 C 
ENDROOT
BRANCH   1  20
ATOM     20  O   UNL     1     -10.621   8.211 126.263  0.00  0.00    +0.000 OA
ATOM     21  H   UNL     1     -10.162   9.048 126.357  0.00  0.00    +0.000 HD
ENDBRANCH   1  20
BRANCH  19  22
ATOM     22  O   UNL     1     -11.530   4.168 130.802  0.00  0.00    +0.000 OA
ATOM     23  H   UNL     1     -12.157   4.866 130.549  0.00  0.00    +0.000 HD
ENDBRANCH  19  22
BRANCH   7  24
ATOM     24  C   UNL     1      -7.115   5.611 133.439  0.00  0.00    +0.000 C 
BRANCH  24  25
ATOM     25  C   UNL     1      -7.099   4.319 134.487  0.00  0.00    +0.000 C 
ATOM     26  C   UNL     1      -6.998   2.798 134.032  0.00  0.00    +0.000 C 
ATOM     27  C   UNL     1      -5.925   3.372 134.895  0.00  0.00    +0.000 C 
ENDBRANCH  24  25
ENDBRANCH   7  24
TORSDOF 4
ENDMDL
MODEL 2
REMARK VINA RESULT:      -8.6      8.511     10.625
REMARK  Name = Nalmefene
REMARK  4 active torsions:
REMARK  status: ('A' for Active; 'I' for Inactive)
REMARK    1  A    between atoms: O_1  and  C_2
REMARK    2  A    between atoms: N_8  and  C_9
REMARK    3  A    between atoms: C_9  and  C_10
REMARK    4  A    between atoms: C_24  and  O_25
REMARK                            x       y       z     vdW  Elec       q    Type
REMARK                         _______ _______ _______ _____ _____    ______ ____
ROOT
ATOM      1  C   UNL     1      -8.845  -3.726 128.269  0.00  0.00    +0.000 A 
ATOM      2  C   UNL     1      -8.003  -3.316 129.335  0.00  0.00    +0.000 A 
ATOM      3  C   UNL     1      -6.842  -2.466 129.083  0.00  0.00    +0.000 A 
ATOM      4  C   UNL     1      -6.563  -1.981 127.806  0.00  0.00    +0.000 A 
ATOM      5  C   UNL     1      -5.602  -0.850 127.189  0.00  0.00    +0.000 C 
ATOM      6  C   UNL     1      -5.799  -0.242 125.412  0.00  0.00    +0.000 C 
ATOM      7  N   UNL     1      -7.019   0.974 124.809  0.00  0.00    +0.000 NA
ATOM      8  C   UNL     1      -8.122   0.048 124.674  0.00  0.00    +0.000 C 
ATOM      9  C   UNL     1      -8.251  -0.823 125.818  0.00  0.00    +0.000 C 
ATOM     10  C   UNL     1      -7.370  -2.078 125.488  0.00  0.00    +0.000 C 
ATOM     11  C   UNL     1      -8.074  -3.232 124.816  0.00  0.00    +0.000 C 
ATOM     12  O   UNL     1      -9.114  -3.612 125.780  0.00  0.00    +0.000 OA
ATOM     13  C   UNL     1      -8.463  -3.421 127.021  0.00  0.00    +0.000 A 
ATOM     14  C   UNL     1      -7.342  -2.594 126.832  0.00  0.00    +0.000 A 
ATOM     15  C   UNL     1      -8.443  -2.723 123.430  0.00  0.00    +0.000 C 
ATOM     16  C   UNL     1      -9.724  -2.613 123.011  0.00  0.00    +0.000 C 
ATOM     17  C   UNL     1      -7.304  -2.113 122.581  0.00  0.00    +0.000 C 
ATOM     18  C   UNL     1      -5.946  -1.886 123.300  0.00  0.00    +0.000 C 
ATOM     19  C   UNL     1      -6.003  -1.738 124.835  0.00  0.00    +0.000 C 
ENDROOT
BRANCH   1  20
ATOM     20  O   UNL     1     -10.028  -4.392 128.497  0.00  0.00    +0.000 OA
ATOM     21  H   UNL     1     -10.769  -3.894 128.150  0.00  0.00    +0.000 HD
ENDBRANCH   1  20
BRANCH  19  22
ATOM     22  O   UNL     1      -5.036  -2.712 125.328  0.00  0.00    +0.000 OA
ATOM     23  H   UNL     1      -5.277  -3.629 125.115  0.00  0.00    +0.000 HD
ENDBRANCH  19  22
BRANCH   7  24
ATOM     24  C   UNL     1      -7.392   1.599 123.234  0.00  0.00    +0.000 C 
BRANCH  24  25
ATOM     25  C   UNL     1      -7.028   3.156 122.773  0.00  0.00    +0.000 C 
ATOM     26  C   UNL     1      -5.786   3.984 123.322  0.00  0.00    +0.000 C 
ATOM     27  C   UNL     1      -5.876   3.689 121.863  0.00  0.00    +0.000 C 
ENDBRANCH  24  25
ENDBRANCH   7  24
TORSDOF 4
ENDMDL
MODEL 3
REMARK VINA RESULT:      -8.3      6.968      8.450
REMARK  Name = Nalmefene
REMARK  4 active torsions:
REMARK  status: ('A' for Active; 'I' for Inactive)
REMARK    1  A    between atoms: O_1  and  C_2
REMARK    2  A    between atoms: N_8  and  C_9
REMARK    3  A    between atoms: C_9  and  C_10
REMARK    4  A    between atoms: C_24  and  O_25
REMARK                            x       y       z     vdW  Elec       q    Type
REMARK                         _______ _______ _______ _____ _____    ______ ____
ROOT
ATOM      1  C   UNL     1      -7.124   2.352 122.925  0.00  0.00    +0.000 A 
ATOM      2  C   UNL     1      -7.782   3.355 123.684  0.00  0.00    +0.000 A 
ATOM      3  C   UNL     1      -8.396   3.034 124.970  0.00  0.00    +0.000 A 
ATOM      4  C   UNL     1      -8.301   1.757 125.519  0.00  0.00    +0.000 A 
ATOM      5  C   UNL     1      -8.575   1.100 126.961  0.00  0.00    +0.000 C 
ATOM      6  C   UNL     1      -7.956  -0.629 127.398  0.00  0.00    +0.000 C 
ATOM      7  N   UNL     1      -6.264  -1.078 127.915  0.00  0.00    +0.000 NA
ATOM      8  C   UNL     1      -5.700  -1.151 126.585  0.00  0.00    +0.000 C 
ATOM      9  C   UNL     1      -6.091  -0.033 125.760  0.00  0.00    +0.000 C 
ATOM     10  C   UNL     1      -7.413  -0.484 125.047  0.00  0.00    +0.000 C 
ATOM     11  C   UNL     1      -7.254  -1.134 123.694  0.00  0.00    +0.000 C 
ATOM     12  O   UNL     1      -6.600  -0.098 122.886  0.00  0.00    +0.000 OA
ATOM     13  C   UNL     1      -7.205   1.088 123.363  0.00  0.00    +0.000 A 
ATOM     14  C   UNL     1      -7.801   0.832 124.610  0.00  0.00    +0.000 A 
ATOM     15  C   UNL     1      -6.565  -2.464 123.966  0.00  0.00    +0.000 C 
ATOM     16  C   UNL     1      -5.342  -2.764 123.474  0.00  0.00    +0.000 C 
ATOM     17  C   UNL     1      -7.213  -3.386 125.024  0.00  0.00    +0.000 C 
ATOM     18  C   UNL     1      -8.378  -2.780 125.854  0.00  0.00    +0.000 C 
ATOM     19  C   UNL     1      -8.405  -1.241 125.971  0.00  0.00    +0.000 C 
ENDROOT
BRANCH   1  20
ATOM     20  O   UNL     1      -6.404   2.658 121.793  0.00  0.00    +0.000 OA
ATOM     21  H   UNL     1      -6.906   3.239 121.220  0.00  0.00    +0.000 HD
ENDBRANCH   1  20
BRANCH  19  22
ATOM     22  O   UNL     1      -9.752  -0.870 125.552  0.00  0.00    +0.000 OA
ATOM     23  H   UNL     1     -10.446  -1.322 126.059  0.00  0.00    +0.000 HD
ENDBRANCH  19  22
BRANCH   7  24
ATOM     24  C   UNL     1      -5.499  -2.591 128.288  0.00  0.00    +0.000 C 
BRANCH  24  25
ATOM     25  C   UNL     1      -5.432  -3.209 129.830  0.00  0.00    +0.000 C 
ATOM     26  C   UNL     1      -6.696  -3.391 130.779  0.00  0.00    +0.000 C 
ATOM     27  C   UNL     1      -5.908  -4.593 130.379  0.00  0.00    +0.000 C 
ENDBRANCH  24  25
ENDBRANCH   7  24
TORSDOF 4
ENDMDL
MODEL 4
REMARK VINA RESULT:      -8.2      7.637      9.174
REMARK  Name = Nalmefene
REMARK  4 active torsions:
REMARK  status: ('A' for Active; 'I' for Inactive)
REMARK    1  A    between atoms: O_1  and  C_2
REMARK    2  A    between atoms: N_8  and  C_9
REMARK    3  A    between atoms: C_9  and  C_10
REMARK    4  A    between atoms: C_24  and  O_25
REMARK                            x       y       z     vdW  Elec       q    Type
REMARK                         _______ _______ _______ _____ _____    ______ ____
ROOT
ATOM      1  C   UNL     1      -8.691   2.279 123.379  0.00  0.00    +0.000 A 
ATOM      2  C   UNL     1      -9.707   1.940 122.448  0.00  0.00    +0.000 A 
ATOM      3  C   UNL     1     -10.029   0.542 122.173  0.00  0.00    +0.000 A 
ATOM      4  C   UNL     1      -9.398  -0.495 122.859  0.00  0.00    +0.000 A 
ATOM      5  C   UNL     1      -9.652  -2.071 123.048  0.00  0.00    +0.000 C 
ATOM      6  C   UNL     1      -8.761  -3.066 124.383  0.00  0.00    +0.000 C 
ATOM      7  N   UNL     1      -9.203  -3.148 126.153  0.00  0.00    +0.000 NA
ATOM      8  C   UNL     1      -8.541  -1.923 126.544  0.00  0.00    +0.000 C 
ATOM      9  C   UNL     1      -8.805  -0.838 125.629  0.00  0.00    +0.000 C 
ATOM     10  C   UNL     1      -7.669  -0.916 124.551  0.00  0.00    +0.000 C 
ATOM     11  C   UNL     1      -6.436  -0.087 124.819  0.00  0.00    +0.000 C 
ATOM     12  O   UNL     1      -6.948   1.287 124.881  0.00  0.00    +0.000 OA
ATOM     13  C   UNL     1      -7.956   1.281 123.889  0.00  0.00    +0.000 A 
ATOM     14  C   UNL     1      -8.311  -0.047 123.599  0.00  0.00    +0.000 A 
ATOM     15  C   UNL     1      -5.776  -0.731 126.030  0.00  0.00    +0.000 C 
ATOM     16  C   UNL     1      -5.613  -0.078 127.203  0.00  0.00    +0.000 C 
ATOM     17  C   UNL     1      -5.497  -2.249 125.953  0.00  0.00    +0.000 C 
ATOM     18  C   UNL     1      -6.105  -3.007 124.741  0.00  0.00    +0.000 C 
ATOM     19  C   UNL     1      -7.340  -2.359 124.080  0.00  0.00    +0.000 C 
ENDROOT
BRANCH   1  20
ATOM     20  O   UNL     1      -8.477   3.580 123.773  0.00  0.00    +0.000 OA
ATOM     21  H   UNL     1      -9.269   3.949 124.167  0.00  0.00    +0.000 HD
ENDBRANCH   1  20
BRANCH  19  22
ATOM     22  O   UNL     1      -6.995  -2.281 122.665  0.00  0.00    +0.000 OA
ATOM     23  H   UNL     1      -7.182  -1.411 122.275  0.00  0.00    +0.000 HD
ENDBRANCH  19  22
BRANCH   7  24
ATOM     24  C   UNL     1      -8.483  -3.937 127.520  0.00  0.00    +0.000 C 
BRANCH  24  25
ATOM     25  C   UNL     1      -8.528  -3.297 129.055  0.00  0.00    +0.000 C 
ATOM     26  C   UNL     1      -7.315  -3.348 130.083  0.00  0.00    +0.000 C 
ATOM     27  C   UNL     1      -7.832  -2.023 129.632  0.00  0.00    +0.000 C 
ENDBRANCH  24  25
ENDBRANCH   7  24
TORSDOF 4
ENDMDL
MODEL 5
REMARK VINA RESULT:      -8.2      6.998      9.151
REMARK  Name = Nalmefene
REMARK  4 active torsions:
REMARK  status: ('A' for Active; 'I' for Inactive)
REMARK    1  A    between atoms: O_1  and  C_2
REMARK    2  A    between atoms: N_8  and  C_9
REMARK    3  A    between atoms: C_9  and  C_10
REMARK    4  A    between atoms: C_24  and  O_25
REMARK                            x       y       z     vdW  Elec       q    Type
REMARK                         _______ _______ _______ _____ _____    ______ ____
ROOT
ATOM      1  C   UNL     1      -6.641   4.148 120.217  0.00  0.00    +0.000 A 
ATOM      2  C   UNL     1      -5.423   4.791 120.557  0.00  0.00    +0.000 A 
ATOM      3  C   UNL     1      -4.914   4.748 121.925  0.00  0.00    +0.000 A 
ATOM      4  C   UNL     1      -5.571   4.026 122.920  0.00  0.00    +0.000 A 
ATOM      5  C   UNL     1      -5.210   3.516 124.402  0.00  0.00    +0.000 C 
ATOM      6  C   UNL     1      -6.262   2.224 125.290  0.00  0.00    +0.000 C 
ATOM      7  N   UNL     1      -6.200   0.417 125.043  0.00  0.00    +0.000 NA
ATOM      8  C   UNL     1      -7.047   0.382 123.870  0.00  0.00    +0.000 C 
ATOM      9  C   UNL     1      -6.702   1.406 122.912  0.00  0.00    +0.000 C 
ATOM     10  C   UNL     1      -7.571   2.651 123.303  0.00  0.00    +0.000 C 
ATOM     11  C   UNL     1      -8.908   2.777 122.614  0.00  0.00    +0.000 C 
ATOM     12  O   UNL     1      -8.558   2.860 121.190  0.00  0.00    +0.000 OA
ATOM     13  C   UNL     1      -7.366   3.622 121.214  0.00  0.00    +0.000 A 
ATOM     14  C   UNL     1      -6.830   3.600 122.512  0.00  0.00    +0.000 A 
ATOM     15  C   UNL     1      -9.743   1.622 123.147  0.00  0.00    +0.000 C 
ATOM     16  C   UNL     1     -10.215   0.636 122.350  0.00  0.00    +0.000 C 
ATOM     17  C   UNL     1      -9.848   1.482 124.683  0.00  0.00    +0.000 C 
ATOM     18  C   UNL     1      -8.926   2.402 125.529  0.00  0.00    +0.000 C 
ATOM     19  C   UNL     1      -7.648   2.916 124.831  0.00  0.00    +0.000 C 
ENDROOT
BRANCH   1  20
ATOM     20  O   UNL     1      -7.061   4.038 118.911  0.00  0.00    +0.000 OA
ATOM     21  H   UNL     1      -7.989   3.800 118.873  0.00  0.00    +0.000 HD
ENDBRANCH   1  20
BRANCH  19  22
ATOM     22  O   UNL     1      -7.692   4.362 125.016  0.00  0.00    +0.000 OA
ATOM     23  H   UNL     1      -8.541   4.675 125.368  0.00  0.00    +0.000 HD
ENDBRANCH  19  22
BRANCH   7  24
ATOM     24  C   UNL     1      -7.113  -0.903 125.702  0.00  0.00    +0.000 C 
BRANCH  24  25
ATOM     25  C   UNL     1      -6.662  -2.493 125.511  0.00  0.00    +0.000 C 
ATOM     26  C   UNL     1      -7.350  -3.503 124.493  0.00  0.00    +0.000 C 
ATOM     27  C   UNL     1      -5.900  -3.187 124.336  0.00  0.00    +0.000 C 
ENDBRANCH  24  25
ENDBRANCH   7  24
TORSDOF 4
ENDMDL
MODEL 6
REMARK VINA RESULT:      -8.0      2.506      6.146
REMARK  Name = Nalmefene
REMARK  4 active torsions:
REMARK  status: ('A' for Active; 'I' for Inactive)
REMARK    1  A    between atoms: O_1  and  C_2
REMARK    2  A    between atoms: N_8  and  C_9
REMARK    3  A    between atoms: C_9  and  C_10
REMARK    4  A    between atoms: C_24  and  O_25
REMARK                            x       y       z     vdW  Elec       q    Type
REMARK                         _______ _______ _______ _____ _____    ______ ____
ROOT
ATOM      1  C   UNL     1      -4.732   3.815 133.331  0.00  0.00    +0.000 A 
ATOM      2  C   UNL     1      -3.971   5.002 133.171  0.00  0.00    +0.000 A 
ATOM      3  C   UNL     1      -4.479   6.110 132.367  0.00  0.00    +0.000 A 
ATOM      4  C   UNL     1      -5.746   6.064 131.788  0.00  0.00    +0.000 A 
ATOM      5  C   UNL     1      -6.739   7.128 131.106  0.00  0.00    +0.000 C 
ATOM      6  C   UNL     1      -8.554   6.724 130.778  0.00  0.00    +0.000 C 
ATOM      7  N   UNL     1      -9.915   6.774 131.993  0.00  0.00    +0.000 NA
ATOM      8  C   UNL     1      -9.670   5.470 132.569  0.00  0.00    +0.000 C 
ATOM      9  C   UNL     1      -8.269   5.242 132.837  0.00  0.00    +0.000 C 
ATOM     10  C   UNL     1      -7.695   4.592 131.530  0.00  0.00    +0.000 C 
ATOM     11  C   UNL     1      -7.697   3.084 131.477  0.00  0.00    +0.000 C 
ATOM     12  O   UNL     1      -6.858   2.696 132.618  0.00  0.00    +0.000 OA
ATOM     13  C   UNL     1      -5.859   3.698 132.616  0.00  0.00    +0.000 A 
ATOM     14  C   UNL     1      -6.309   4.796 131.862  0.00  0.00    +0.000 A 
ATOM     15  C   UNL     1      -9.165   2.686 131.416  0.00  0.00    +0.000 C 
ATOM     16  C   UNL     1      -9.761   1.953 132.383  0.00  0.00    +0.000 C 
ATOM     17  C   UNL     1     -10.025   3.346 130.315  0.00  0.00    +0.000 C 
ATOM     18  C   UNL     1      -9.363   4.502 129.514  0.00  0.00    +0.000 C 
ATOM     19  C   UNL     1      -8.209   5.247 130.219  0.00  0.00    +0.000 C 
ENDROOT
BRANCH   1  20
ATOM     20  O   UNL     1      -4.352   2.824 134.207  0.00  0.00    +0.000 OA
ATOM     21  H   UNL     1      -3.453   2.543 134.029  0.00  0.00    +0.000 HD
ENDBRANCH   1  20
BRANCH  19  22
ATOM     22  O   UNL     1      -7.113   5.205 129.259  0.00  0.00    +0.000 OA
ATOM     23  H   UNL     1      -6.455   4.520 129.462  0.00  0.00    +0.000 HD
ENDBRANCH  19  22
BRANCH   7  24
ATOM     24  C   UNL     1     -11.603   6.381 131.902  0.00  0.00    +0.000 C 
BRANCH  24  25
ATOM     25  C   UNL     1     -12.610   7.005 130.735  0.00  0.00    +0.000 C 
ATOM     26  C   UNL     1     -12.130   7.949 129.548  0.00  0.00    +0.000 C 
ATOM     27  C   UNL     1     -12.749   6.632 129.224  0.00  0.00    +0.000 C 
ENDBRANCH  24  25
ENDBRANCH   7  24
TORSDOF 4
ENDMDL
MODEL 7
REMARK VINA RESULT:      -7.9      6.545      8.824
REMARK  Name = Nalmefene
REMARK  4 active torsions:
REMARK  status: ('A' for Active; 'I' for Inactive)
REMARK    1  A    between atoms: O_1  and  C_2
REMARK    2  A    between atoms: N_8  and  C_9
REMARK    3  A    between atoms: C_9  and  C_10
REMARK    4  A    between atoms: C_24  and  O_25
REMARK                            x       y       z     vdW  Elec       q    Type
REMARK                         _______ _______ _______ _____ _____    ______ ____
ROOT
ATOM      1  C   UNL     1      -8.405  -3.334 124.458  0.00  0.00    +0.000 A 
ATOM      2  C   UNL     1      -8.895  -2.905 123.197  0.00  0.00    +0.000 A 
ATOM      3  C   UNL     1      -9.059  -1.483 122.906  0.00  0.00    +0.000 A 
ATOM      4  C   UNL     1      -8.682  -0.507 123.826  0.00  0.00    +0.000 A 
ATOM      5  C   UNL     1      -8.445   1.083 123.786  0.00  0.00    +0.000 C 
ATOM      6  C   UNL     1      -7.562   1.990 125.187  0.00  0.00    +0.000 C 
ATOM      7  N   UNL     1      -5.759   2.090 125.449  0.00  0.00    +0.000 NA
ATOM      8  C   UNL     1      -5.618   0.812 126.112  0.00  0.00    +0.000 C 
ATOM      9  C   UNL     1      -6.344  -0.239 125.440  0.00  0.00    +0.000 C 
ATOM     10  C   UNL     1      -7.770  -0.243 126.091  0.00  0.00    +0.000 C 
ATOM     11  C   UNL     1      -7.966  -1.170 127.266  0.00  0.00    +0.000 C 
ATOM     12  O   UNL     1      -7.687  -2.500 126.709  0.00  0.00    +0.000 OA
ATOM     13  C   UNL     1      -8.230  -2.403 125.406  0.00  0.00    +0.000 A 
ATOM     14  C   UNL     1      -8.394  -1.048 125.073  0.00  0.00    +0.000 A 
ATOM     15  C   UNL     1      -7.105  -0.594 128.380  0.00  0.00    +0.000 C 
ATOM     16  C   UNL     1      -6.064  -1.269 128.920  0.00  0.00    +0.000 C 
ATOM     17  C   UNL     1      -7.312   0.898 128.727  0.00  0.00    +0.000 C 
ATOM     18  C   UNL     1      -8.225   1.714 127.770  0.00  0.00    +0.000 C 
ATOM     19  C   UNL     1      -8.361   1.173 126.331  0.00  0.00    +0.000 C 
ENDROOT
BRANCH   1  20
ATOM     20  O   UNL     1      -8.093  -4.652 124.702  0.00  0.00    +0.000 OA
ATOM     21  H   UNL     1      -8.509  -4.953 125.511  0.00  0.00    +0.000 HD
ENDBRANCH   1  20
BRANCH  19  22
ATOM     22  O   UNL     1      -9.800   1.082 126.113  0.00  0.00    +0.000 OA
ATOM     23  H   UNL     1     -10.264   0.617 126.829  0.00  0.00    +0.000 HD
ENDBRANCH  19  22
BRANCH   7  24
ATOM     24  C   UNL     1      -4.777   2.805 126.689  0.00  0.00    +0.000 C 
BRANCH  24  25
ATOM     25  C   UNL     1      -3.342   3.581 126.365  0.00  0.00    +0.000 C 
ATOM     26  C   UNL     1      -2.367   4.163 127.479  0.00  0.00    +0.000 C 
ATOM     27  C   UNL     1      -1.871   3.095 126.564  0.00  0.00    +0.000 C 
ENDBRANCH  24  25
ENDBRANCH   7  24
TORSDOF 4
ENDMDL
MODEL 8
REMARK VINA RESULT:      -7.8      6.585      8.569
REMARK  Name = Nalmefene
REMARK  4 active torsions:
REMARK  status: ('A' for Active; 'I' for Inactive)
REMARK    1  A    between atoms: O_1  and  C_2
REMARK    2  A    between atoms: N_8  and  C_9
REMARK    3  A    between atoms: C_9  and  C_10
REMARK    4  A    between atoms: C_24  and  O_25
REMARK                            x       y       z     vdW  Elec       q    Type
REMARK                         _______ _______ _______ _____ _____    ______ ____
ROOT
ATOM      1  C   UNL     1      -6.114   5.013 125.547  0.00  0.00    +0.000 A 
ATOM      2  C   UNL     1      -5.089   4.822 126.508  0.00  0.00    +0.000 A 
ATOM      3  C   UNL     1      -4.888   3.518 127.136  0.00  0.00    +0.000 A 
ATOM      4  C   UNL     1      -5.651   2.412 126.766  0.00  0.00    +0.000 A 
ATOM      5  C   UNL     1      -5.560   0.823 126.994  0.00  0.00    +0.000 C 
ATOM      6  C   UNL     1      -6.610  -0.385 125.993  0.00  0.00    +0.000 C 
ATOM      7  N   UNL     1      -6.272  -0.972 124.299  0.00  0.00    +0.000 NA
ATOM      8  C   UNL     1      -6.833   0.171 123.613  0.00  0.00    +0.000 C 
ATOM      9  C   UNL     1      -6.419   1.423 124.201  0.00  0.00    +0.000 C 
ATOM     10  C   UNL     1      -7.499   1.750 125.289  0.00  0.00    +0.000 C 
ATOM     11  C   UNL     1      -8.659   2.606 124.843  0.00  0.00    +0.000 C 
ATOM     12  O   UNL     1      -8.021   3.854 124.406  0.00  0.00    +0.000 OA
ATOM     13  C   UNL     1      -6.968   4.001 125.339  0.00  0.00    +0.000 A 
ATOM     14  C   UNL     1      -6.728   2.764 125.961  0.00  0.00    +0.000 A 
ATOM     15  C   UNL     1      -9.441   1.743 123.863  0.00  0.00    +0.000 C 
ATOM     16  C   UNL     1      -9.601   2.081 122.563  0.00  0.00    +0.000 C 
ATOM     17  C   UNL     1      -9.859   0.336 124.346  0.00  0.00    +0.000 C 
ATOM     18  C   UNL     1      -9.264  -0.139 125.701  0.00  0.00    +0.000 C 
ATOM     19  C   UNL     1      -7.939   0.524 126.134  0.00  0.00    +0.000 C 
ENDROOT
BRANCH   1  20
ATOM     20  O   UNL     1      -6.223   6.181 124.828  0.00  0.00    +0.000 OA
ATOM     21  H   UNL     1      -5.373   6.437 124.467  0.00  0.00    +0.000 HD
ENDBRANCH   1  20
BRANCH  19  22
ATOM     22  O   UNL     1      -8.201   1.004 127.486  0.00  0.00    +0.000 OA
ATOM     23  H   UNL     1      -8.350   0.286 128.123  0.00  0.00    +0.000 HD
ENDBRANCH  19  22
BRANCH   7  24
ATOM     24  C   UNL     1      -7.135  -2.010 123.207  0.00  0.00    +0.000 C 
BRANCH  24  25
ATOM     25  C   UNL     1      -7.972  -3.354 123.716  0.00  0.00    +0.000 C 
ATOM     26  C   UNL     1      -8.419  -3.615 125.220  0.00  0.00    +0.000 C 
ATOM     27  C   UNL     1      -9.463  -3.500 124.161  0.00  0.00    +0.000 C 
ENDBRANCH  24  25
ENDBRANCH   7  24
TORSDOF 4
ENDMDL
MODEL 9
REMARK VINA RESULT:      -7.5      6.019      8.748
REMARK  Name = Nalmefene
REMARK  4 active torsions:
REMARK  status: ('A' for Active; 'I' for Inactive)
REMARK    1  A    between atoms: O_1  and  C_2
REMARK    2  A    between atoms: N_8  and  C_9
REMARK    3  A    between atoms: C_9  and  C_10
REMARK    4  A    between atoms: C_24  and  O_25
REMARK                            x       y       z     vdW  Elec       q    Type
REMARK                         _______ _______ _______ _____ _____    ______ ____
ROOT
ATOM      1  C   UNL     1      -3.346   3.615 126.933  0.00  0.00    +0.000 A 
ATOM      2  C   UNL     1      -3.442   3.158 128.273  0.00  0.00    +0.000 A 
ATOM      3  C   UNL     1      -4.657   2.505 128.752  0.00  0.00    +0.000 A 
ATOM      4  C   UNL     1      -5.729   2.253 127.898  0.00  0.00    +0.000 A 
ATOM      5  C   UNL     1      -7.060   1.353 127.955  0.00  0.00    +0.000 C 
ATOM      6  C   UNL     1      -8.083   0.995 126.409  0.00  0.00    +0.000 C 
ATOM      7  N   UNL     1      -7.722  -0.260 125.134  0.00  0.00    +0.000 NA
ATOM      8  C   UNL     1      -6.769   0.533 124.388  0.00  0.00    +0.000 C 
ATOM      9  C   UNL     1      -5.820   1.202 125.246  0.00  0.00    +0.000 C 
ATOM     10  C   UNL     1      -6.468   2.591 125.580  0.00  0.00    +0.000 C 
ATOM     11  C   UNL     1      -6.103   3.735 124.666  0.00  0.00    +0.000 C 
ATOM     12  O   UNL     1      -4.645   3.838 124.802  0.00  0.00    +0.000 OA
ATOM     13  C   UNL     1      -4.447   3.547 126.172  0.00  0.00    +0.000 A 
ATOM     14  C   UNL     1      -5.589   2.902 126.677  0.00  0.00    +0.000 A 
ATOM     15  C   UNL     1      -6.740   3.397 123.325  0.00  0.00    +0.000 C 
ATOM     16  C   UNL     1      -6.012   3.192 122.204  0.00  0.00    +0.000 C 
ATOM     17  C   UNL     1      -8.250   3.064 123.330  0.00  0.00    +0.000 C 
ATOM     18  C   UNL     1      -8.922   2.902 124.722  0.00  0.00    +0.000 C 
ATOM     19  C   UNL     1      -7.987   2.523 125.891  0.00  0.00    +0.000 C 
ENDROOT
BRANCH   1  20
ATOM     20  O   UNL     1      -2.162   4.088 126.414  0.00  0.00    +0.000 OA
ATOM     21  H   UNL     1      -2.323   4.602 125.621  0.00  0.00    +0.000 HD
ENDBRANCH   1  20
BRANCH  19  22
ATOM     22  O   UNL     1      -8.262   3.525 126.914  0.00  0.00    +0.000 OA
ATOM     23  H   UNL     1      -9.163   3.466 127.272  0.00  0.00    +0.000 HD
ENDBRANCH  19  22
BRANCH   7  24
ATOM     24  C   UNL     1      -8.490  -0.686 123.637  0.00  0.00    +0.000 C 
BRANCH  24  25
ATOM     25  C   UNL     1      -8.597  -2.256 123.096  0.00  0.00    +0.000 C 
ATOM     26  C   UNL     1      -8.531  -3.535 124.039  0.00  0.00    +0.000 C 
ATOM     27  C   UNL     1      -9.763  -3.288 123.235  0.00  0.00    +0.000 C 
ENDBRANCH  24  25
ENDBRANCH   7  24
TORSDOF 4
ENDMDL
