MODEL 1
REMARK VINA RESULT:      -6.2      0.000      0.000
REMARK  Name = Naloxegol
REMARK  27 active torsions:
REMARK  status: ('A' for Active; 'I' for Inactive)
REMARK    1  A    between atoms: C_1  and  O_2
REMARK    2  A    between atoms: O_2  and  C_3
REMARK    3  A    between atoms: C_3  and  C_4
REMARK    4  A    between atoms: C_4  and  O_5
REMARK    5  A    between atoms: O_5  and  C_6
REMARK    6  A    between atoms: C_6  and  C_7
REMARK    7  A    between atoms: C_7  and  O_8
REMARK    8  A    between atoms: O_8  and  C_9
REMARK    9  A    between atoms: C_9  and  C_10
REMARK   10  A    between atoms: C_10  and  O_11
REMARK   11  A    between atoms: O_11  and  C_12
REMARK   12  A    between atoms: C_12  and  C_13
REMARK   13  A    between atoms: C_13  and  O_14
REMARK   14  A    between atoms: O_14  and  C_15
REMARK   15  A    between atoms: C_15  and  C_16
REMARK   16  A    between atoms: C_16  and  O_17
REMARK   17  A    between atoms: O_17  and  C_18
REMARK   18  A    between atoms: C_18  and  C_19
REMARK   19  A    between atoms: C_19  and  O_20
REMARK   20  A    between atoms: O_20  and  C_21
REMARK   21  A    between atoms: C_21  and  C_22
REMARK   22  A    between atoms: C_22  and  O_23
REMARK   23  A    between atoms: O_23  and  C_24
REMARK   24  A    between atoms: C_27  and  O_28
REMARK   25  A    between atoms: C_34  and  O_35
REMARK   26  A    between atoms: N_41  and  C_42
REMARK   27  A    between atoms: C_42  and  C_43
REMARK                            x       y       z     vdW  Elec       q    Type
REMARK                         _______ _______ _______ _____ _____    ______ ____
ROOT
ATOM      1  C   UNL     1      -9.898   1.411 123.004  0.00  0.00    +0.000 C 
ATOM      2  C   UNL     1     -10.136   1.102 124.437  0.00  0.00    +0.000 C 
ATOM      3  C   UNL     1      -9.486   2.235 125.507  0.00  0.00    +0.000 C 
ATOM      4  C   UNL     1      -7.775   2.987 125.467  0.00  0.00    +0.000 C 
ATOM      5  C   UNL     1      -6.116   3.914 125.993  0.00  0.00    +0.000 C 
ATOM      6  C   UNL     1      -5.321   3.891 124.668  0.00  0.00    +0.000 C 
ATOM      7  C   UNL     1      -5.536   3.703 123.285  0.00  0.00    +0.000 A 
ATOM      8  C   UNL     1      -4.903   4.508 122.370  0.00  0.00    +0.000 A 
ATOM      9  C   UNL     1      -5.363   4.559 121.126  0.00  0.00    +0.000 A 
ATOM     10  C   UNL     1      -6.577   3.907 120.814  0.00  0.00    +0.000 A 
ATOM     11  C   UNL     1      -7.173   3.128 121.833  0.00  0.00    +0.000 A 
ATOM     12  C   UNL     1      -6.604   2.857 123.026  0.00  0.00    +0.000 A 
ATOM     13  C   UNL     1      -7.207   2.108 124.262  0.00  0.00    +0.000 C 
ATOM     14  C   UNL     1      -6.021   1.384 125.623  0.00  0.00    +0.000 C 
ATOM     15  C   UNL     1      -4.653   2.126 126.556  0.00  0.00    +0.000 C 
ATOM     16  N   UNL     1      -4.920   3.531 126.956  0.00  0.00    +0.000 NA
ATOM     17  C   UNL     1      -8.699   2.322 123.171  0.00  0.00    +0.000 C 
ATOM     18  O   UNL     1      -8.441   2.667 121.777  0.00  0.00    +0.000 OA
ENDROOT
BRANCH  10  19
ATOM     19  O   UNL     1      -7.071   4.065 119.562  0.00  0.00    +0.000 OA
ATOM     20  H   UNL     1      -7.433   3.200 119.284  0.00  0.00    +0.000 HD
ENDBRANCH  10  19
BRANCH   4  21
ATOM     21  O   UNL     1      -7.942   2.259 126.780  0.00  0.00    +0.000 OA
ATOM     22  H   UNL     1      -7.184   1.743 127.046  0.00  0.00    +0.000 HD
ENDBRANCH   4  21
BRANCH  16  23
ATOM     23  C   UNL     1      -3.488   4.336 127.078  0.00  0.00    +0.000 C 
BRANCH  23  24
ATOM     24  C   UNL     1      -2.228   3.397 127.139  0.00  0.00    +0.000 C 
ATOM     25  C   UNL     1      -1.291   3.069 126.210  0.00  0.00    +0.000 C 
ENDBRANCH  23  24
ENDBRANCH  16  23
BRANCH   1  26
ATOM     26  O   UNL     1      -9.654   0.273 122.162  0.00  0.00    +0.000 OA
BRANCH  26  27
ATOM     27  C   UNL     1      -9.432  -0.966 122.887  0.00  0.00    +0.000 C 
BRANCH  27  28
ATOM     28  C   UNL     1      -7.966  -1.344 122.748  0.00  0.00    +0.000 C 
BRANCH  28  29
ATOM     29  O   UNL     1      -7.713  -2.588 123.396  0.00  0.00    +0.000 OA
BRANCH  29  30
ATOM     30  C   UNL     1      -8.889  -3.038 124.061  0.00  0.00    +0.000 C 
BRANCH  30  31
ATOM     31  C   UNL     1      -8.524  -3.484 125.462  0.00  0.00    +0.000 C 
BRANCH  31  32
ATOM     32  O   UNL     1      -7.555  -2.588 125.994  0.00  0.00    +0.000 OA
BRANCH  32  33
ATOM     33  C   UNL     1      -8.198  -1.495 126.639  0.00  0.00    +0.000 C 
BRANCH  33  34
ATOM     34  C   UNL     1      -7.629  -1.347 128.035  0.00  0.00    +0.000 C 
BRANCH  34  35
ATOM     35  O   UNL     1      -7.834  -0.011 128.479  0.00  0.00    +0.000 OA
BRANCH  35  36
ATOM     36  C   UNL     1      -7.438   0.123 129.839  0.00  0.00    +0.000 C 
BRANCH  36  37
ATOM     37  C   UNL     1      -6.409   1.229 129.946  0.00  0.00    +0.000 C 
BRANCH  37  38
ATOM     38  O   UNL     1      -6.947   2.420 129.380  0.00  0.00    +0.000 OA
BRANCH  38  39
ATOM     39  C   UNL     1      -7.724   3.117 130.347  0.00  0.00    +0.000 C 
BRANCH  39  40
ATOM     40  C   UNL     1      -6.793   3.779 131.344  0.00  0.00    +0.000 C 
BRANCH  40  41
ATOM     41  O   UNL     1      -6.921   5.192 131.232  0.00  0.00    +0.000 OA
BRANCH  41  42
ATOM     42  C   UNL     1      -8.001   5.522 130.366  0.00  0.00    +0.000 C 
BRANCH  42  43
ATOM     43  C   UNL     1      -8.773   6.685 130.960  0.00  0.00    +0.000 C 
BRANCH  43  44
ATOM     44  O   UNL     1      -9.012   7.653 129.942  0.00  0.00    +0.000 OA
BRANCH  44  45
ATOM     45  C   UNL     1     -10.390   7.658 129.580  0.00  0.00    +0.000 C 
BRANCH  45  46
ATOM     46  C   UNL     1     -10.511   7.414 128.087  0.00  0.00    +0.000 C 
BRANCH  46  48
ATOM     47  C   UNL     1     -12.358   8.777 128.539  0.00  0.00    +0.000 C 
ATOM     48  O   UNL     1     -11.460   8.324 127.536  0.00  0.00    +0.000 OA
ENDBRANCH  46  48
ENDBRANCH  45  46
ENDBRANCH  44  45
ENDBRANCH  43  44
ENDBRANCH  42  43
ENDBRANCH  41  42
ENDBRANCH  40  41
ENDBRANCH  39  40
ENDBRANCH  38  39
ENDBRANCH  37  38
ENDBRANCH  36  37
ENDBRANCH  35  36
ENDBRANCH  34  35
ENDBRANCH  33  34
ENDBRANCH  32  33
ENDBRANCH  31  32
ENDBRANCH  30  31
ENDBRANCH  29  30
ENDBRANCH  28  29
ENDBRANCH  27  28
ENDBRANCH  26  27
ENDBRANCH   1  26
TORSDOF 26
ENDMDL
MODEL 2
REMARK VINA RESULT:      -5.9      3.003      7.215
REMARK  Name = Naloxegol
REMARK  27 active torsions:
REMARK  status: ('A' for Active; 'I' for Inactive)
REMARK    1  A    between atoms: C_1  and  O_2
REMARK    2  A    between atoms: O_2  and  C_3
REMARK    3  A    between atoms: C_3  and  C_4
REMARK    4  A    between atoms: C_4  and  O_5
REMARK    5  A    between atoms: O_5  and  C_6
REMARK    6  A    between atoms: C_6  and  C_7
REMARK    7  A    between atoms: C_7  and  O_8
REMARK    8  A    between atoms: O_8  and  C_9
REMARK    9  A    between atoms: C_9  and  C_10
REMARK   10  A    between atoms: C_10  and  O_11
REMARK   11  A    between atoms: O_11  and  C_12
REMARK   12  A    between atoms: C_12  and  C_13
REMARK   13  A    between atoms: C_13  and  O_14
REMARK   14  A    between atoms: O_14  and  C_15
REMARK   15  A    between atoms: C_15  and  C_16
REMARK   16  A    between atoms: C_16  and  O_17
REMARK   17  A    between atoms: O_17  and  C_18
REMARK   18  A    between atoms: C_18  and  C_19
REMARK   19  A    between atoms: C_19  and  O_20
REMARK   20  A    between atoms: O_20  and  C_21
REMARK   21  A    between atoms: C_21  and  C_22
REMARK   22  A    between atoms: C_22  and  O_23
REMARK   23  A    between atoms: O_23  and  C_24
REMARK   24  A    between atoms: C_27  and  O_28
REMARK   25  A    between atoms: C_34  and  O_35
REMARK   26  A    between atoms: N_41  and  C_42
REMARK   27  A    between atoms: C_42  and  C_43
REMARK                            x       y       z     vdW  Elec       q    Type
REMARK                         _______ _______ _______ _____ _____    ______ ____
ROOT
ATOM      1  C   UNL     1      -8.596   2.798 129.611  0.00  0.00    +0.000 C 
ATOM      2  C   UNL     1      -8.324   1.531 130.335  0.00  0.00    +0.000 C 
ATOM      3  C   UNL     1      -6.978   0.684 129.767  0.00  0.00    +0.000 C 
ATOM      4  C   UNL     1      -6.532   0.314 127.990  0.00  0.00    +0.000 C 
ATOM      5  C   UNL     1      -5.712  -0.483 126.385  0.00  0.00    +0.000 C 
ATOM      6  C   UNL     1      -6.325   0.387 125.264  0.00  0.00    +0.000 C 
ATOM      7  C   UNL     1      -6.974   1.629 125.099  0.00  0.00    +0.000 A 
ATOM      8  C   UNL     1      -6.653   2.443 124.040  0.00  0.00    +0.000 A 
ATOM      9  C   UNL     1      -6.999   3.724 124.080  0.00  0.00    +0.000 A 
ATOM     10  C   UNL     1      -7.549   4.251 125.269  0.00  0.00    +0.000 A 
ATOM     11  C   UNL     1      -7.813   3.340 126.319  0.00  0.00    +0.000 A 
ATOM     12  C   UNL     1      -7.703   1.999 126.219  0.00  0.00    +0.000 A 
ATOM     13  C   UNL     1      -7.859   0.908 127.331  0.00  0.00    +0.000 C 
ATOM     14  C   UNL     1      -8.189  -0.941 126.829  0.00  0.00    +0.000 C 
ATOM     15  C   UNL     1      -7.350  -2.047 125.659  0.00  0.00    +0.000 C 
ATOM     16  N   UNL     1      -5.874  -1.884 125.667  0.00  0.00    +0.000 NA
ATOM     17  C   UNL     1      -7.859   2.481 128.327  0.00  0.00    +0.000 C 
ATOM     18  O   UNL     1      -8.086   3.718 127.586  0.00  0.00    +0.000 OA
ENDROOT
BRANCH  10  19
ATOM     19  O   UNL     1      -7.794   5.583 125.312  0.00  0.00    +0.000 OA
ATOM     20  H   UNL     1      -8.700   5.721 124.970  0.00  0.00    +0.000 HD
ENDBRANCH  10  19
BRANCH   4  21
ATOM     21  O   UNL     1      -6.700  -0.998 128.719  0.00  0.00    +0.000 OA
ATOM     22  H   UNL     1      -6.029  -1.178 129.373  0.00  0.00    +0.000 HD
ENDBRANCH   4  21
BRANCH  16  23
ATOM     23  C   UNL     1      -5.282  -2.279 124.181  0.00  0.00    +0.000 C 
BRANCH  23  24
ATOM     24  C   UNL     1      -5.211  -3.827 123.911  0.00  0.00    +0.000 C 
ATOM     25  C   UNL     1      -4.181  -4.646 123.573  0.00  0.00    +0.000 C 
ENDBRANCH  23  24
ENDBRANCH  16  23
BRANCH   1  26
ATOM     26  O   UNL     1      -9.985   3.115 129.424  0.00  0.00    +0.000 OA
BRANCH  26  27
ATOM     27  C   UNL     1     -10.664   3.549 130.633  0.00  0.00    +0.000 C 
BRANCH  27  28
ATOM     28  C   UNL     1     -11.137   4.979 130.427  0.00  0.00    +0.000 C 
BRANCH  28  29
ATOM     29  O   UNL     1     -10.219   5.894 131.019  0.00  0.00    +0.000 OA
BRANCH  29  30
ATOM     30  C   UNL     1      -9.734   5.368 132.250  0.00  0.00    +0.000 C 
BRANCH  30  31
ATOM     31  C   UNL     1      -8.317   5.854 132.470  0.00  0.00    +0.000 C 
BRANCH  31  32
ATOM     32  O   UNL     1      -7.615   5.804 131.233  0.00  0.00    +0.000 OA
BRANCH  32  33
ATOM     33  C   UNL     1      -7.051   7.076 130.937  0.00  0.00    +0.000 C 
BRANCH  33  34
ATOM     34  C   UNL     1      -5.544   6.984 131.055  0.00  0.00    +0.000 C 
BRANCH  34  35
ATOM     35  O   UNL     1      -4.950   7.817 130.065  0.00  0.00    +0.000 OA
BRANCH  35  36
ATOM     36  C   UNL     1      -3.690   7.288 129.668  0.00  0.00    +0.000 C 
BRANCH  36  37
ATOM     37  C   UNL     1      -3.800   6.769 128.249  0.00  0.00    +0.000 C 
BRANCH  37  38
ATOM     38  O   UNL     1      -3.404   5.401 128.222  0.00  0.00    +0.000 OA
BRANCH  38  39
ATOM     39  C   UNL     1      -4.545   4.556 128.324  0.00  0.00    +0.000 C 
BRANCH  39  40
ATOM     40  C   UNL     1      -4.089   3.110 128.322  0.00  0.00    +0.000 C 
BRANCH  40  41
ATOM     41  O   UNL     1      -3.946   2.666 129.667  0.00  0.00    +0.000 OA
BRANCH  41  42
ATOM     42  C   UNL     1      -4.771   3.439 130.531  0.00  0.00    +0.000 C 
BRANCH  42  43
ATOM     43  C   UNL     1      -3.990   3.780 131.786  0.00  0.00    +0.000 C 
BRANCH  43  44
ATOM     44  O   UNL     1      -2.733   4.336 131.415  0.00  0.00    +0.000 OA
BRANCH  44  45
ATOM     45  C   UNL     1      -1.903   4.490 132.563  0.00  0.00    +0.000 C 
BRANCH  45  46
ATOM     46  C   UNL     1      -2.400   5.668 133.381  0.00  0.00    +0.000 C 
BRANCH  46  48
ATOM     47  C   UNL     1      -0.597   6.936 132.599  0.00  0.00    +0.000 C 
ATOM     48  O   UNL     1      -2.009   6.882 132.746  0.00  0.00    +0.000 OA
ENDBRANCH  46  48
ENDBRANCH  45  46
ENDBRANCH  44  45
ENDBRANCH  43  44
ENDBRANCH  42  43
ENDBRANCH  41  42
ENDBRANCH  40  41
ENDBRANCH  39  40
ENDBRANCH  38  39
ENDBRANCH  37  38
ENDBRANCH  36  37
ENDBRANCH  35  36
ENDBRANCH  34  35
ENDBRANCH  33  34
ENDBRANCH  32  33
ENDBRANCH  31  32
ENDBRANCH  30  31
ENDBRANCH  29  30
ENDBRANCH  28  29
ENDBRANCH  27  28
ENDBRANCH  26  27
ENDBRANCH   1  26
TORSDOF 26
ENDMDL
MODEL 3
REMARK VINA RESULT:      -5.9      2.778      7.271
REMARK  Name = Naloxegol
REMARK  27 active torsions:
REMARK  status: ('A' for Active; 'I' for Inactive)
REMARK    1  A    between atoms: C_1  and  O_2
REMARK    2  A    between atoms: O_2  and  C_3
REMARK    3  A    between atoms: C_3  and  C_4
REMARK    4  A    between atoms: C_4  and  O_5
REMARK    5  A    between atoms: O_5  and  C_6
REMARK    6  A    between atoms: C_6  and  C_7
REMARK    7  A    between atoms: C_7  and  O_8
REMARK    8  A    between atoms: O_8  and  C_9
REMARK    9  A    between atoms: C_9  and  C_10
REMARK   10  A    between atoms: C_10  and  O_11
REMARK   11  A    between atoms: O_11  and  C_12
REMARK   12  A    between atoms: C_12  and  C_13
REMARK   13  A    between atoms: C_13  and  O_14
REMARK   14  A    between atoms: O_14  and  C_15
REMARK   15  A    between atoms: C_15  and  C_16
REMARK   16  A    between atoms: C_16  and  O_17
REMARK   17  A    between atoms: O_17  and  C_18
REMARK   18  A    between atoms: C_18  and  C_19
REMARK   19  A    between atoms: C_19  and  O_20
REMARK   20  A    between atoms: O_20  and  C_21
REMARK   21  A    between atoms: C_21  and  C_22
REMARK   22  A    between atoms: C_22  and  O_23
REMARK   23  A    between atoms: O_23  and  C_24
REMARK   24  A    between atoms: C_27  and  O_28
REMARK   25  A    between atoms: C_34  and  O_35
REMARK   26  A    between atoms: N_41  and  C_42
REMARK   27  A    between atoms: C_42  and  C_43
REMARK                            x       y       z     vdW  Elec       q    Type
REMARK                         _______ _______ _______ _____ _____    ______ ____
ROOT
ATOM      1  C   UNL     1      -8.355   3.966 129.130  0.00  0.00    +0.000 C 
ATOM      2  C   UNL     1      -8.659   2.699 129.841  0.00  0.00    +0.000 C 
ATOM      3  C   UNL     1      -7.704   1.391 129.363  0.00  0.00    +0.000 C 
ATOM      4  C   UNL     1      -7.289   0.862 127.619  0.00  0.00    +0.000 C 
ATOM      5  C   UNL     1      -6.710  -0.205 126.065  0.00  0.00    +0.000 C 
ATOM      6  C   UNL     1      -6.840   0.826 124.921  0.00  0.00    +0.000 C 
ATOM      7  C   UNL     1      -6.940   2.222 124.735  0.00  0.00    +0.000 A 
ATOM      8  C   UNL     1      -6.241   2.838 123.726  0.00  0.00    +0.000 A 
ATOM      9  C   UNL     1      -6.064   4.152 123.771  0.00  0.00    +0.000 A 
ATOM     10  C   UNL     1      -6.464   4.862 124.924  0.00  0.00    +0.000 A 
ATOM     11  C   UNL     1      -7.149   4.134 125.927  0.00  0.00    +0.000 A 
ATOM     12  C   UNL     1      -7.560   2.855 125.801  0.00  0.00    +0.000 A 
ATOM     13  C   UNL     1      -8.220   1.920 126.870  0.00  0.00    +0.000 C 
ATOM     14  C   UNL     1      -9.198   0.340 126.296  0.00  0.00    +0.000 C 
ATOM     15  C   UNL     1      -8.759  -1.014 125.170  0.00  0.00    +0.000 C 
ATOM     16  N   UNL     1      -7.342  -1.439 125.301  0.00  0.00    +0.000 NA
ATOM     17  C   UNL     1      -7.693   3.377 127.901  0.00  0.00    +0.000 C 
ATOM     18  O   UNL     1      -7.359   4.599 127.177  0.00  0.00    +0.000 OA
ENDROOT
BRANCH  10  19
ATOM     19  O   UNL     1      -6.176   6.185 124.981  0.00  0.00    +0.000 OA
ATOM     20  H   UNL     1      -6.158   6.436 125.926  0.00  0.00    +0.000 HD
ENDBRANCH  10  19
BRANCH   4  21
ATOM     21  O   UNL     1      -8.014  -0.275 128.298  0.00  0.00    +0.000 OA
ATOM     22  H   UNL     1      -8.740  -0.639 127.796  0.00  0.00    +0.000 HD
ENDBRANCH   4  21
BRANCH  16  23
ATOM     23  C   UNL     1      -6.827  -2.045 123.859  0.00  0.00    +0.000 C 
BRANCH  23  24
ATOM     24  C   UNL     1      -5.326  -2.516 123.862  0.00  0.00    +0.000 C 
ATOM     25  C   UNL     1      -4.756  -3.740 123.705  0.00  0.00    +0.000 C 
ENDBRANCH  23  24
ENDBRANCH  16  23
BRANCH   1  26
ATOM     26  O   UNL     1      -9.492   4.796 128.839  0.00  0.00    +0.000 OA
BRANCH  26  27
ATOM     27  C   UNL     1     -10.073   5.438 130.006  0.00  0.00    +0.000 C 
BRANCH  27  28
ATOM     28  C   UNL     1      -9.174   6.594 130.412  0.00  0.00    +0.000 C 
BRANCH  28  29
ATOM     29  O   UNL     1      -9.240   6.799 131.822  0.00  0.00    +0.000 OA
BRANCH  29  30
ATOM     30  C   UNL     1      -9.094   5.557 132.502  0.00  0.00    +0.000 C 
BRANCH  30  31
ATOM     31  C   UNL     1      -7.825   5.592 133.327  0.00  0.00    +0.000 C 
BRANCH  31  32
ATOM     32  O   UNL     1      -6.803   4.889 132.630  0.00  0.00    +0.000 OA
BRANCH  32  33
ATOM     33  C   UNL     1      -5.646   4.764 133.448  0.00  0.00    +0.000 C 
BRANCH  33  34
ATOM     34  C   UNL     1      -4.906   6.085 133.456  0.00  0.00    +0.000 C 
BRANCH  34  35
ATOM     35  O   UNL     1      -4.593   6.448 132.116  0.00  0.00    +0.000 OA
BRANCH  35  36
ATOM     36  C   UNL     1      -3.185   6.416 131.913  0.00  0.00    +0.000 C 
BRANCH  36  37
ATOM     37  C   UNL     1      -2.891   5.685 130.619  0.00  0.00    +0.000 C 
BRANCH  37  38
ATOM     38  O   UNL     1      -1.958   6.446 129.858  0.00  0.00    +0.000 OA
BRANCH  38  39
ATOM     39  C   UNL     1      -2.365   6.502 128.495  0.00  0.00    +0.000 C 
BRANCH  39  40
ATOM     40  C   UNL     1      -3.808   6.048 128.392  0.00  0.00    +0.000 C 
BRANCH  40  41
ATOM     41  O   UNL     1      -4.016   5.452 127.116  0.00  0.00    +0.000 OA
BRANCH  41  42
ATOM     42  C   UNL     1      -3.214   4.285 126.981  0.00  0.00    +0.000 C 
BRANCH  42  43
ATOM     43  C   UNL     1      -4.069   3.062 127.257  0.00  0.00    +0.000 C 
BRANCH  43  44
ATOM     44  O   UNL     1      -3.408   2.236 128.210  0.00  0.00    +0.000 OA
BRANCH  44  45
ATOM     45  C   UNL     1      -4.134   2.217 129.435  0.00  0.00    +0.000 C 
BRANCH  45  46
ATOM     46  C   UNL     1      -4.129   0.805 129.993  0.00  0.00    +0.000 C 
BRANCH  46  48
ATOM     47  C   UNL     1      -3.984   1.767 132.120  0.00  0.00    +0.000 C 
ATOM     48  O   UNL     1      -4.666   0.817 131.313  0.00  0.00    +0.000 OA
ENDBRANCH  46  48
ENDBRANCH  45  46
ENDBRANCH  44  45
ENDBRANCH  43  44
ENDBRANCH  42  43
ENDBRANCH  41  42
ENDBRANCH  40  41
ENDBRANCH  39  40
ENDBRANCH  38  39
ENDBRANCH  37  38
ENDBRANCH  36  37
ENDBRANCH  35  36
ENDBRANCH  34  35
ENDBRANCH  33  34
ENDBRANCH  32  33
ENDBRANCH  31  32
ENDBRANCH  30  31
ENDBRANCH  29  30
ENDBRANCH  28  29
ENDBRANCH  27  28
ENDBRANCH  26  27
ENDBRANCH   1  26
TORSDOF 26
ENDMDL
MODEL 4
REMARK VINA RESULT:      -5.9      2.846      9.650
REMARK  Name = Naloxegol
REMARK  27 active torsions:
REMARK  status: ('A' for Active; 'I' for Inactive)
REMARK    1  A    between atoms: C_1  and  O_2
REMARK    2  A    between atoms: O_2  and  C_3
REMARK    3  A    between atoms: C_3  and  C_4
REMARK    4  A    between atoms: C_4  and  O_5
REMARK    5  A    between atoms: O_5  and  C_6
REMARK    6  A    between atoms: C_6  and  C_7
REMARK    7  A    between atoms: C_7  and  O_8
REMARK    8  A    between atoms: O_8  and  C_9
REMARK    9  A    between atoms: C_9  and  C_10
REMARK   10  A    between atoms: C_10  and  O_11
REMARK   11  A    between atoms: O_11  and  C_12
REMARK   12  A    between atoms: C_12  and  C_13
REMARK   13  A    between atoms: C_13  and  O_14
REMARK   14  A    between atoms: O_14  and  C_15
REMARK   15  A    between atoms: C_15  and  C_16
REMARK   16  A    between atoms: C_16  and  O_17
REMARK   17  A    between atoms: O_17  and  C_18
REMARK   18  A    between atoms: C_18  and  C_19
REMARK   19  A    between atoms: C_19  and  O_20
REMARK   20  A    between atoms: O_20  and  C_21
REMARK   21  A    between atoms: C_21  and  C_22
REMARK   22  A    between atoms: C_22  and  O_23
REMARK   23  A    between atoms: O_23  and  C_24
REMARK   24  A    between atoms: C_27  and  O_28
REMARK   25  A    between atoms: C_34  and  O_35
REMARK   26  A    between atoms: N_41  and  C_42
REMARK   27  A    between atoms: C_42  and  C_43
REMARK                            x       y       z     vdW  Elec       q    Type
REMARK                         _______ _______ _______ _____ _____    ______ ____
ROOT
ATOM      1  C   UNL     1      -6.227   3.415 134.255  0.00  0.00    +0.000 C 
ATOM      2  C   UNL     1      -6.814   4.589 134.951  0.00  0.00    +0.000 C 
ATOM      3  C   UNL     1      -8.429   4.890 134.560  0.00  0.00    +0.000 C 
ATOM      4  C   UNL     1      -9.201   4.920 132.858  0.00  0.00    +0.000 C 
ATOM      5  C   UNL     1     -10.445   5.245 131.364  0.00  0.00    +0.000 C 
ATOM      6  C   UNL     1      -9.727   4.519 130.205  0.00  0.00    +0.000 C 
ATOM      7  C   UNL     1      -8.724   3.547 129.999  0.00  0.00    +0.000 A 
ATOM      8  C   UNL     1      -8.887   2.574 129.043  0.00  0.00    +0.000 A 
ATOM      9  C   UNL     1      -8.128   1.487 129.090  0.00  0.00    +0.000 A 
ATOM     10  C   UNL     1      -7.282   1.286 130.203  0.00  0.00    +0.000 A 
ATOM     11  C   UNL     1      -7.205   2.330 131.155  0.00  0.00    +0.000 A 
ATOM     12  C   UNL     1      -7.773   3.546 131.009  0.00  0.00    +0.000 A 
ATOM     13  C   UNL     1      -7.851   4.730 132.030  0.00  0.00    +0.000 C 
ATOM     14  C   UNL     1      -8.233   6.528 131.394  0.00  0.00    +0.000 C 
ATOM     15  C   UNL     1      -9.540   7.180 130.318  0.00  0.00    +0.000 C 
ATOM     16  N   UNL     1     -10.861   6.546 130.563  0.00  0.00    +0.000 NA
ATOM     17  C   UNL     1      -7.190   3.348 133.087  0.00  0.00    +0.000 C 
ATOM     18  O   UNL     1      -6.658   2.187 132.380  0.00  0.00    +0.000 OA
ENDROOT
BRANCH  10  19
ATOM     19  O   UNL     1      -6.598   0.118 130.271  0.00  0.00    +0.000 OA
ATOM     20  H   UNL     1      -5.729   0.268 129.848  0.00  0.00    +0.000 HD
ENDBRANCH  10  19
BRANCH   4  21
ATOM     21  O   UNL     1      -9.392   6.279 133.488  0.00  0.00    +0.000 OA
ATOM     22  H   UNL     1      -9.257   6.301 134.433  0.00  0.00    +0.000 HD
ENDBRANCH   4  21
BRANCH  16  23
ATOM     23  C   UNL     1     -11.740   6.580 129.171  0.00  0.00    +0.000 C 
BRANCH  23  24
ATOM     24  C   UNL     1     -11.978   8.026 128.599  0.00  0.00    +0.000 C 
ATOM     25  C   UNL     1     -13.108   8.760 128.422  0.00  0.00    +0.000 C 
ENDBRANCH  23  24
ENDBRANCH  16  23
BRANCH   1  26
ATOM     26  O   UNL     1      -4.850   3.554 133.869  0.00  0.00    +0.000 OA
BRANCH  26  27
ATOM     27  C   UNL     1      -4.377   4.927 133.836  0.00  0.00    +0.000 C 
BRANCH  27  28
ATOM     28  C   UNL     1      -4.129   5.312 132.387  0.00  0.00    +0.000 C 
BRANCH  28  29
ATOM     29  O   UNL     1      -3.982   6.725 132.270  0.00  0.00    +0.000 OA
BRANCH  29  30
ATOM     30  C   UNL     1      -4.697   7.195 131.132  0.00  0.00    +0.000 C 
BRANCH  30  31
ATOM     31  C   UNL     1      -3.731   7.888 130.194  0.00  0.00    +0.000 C 
BRANCH  31  32
ATOM     32  O   UNL     1      -4.101   7.593 128.851  0.00  0.00    +0.000 OA
BRANCH  32  33
ATOM     33  C   UNL     1      -3.110   6.777 128.237  0.00  0.00    +0.000 C 
BRANCH  33  34
ATOM     34  C   UNL     1      -3.783   5.561 127.635  0.00  0.00    +0.000 C 
BRANCH  34  35
ATOM     35  O   UNL     1      -4.307   4.754 128.684  0.00  0.00    +0.000 OA
BRANCH  35  36
ATOM     36  C   UNL     1      -5.320   3.891 128.182  0.00  0.00    +0.000 C 
BRANCH  36  37
ATOM     37  C   UNL     1      -5.655   4.298 126.762  0.00  0.00    +0.000 C 
BRANCH  37  38
ATOM     38  O   UNL     1      -6.693   3.456 126.270  0.00  0.00    +0.000 OA
BRANCH  38  39
ATOM     39  C   UNL     1      -7.581   4.200 125.443  0.00  0.00    +0.000 C 
BRANCH  39  40
ATOM     40  C   UNL     1      -8.248   3.256 124.462  0.00  0.00    +0.000 C 
BRANCH  40  41
ATOM     41  O   UNL     1      -9.403   2.691 125.075  0.00  0.00    +0.000 OA
BRANCH  41  42
ATOM     42  C   UNL     1      -9.509   1.310 124.748  0.00  0.00    +0.000 C 
BRANCH  42  43
ATOM     43  C   UNL     1      -8.488   0.531 125.556  0.00  0.00    +0.000 C 
BRANCH  43  44
ATOM     44  O   UNL     1      -7.629  -0.174 124.665  0.00  0.00    +0.000 OA
BRANCH  44  45
ATOM     45  C   UNL     1      -8.112  -1.498 124.458  0.00  0.00    +0.000 C 
BRANCH  45  46
ATOM     46  C   UNL     1      -7.289  -2.463 125.293  0.00  0.00    +0.000 C 
BRANCH  46  48
ATOM     47  C   UNL     1      -9.503  -3.091 125.710  0.00  0.00    +0.000 C 
ATOM     48  O   UNL     1      -8.156  -3.207 126.145  0.00  0.00    +0.000 OA
ENDBRANCH  46  48
ENDBRANCH  45  46
ENDBRANCH  44  45
ENDBRANCH  43  44
ENDBRANCH  42  43
ENDBRANCH  41  42
ENDBRANCH  40  41
ENDBRANCH  39  40
ENDBRANCH  38  39
ENDBRANCH  37  38
ENDBRANCH  36  37
ENDBRANCH  35  36
ENDBRANCH  34  35
ENDBRANCH  33  34
ENDBRANCH  32  33
ENDBRANCH  31  32
ENDBRANCH  30  31
ENDBRANCH  29  30
ENDBRANCH  28  29
ENDBRANCH  27  28
ENDBRANCH  26  27
ENDBRANCH   1  26
TORSDOF 26
ENDMDL
MODEL 5
REMARK VINA RESULT:      -5.8      2.948      9.396
REMARK  Name = Naloxegol
REMARK  27 active torsions:
REMARK  status: ('A' for Active; 'I' for Inactive)
REMARK    1  A    between atoms: C_1  and  O_2
REMARK    2  A    between atoms: O_2  and  C_3
REMARK    3  A    between atoms: C_3  and  C_4
REMARK    4  A    between atoms: C_4  and  O_5
REMARK    5  A    between atoms: O_5  and  C_6
REMARK    6  A    between atoms: C_6  and  C_7
REMARK    7  A    between atoms: C_7  and  O_8
REMARK    8  A    between atoms: O_8  and  C_9
REMARK    9  A    between atoms: C_9  and  C_10
REMARK   10  A    between atoms: C_10  and  O_11
REMARK   11  A    between atoms: O_11  and  C_12
REMARK   12  A    between atoms: C_12  and  C_13
REMARK   13  A    between atoms: C_13  and  O_14
REMARK   14  A    between atoms: O_14  and  C_15
REMARK   15  A    between atoms: C_15  and  C_16
REMARK   16  A    between atoms: C_16  and  O_17
REMARK   17  A    between atoms: O_17  and  C_18
REMARK   18  A    between atoms: C_18  and  C_19
REMARK   19  A    between atoms: C_19  and  O_20
REMARK   20  A    between atoms: O_20  and  C_21
REMARK   21  A    between atoms: C_21  and  C_22
REMARK   22  A    between atoms: C_22  and  O_23
REMARK   23  A    between atoms: O_23  and  C_24
REMARK   24  A    between atoms: C_27  and  O_28
REMARK   25  A    between atoms: C_34  and  O_35
REMARK   26  A    between atoms: N_41  and  C_42
REMARK   27  A    between atoms: C_42  and  C_43
REMARK                            x       y       z     vdW  Elec       q    Type
REMARK                         _______ _______ _______ _____ _____    ______ ____
ROOT
ATOM      1  C   UNL     1      -6.127   3.289 134.160  0.00  0.00    +0.000 C 
ATOM      2  C   UNL     1      -6.672   4.455 134.900  0.00  0.00    +0.000 C 
ATOM      3  C   UNL     1      -8.293   4.791 134.566  0.00  0.00    +0.000 C 
ATOM      4  C   UNL     1      -9.117   4.872 132.891  0.00  0.00    +0.000 C 
ATOM      5  C   UNL     1     -10.401   5.252 131.444  0.00  0.00    +0.000 C 
ATOM      6  C   UNL     1      -9.731   4.541 130.246  0.00  0.00    +0.000 C 
ATOM      7  C   UNL     1      -8.751   3.557 129.988  0.00  0.00    +0.000 A 
ATOM      8  C   UNL     1      -8.960   2.609 129.017  0.00  0.00    +0.000 A 
ATOM      9  C   UNL     1      -8.219   1.509 129.016  0.00  0.00    +0.000 A 
ATOM     10  C   UNL     1      -7.342   1.269 130.097  0.00  0.00    +0.000 A 
ATOM     11  C   UNL     1      -7.219   2.290 131.068  0.00  0.00    +0.000 A 
ATOM     12  C   UNL     1      -7.770   3.518 130.967  0.00  0.00    +0.000 A 
ATOM     13  C   UNL     1      -7.796   4.680 132.017  0.00  0.00    +0.000 C 
ATOM     14  C   UNL     1      -8.167   6.498 131.433  0.00  0.00    +0.000 C 
ATOM     15  C   UNL     1      -9.495   7.195 130.413  0.00  0.00    +0.000 C 
ATOM     16  N   UNL     1     -10.819   6.577 130.685  0.00  0.00    +0.000 NA
ATOM     17  C   UNL     1      -7.126   3.264 133.021  0.00  0.00    +0.000 C 
ATOM     18  O   UNL     1      -6.636   2.111 132.273  0.00  0.00    +0.000 OA
ENDROOT
BRANCH  10  19
ATOM     19  O   UNL     1      -6.676   0.089 130.117  0.00  0.00    +0.000 OA
ATOM     20  H   UNL     1      -5.891   0.192 129.545  0.00  0.00    +0.000 HD
ENDBRANCH  10  19
BRANCH   4  21
ATOM     21  O   UNL     1      -9.265   6.220 133.556  0.00  0.00    +0.000 OA
ATOM     22  H   UNL     1      -9.434   6.943 132.956  0.00  0.00    +0.000 HD
ENDBRANCH   4  21
BRANCH  16  23
ATOM     23  C   UNL     1     -11.740   6.657 129.322  0.00  0.00    +0.000 C 
BRANCH  23  24
ATOM     24  C   UNL     1     -11.506   7.956 128.466  0.00  0.00    +0.000 C 
ATOM     25  C   UNL     1     -10.883   8.160 127.275  0.00  0.00    +0.000 C 
ENDBRANCH  23  24
ENDBRANCH  16  23
BRANCH   1  26
ATOM     26  O   UNL     1      -4.760   3.413 133.735  0.00  0.00    +0.000 OA
BRANCH  26  27
ATOM     27  C   UNL     1      -4.478   4.630 132.992  0.00  0.00    +0.000 C 
BRANCH  27  28
ATOM     28  C   UNL     1      -3.890   4.241 131.646  0.00  0.00    +0.000 C 
BRANCH  28  29
ATOM     29  O   UNL     1      -4.160   5.253 130.678  0.00  0.00    +0.000 OA
BRANCH  29  30
ATOM     30  C   UNL     1      -2.939   5.792 130.184  0.00  0.00    +0.000 C 
BRANCH  30  31
ATOM     31  C   UNL     1      -3.186   6.407 128.823  0.00  0.00    +0.000 C 
BRANCH  31  32
ATOM     32  O   UNL     1      -4.489   6.044 128.382  0.00  0.00    +0.000 OA
BRANCH  32  33
ATOM     33  C   UNL     1      -4.408   5.278 127.186  0.00  0.00    +0.000 C 
BRANCH  33  34
ATOM     34  C   UNL     1      -5.337   4.087 127.304  0.00  0.00    +0.000 C 
BRANCH  34  35
ATOM     35  O   UNL     1      -5.586   3.565 126.003  0.00  0.00    +0.000 OA
BRANCH  35  36
ATOM     36  C   UNL     1      -6.864   2.940 125.960  0.00  0.00    +0.000 C 
BRANCH  36  37
ATOM     37  C   UNL     1      -7.918   3.994 125.686  0.00  0.00    +0.000 C 
BRANCH  37  38
ATOM     38  O   UNL     1      -8.976   3.408 124.934  0.00  0.00    +0.000 OA
BRANCH  38  39
ATOM     39  C   UNL     1      -8.716   2.025 124.714  0.00  0.00    +0.000 C 
BRANCH  39  40
ATOM     40  C   UNL     1     -10.034   1.275 124.687  0.00  0.00    +0.000 C 
BRANCH  40  41
ATOM     41  O   UNL     1      -9.940   0.142 125.544  0.00  0.00    +0.000 OA
BRANCH  41  42
ATOM     42  C   UNL     1      -8.629  -0.409 125.490  0.00  0.00    +0.000 C 
BRANCH  42  43
ATOM     43  C   UNL     1      -8.603  -1.700 126.287  0.00  0.00    +0.000 C 
BRANCH  43  44
ATOM     44  O   UNL     1      -7.969  -1.461 127.540  0.00  0.00    +0.000 OA
BRANCH  44  45
ATOM     45  C   UNL     1      -7.941  -2.656 128.315  0.00  0.00    +0.000 C 
BRANCH  45  46
ATOM     46  C   UNL     1      -6.499  -3.004 128.639  0.00  0.00    +0.000 C 
BRANCH  46  48
ATOM     47  C   UNL     1      -7.497  -3.153 130.750  0.00  0.00    +0.000 C 
ATOM     48  O   UNL     1      -6.292  -2.890 130.045  0.00  0.00    +0.000 OA
ENDBRANCH  46  48
ENDBRANCH  45  46
ENDBRANCH  44  45
ENDBRANCH  43  44
ENDBRANCH  42  43
ENDBRANCH  41  42
ENDBRANCH  40  41
ENDBRANCH  39  40
ENDBRANCH  38  39
ENDBRANCH  37  38
ENDBRANCH  36  37
ENDBRANCH  35  36
ENDBRANCH  34  35
ENDBRANCH  33  34
ENDBRANCH  32  33
ENDBRANCH  31  32
ENDBRANCH  30  31
ENDBRANCH  29  30
ENDBRANCH  28  29
ENDBRANCH  27  28
ENDBRANCH  26  27
ENDBRANCH   1  26
TORSDOF 26
ENDMDL
MODEL 6
REMARK VINA RESULT:      -5.8      2.579      5.642
REMARK  Name = Naloxegol
REMARK  27 active torsions:
REMARK  status: ('A' for Active; 'I' for Inactive)
REMARK    1  A    between atoms: C_1  and  O_2
REMARK    2  A    between atoms: O_2  and  C_3
REMARK    3  A    between atoms: C_3  and  C_4
REMARK    4  A    between atoms: C_4  and  O_5
REMARK    5  A    between atoms: O_5  and  C_6
REMARK    6  A    between atoms: C_6  and  C_7
REMARK    7  A    between atoms: C_7  and  O_8
REMARK    8  A    between atoms: O_8  and  C_9
REMARK    9  A    between atoms: C_9  and  C_10
REMARK   10  A    between atoms: C_10  and  O_11
REMARK   11  A    between atoms: O_11  and  C_12
REMARK   12  A    between atoms: C_12  and  C_13
REMARK   13  A    between atoms: C_13  and  O_14
REMARK   14  A    between atoms: O_14  and  C_15
REMARK   15  A    between atoms: C_15  and  C_16
REMARK   16  A    between atoms: C_16  and  O_17
REMARK   17  A    between atoms: O_17  and  C_18
REMARK   18  A    between atoms: C_18  and  C_19
REMARK   19  A    between atoms: C_19  and  O_20
REMARK   20  A    between atoms: O_20  and  C_21
REMARK   21  A    between atoms: C_21  and  C_22
REMARK   22  A    between atoms: C_22  and  O_23
REMARK   23  A    between atoms: O_23  and  C_24
REMARK   24  A    between atoms: C_27  and  O_28
REMARK   25  A    between atoms: C_34  and  O_35
REMARK   26  A    between atoms: N_41  and  C_42
REMARK   27  A    between atoms: C_42  and  C_43
REMARK                            x       y       z     vdW  Elec       q    Type
REMARK                         _______ _______ _______ _____ _____    ______ ____
ROOT
ATOM      1  C   UNL     1      -7.511  -0.675 128.437  0.00  0.00    +0.000 C 
ATOM      2  C   UNL     1      -7.535   0.774 128.761  0.00  0.00    +0.000 C 
ATOM      3  C   UNL     1      -8.534   1.692 127.756  0.00  0.00    +0.000 C 
ATOM      4  C   UNL     1      -8.641   1.628 125.891  0.00  0.00    +0.000 C 
ATOM      5  C   UNL     1      -9.017   2.092 124.012  0.00  0.00    +0.000 C 
ATOM      6  C   UNL     1      -8.513   0.829 123.278  0.00  0.00    +0.000 C 
ATOM      7  C   UNL     1      -8.191  -0.518 123.550  0.00  0.00    +0.000 A 
ATOM      8  C   UNL     1      -8.574  -1.511 122.682  0.00  0.00    +0.000 A 
ATOM      9  C   UNL     1      -8.580  -2.771 123.100  0.00  0.00    +0.000 A 
ATOM     10  C   UNL     1      -8.340  -3.043 124.465  0.00  0.00    +0.000 A 
ATOM     11  C   UNL     1      -7.985  -1.950 125.291  0.00  0.00    +0.000 A 
ATOM     12  C   UNL     1      -7.730  -0.702 124.845  0.00  0.00    +0.000 A 
ATOM     13  C   UNL     1      -7.440   0.601 125.665  0.00  0.00    +0.000 C 
ATOM     14  C   UNL     1      -6.583   2.115 124.797  0.00  0.00    +0.000 C 
ATOM     15  C   UNL     1      -6.952   2.995 123.253  0.00  0.00    +0.000 C 
ATOM     16  N   UNL     1      -8.409   3.162 123.017  0.00  0.00    +0.000 NA
ATOM     17  C   UNL     1      -7.973  -0.586 126.996  0.00  0.00    +0.000 C 
ATOM     18  O   UNL     1      -7.982  -2.001 126.640  0.00  0.00    +0.000 OA
ENDROOT
BRANCH  10  19
ATOM     19  O   UNL     1      -8.454  -4.328 124.880  0.00  0.00    +0.000 OA
ATOM     20  H   UNL     1      -8.384  -4.324 125.855  0.00  0.00    +0.000 HD
ENDBRANCH  10  19
BRANCH   4  21
ATOM     21  O   UNL     1      -8.233   3.025 126.294  0.00  0.00    +0.000 OA
ATOM     22  H   UNL     1      -7.464   3.361 125.838  0.00  0.00    +0.000 HD
ENDBRANCH   4  21
BRANCH  16  23
ATOM     23  C   UNL     1      -8.686   3.236 121.395  0.00  0.00    +0.000 C 
BRANCH  23  24
ATOM     24  C   UNL     1      -7.607   4.058 120.598  0.00  0.00    +0.000 C 
ATOM     25  C   UNL     1      -7.397   4.232 119.267  0.00  0.00    +0.000 C 
ENDBRANCH  23  24
ENDBRANCH  16  23
BRANCH   1  26
ATOM     26  O   UNL     1      -6.239  -1.322 128.603  0.00  0.00    +0.000 OA
BRANCH  26  27
ATOM     27  C   UNL     1      -6.110  -2.070 129.842  0.00  0.00    +0.000 C 
BRANCH  27  28
ATOM     28  C   UNL     1      -7.493  -2.547 130.256  0.00  0.00    +0.000 C 
BRANCH  28  29
ATOM     29  O   UNL     1      -7.465  -3.038 131.594  0.00  0.00    +0.000 OA
BRANCH  29  30
ATOM     30  C   UNL     1      -6.118  -3.236 132.012  0.00  0.00    +0.000 C 
BRANCH  30  31
ATOM     31  C   UNL     1      -6.043  -3.102 133.518  0.00  0.00    +0.000 C 
BRANCH  31  32
ATOM     32  O   UNL     1      -6.590  -1.844 133.897  0.00  0.00    +0.000 OA
BRANCH  32  33
ATOM     33  C   UNL     1      -5.665  -0.801 133.613  0.00  0.00    +0.000 C 
BRANCH  33  34
ATOM     34  C   UNL     1      -6.403   0.522 133.619  0.00  0.00    +0.000 C 
BRANCH  34  35
ATOM     35  O   UNL     1      -7.217   0.603 132.454  0.00  0.00    +0.000 OA
BRANCH  35  36
ATOM     36  C   UNL     1      -7.617   1.949 132.225  0.00  0.00    +0.000 C 
BRANCH  36  37
ATOM     37  C   UNL     1      -6.430   2.733 131.704  0.00  0.00    +0.000 C 
BRANCH  37  38
ATOM     38  O   UNL     1      -6.841   4.069 131.428  0.00  0.00    +0.000 OA
BRANCH  38  39
ATOM     39  C   UNL     1      -7.909   4.443 132.291  0.00  0.00    +0.000 C 
BRANCH  39  40
ATOM     40  C   UNL     1      -8.702   5.559 131.637  0.00  0.00    +0.000 C 
BRANCH  40  41
ATOM     41  O   UNL     1      -9.170   5.114 130.369  0.00  0.00    +0.000 OA
BRANCH  41  42
ATOM     42  C   UNL     1     -10.446   4.498 130.503  0.00  0.00    +0.000 C 
BRANCH  42  43
ATOM     43  C   UNL     1     -11.513   5.576 130.554  0.00  0.00    +0.000 C 
BRANCH  43  44
ATOM     44  O   UNL     1     -12.192   5.619 129.304  0.00  0.00    +0.000 OA
BRANCH  44  45
ATOM     45  C   UNL     1     -12.511   6.965 128.961  0.00  0.00    +0.000 C 
BRANCH  45  46
ATOM     46  C   UNL     1     -13.043   7.002 127.540  0.00  0.00    +0.000 C 
BRANCH  46  48
ATOM     47  C   UNL     1     -10.924   7.608 126.755  0.00  0.00    +0.000 C 
ATOM     48  O   UNL     1     -11.992   6.678 126.634  0.00  0.00    +0.000 OA
ENDBRANCH  46  48
ENDBRANCH  45  46
ENDBRANCH  44  45
ENDBRANCH  43  44
ENDBRANCH  42  43
ENDBRANCH  41  42
ENDBRANCH  40  41
ENDBRANCH  39  40
ENDBRANCH  38  39
ENDBRANCH  37  38
ENDBRANCH  36  37
ENDBRANCH  35  36
ENDBRANCH  34  35
ENDBRANCH  33  34
ENDBRANCH  32  33
ENDBRANCH  31  32
ENDBRANCH  30  31
ENDBRANCH  29  30
ENDBRANCH  28  29
ENDBRANCH  27  28
ENDBRANCH  26  27
ENDBRANCH   1  26
TORSDOF 26
ENDMDL
MODEL 7
REMARK VINA RESULT:      -5.8      2.774      6.835
REMARK  Name = Naloxegol
REMARK  27 active torsions:
REMARK  status: ('A' for Active; 'I' for Inactive)
REMARK    1  A    between atoms: C_1  and  O_2
REMARK    2  A    between atoms: O_2  and  C_3
REMARK    3  A    between atoms: C_3  and  C_4
REMARK    4  A    between atoms: C_4  and  O_5
REMARK    5  A    between atoms: O_5  and  C_6
REMARK    6  A    between atoms: C_6  and  C_7
REMARK    7  A    between atoms: C_7  and  O_8
REMARK    8  A    between atoms: O_8  and  C_9
REMARK    9  A    between atoms: C_9  and  C_10
REMARK   10  A    between atoms: C_10  and  O_11
REMARK   11  A    between atoms: O_11  and  C_12
REMARK   12  A    between atoms: C_12  and  C_13
REMARK   13  A    between atoms: C_13  and  O_14
REMARK   14  A    between atoms: O_14  and  C_15
REMARK   15  A    between atoms: C_15  and  C_16
REMARK   16  A    between atoms: C_16  and  O_17
REMARK   17  A    between atoms: O_17  and  C_18
REMARK   18  A    between atoms: C_18  and  C_19
REMARK   19  A    between atoms: C_19  and  O_20
REMARK   20  A    between atoms: O_20  and  C_21
REMARK   21  A    between atoms: C_21  and  C_22
REMARK   22  A    between atoms: C_22  and  O_23
REMARK   23  A    between atoms: O_23  and  C_24
REMARK   24  A    between atoms: C_27  and  O_28
REMARK   25  A    between atoms: C_34  and  O_35
REMARK   26  A    between atoms: N_41  and  C_42
REMARK   27  A    between atoms: C_42  and  C_43
REMARK                            x       y       z     vdW  Elec       q    Type
REMARK                         _______ _______ _______ _____ _____    ______ ____
ROOT
ATOM      1  C   UNL     1      -8.263   3.666 129.054  0.00  0.00    +0.000 C 
ATOM      2  C   UNL     1      -8.618   2.355 129.653  0.00  0.00    +0.000 C 
ATOM      3  C   UNL     1      -7.721   1.055 129.056  0.00  0.00    +0.000 C 
ATOM      4  C   UNL     1      -7.333   0.664 127.270  0.00  0.00    +0.000 C 
ATOM      5  C   UNL     1      -6.805  -0.285 125.625  0.00  0.00    +0.000 C 
ATOM      6  C   UNL     1      -6.895   0.846 124.577  0.00  0.00    +0.000 C 
ATOM      7  C   UNL     1      -6.936   2.256 124.514  0.00  0.00    +0.000 A 
ATOM      8  C   UNL     1      -6.214   2.929 123.559  0.00  0.00    +0.000 A 
ATOM      9  C   UNL     1      -5.982   4.226 123.717  0.00  0.00    +0.000 A 
ATOM     10  C   UNL     1      -6.348   4.847 124.931  0.00  0.00    +0.000 A 
ATOM     11  C   UNL     1      -7.060   4.064 125.870  0.00  0.00    +0.000 A 
ATOM     12  C   UNL     1      -7.525   2.819 125.636  0.00  0.00    +0.000 A 
ATOM     13  C   UNL     1      -8.222   1.822 126.623  0.00  0.00    +0.000 C 
ATOM     14  C   UNL     1      -9.267   0.341 125.919  0.00  0.00    +0.000 C 
ATOM     15  C   UNL     1      -8.889  -0.926 124.676  0.00  0.00    +0.000 C 
ATOM     16  N   UNL     1      -7.491  -1.420 124.760  0.00  0.00    +0.000 NA
ATOM     17  C   UNL     1      -7.630   3.159 127.774  0.00  0.00    +0.000 C 
ATOM     18  O   UNL     1      -7.247   4.425 127.157  0.00  0.00    +0.000 OA
ENDROOT
BRANCH  10  19
ATOM     19  O   UNL     1      -6.004   6.147 125.101  0.00  0.00    +0.000 OA
ATOM     20  H   UNL     1      -6.588   6.511 125.796  0.00  0.00    +0.000 HD
ENDBRANCH  10  19
BRANCH   4  21
ATOM     21  O   UNL     1      -8.104  -0.497 127.852  0.00  0.00    +0.000 OA
ATOM     22  H   UNL     1      -7.592  -1.067 128.422  0.00  0.00    +0.000 HD
ENDBRANCH   4  21
BRANCH  16  23
ATOM     23  C   UNL     1      -7.006  -1.918 123.267  0.00  0.00    +0.000 C 
BRANCH  23  24
ATOM     24  C   UNL     1      -5.538  -2.482 123.226  0.00  0.00    +0.000 C 
ATOM     25  C   UNL     1      -4.975  -3.595 123.766  0.00  0.00    +0.000 C 
ENDBRANCH  23  24
ENDBRANCH  16  23
BRANCH   1  26
ATOM     26  O   UNL     1      -9.364   4.565 128.845  0.00  0.00    +0.000 OA
BRANCH  26  27
ATOM     27  C   UNL     1      -9.904   5.138 130.067  0.00  0.00    +0.000 C 
BRANCH  27  28
ATOM     28  C   UNL     1      -8.742   5.509 130.973  0.00  0.00    +0.000 C 
BRANCH  28  29
ATOM     29  O   UNL     1      -9.166   6.446 131.961  0.00  0.00    +0.000 OA
BRANCH  29  30
ATOM     30  C   UNL     1      -8.968   5.904 133.262  0.00  0.00    +0.000 C 
BRANCH  30  31
ATOM     31  C   UNL     1      -8.843   4.398 133.156  0.00  0.00    +0.000 C 
BRANCH  31  32
ATOM     32  O   UNL     1      -8.247   3.901 134.349  0.00  0.00    +0.000 OA
BRANCH  32  33
ATOM     33  C   UNL     1      -6.836   3.813 134.194  0.00  0.00    +0.000 C 
BRANCH  33  34
ATOM     34  C   UNL     1      -6.443   2.354 134.099  0.00  0.00    +0.000 C 
BRANCH  34  35
ATOM     35  O   UNL     1      -5.024   2.260 134.034  0.00  0.00    +0.000 OA
BRANCH  35  36
ATOM     36  C   UNL     1      -4.503   3.265 133.173  0.00  0.00    +0.000 C 
BRANCH  36  37
ATOM     37  C   UNL     1      -3.724   2.601 132.056  0.00  0.00    +0.000 C 
BRANCH  37  38
ATOM     38  O   UNL     1      -4.640   2.091 131.092  0.00  0.00    +0.000 OA
BRANCH  38  39
ATOM     39  C   UNL     1      -4.679   2.941 129.951  0.00  0.00    +0.000 C 
BRANCH  39  40
ATOM     40  C   UNL     1      -3.797   2.353 128.867  0.00  0.00    +0.000 C 
BRANCH  40  41
ATOM     41  O   UNL     1      -4.417   2.559 127.602  0.00  0.00    +0.000 OA
BRANCH  41  42
ATOM     42  C   UNL     1      -3.462   3.022 126.655  0.00  0.00    +0.000 C 
BRANCH  42  43
ATOM     43  C   UNL     1      -2.882   4.338 127.140  0.00  0.00    +0.000 C 
BRANCH  43  44
ATOM     44  O   UNL     1      -3.914   5.320 127.167  0.00  0.00    +0.000 OA
BRANCH  44  45
ATOM     45  C   UNL     1      -3.660   6.276 128.191  0.00  0.00    +0.000 C 
BRANCH  45  46
ATOM     46  C   UNL     1      -2.421   5.858 128.964  0.00  0.00    +0.000 C 
BRANCH  46  48
ATOM     47  C   UNL     1      -1.672   6.501 131.084  0.00  0.00    +0.000 C 
ATOM     48  O   UNL     1      -2.712   5.861 130.359  0.00  0.00    +0.000 OA
ENDBRANCH  46  48
ENDBRANCH  45  46
ENDBRANCH  44  45
ENDBRANCH  43  44
ENDBRANCH  42  43
ENDBRANCH  41  42
ENDBRANCH  40  41
ENDBRANCH  39  40
ENDBRANCH  38  39
ENDBRANCH  37  38
ENDBRANCH  36  37
ENDBRANCH  35  36
ENDBRANCH  34  35
ENDBRANCH  33  34
ENDBRANCH  32  33
ENDBRANCH  31  32
ENDBRANCH  30  31
ENDBRANCH  29  30
ENDBRANCH  28  29
ENDBRANCH  27  28
ENDBRANCH  26  27
ENDBRANCH   1  26
TORSDOF 26
ENDMDL
MODEL 8
REMARK VINA RESULT:      -5.8      4.204      9.902
REMARK  Name = Naloxegol
REMARK  27 active torsions:
REMARK  status: ('A' for Active; 'I' for Inactive)
REMARK    1  A    between atoms: C_1  and  O_2
REMARK    2  A    between atoms: O_2  and  C_3
REMARK    3  A    between atoms: C_3  and  C_4
REMARK    4  A    between atoms: C_4  and  O_5
REMARK    5  A    between atoms: O_5  and  C_6
REMARK    6  A    between atoms: C_6  and  C_7
REMARK    7  A    between atoms: C_7  and  O_8
REMARK    8  A    between atoms: O_8  and  C_9
REMARK    9  A    between atoms: C_9  and  C_10
REMARK   10  A    between atoms: C_10  and  O_11
REMARK   11  A    between atoms: O_11  and  C_12
REMARK   12  A    between atoms: C_12  and  C_13
REMARK   13  A    between atoms: C_13  and  O_14
REMARK   14  A    between atoms: O_14  and  C_15
REMARK   15  A    between atoms: C_15  and  C_16
REMARK   16  A    between atoms: C_16  and  O_17
REMARK   17  A    between atoms: O_17  and  C_18
REMARK   18  A    between atoms: C_18  and  C_19
REMARK   19  A    between atoms: C_19  and  O_20
REMARK   20  A    between atoms: O_20  and  C_21
REMARK   21  A    between atoms: C_21  and  C_22
REMARK   22  A    between atoms: C_22  and  O_23
REMARK   23  A    between atoms: O_23  and  C_24
REMARK   24  A    between atoms: C_27  and  O_28
REMARK   25  A    between atoms: C_34  and  O_35
REMARK   26  A    between atoms: N_41  and  C_42
REMARK   27  A    between atoms: C_42  and  C_43
REMARK                            x       y       z     vdW  Elec       q    Type
REMARK                         _______ _______ _______ _____ _____    ______ ____
ROOT
ATOM      1  C   UNL     1      -6.231   3.286 134.206  0.00  0.00    +0.000 C 
ATOM      2  C   UNL     1      -6.785   4.466 134.917  0.00  0.00    +0.000 C 
ATOM      3  C   UNL     1      -8.398   4.803 134.549  0.00  0.00    +0.000 C 
ATOM      4  C   UNL     1      -9.191   4.860 132.858  0.00  0.00    +0.000 C 
ATOM      5  C   UNL     1     -10.447   5.222 131.382  0.00  0.00    +0.000 C 
ATOM      6  C   UNL     1      -9.758   4.489 130.208  0.00  0.00    +0.000 C 
ATOM      7  C   UNL     1      -8.778   3.499 129.983  0.00  0.00    +0.000 A 
ATOM      8  C   UNL     1      -8.973   2.536 129.023  0.00  0.00    +0.000 A 
ATOM      9  C   UNL     1      -8.235   1.434 129.052  0.00  0.00    +0.000 A 
ATOM     10  C   UNL     1      -7.379   1.208 130.153  0.00  0.00    +0.000 A 
ATOM     11  C   UNL     1      -7.270   2.244 131.111  0.00  0.00    +0.000 A 
ATOM     12  C   UNL     1      -7.814   3.471 130.980  0.00  0.00    +0.000 A 
ATOM     13  C   UNL     1      -7.855   4.650 132.011  0.00  0.00    +0.000 C 
ATOM     14  C   UNL     1      -8.208   6.459 131.393  0.00  0.00    +0.000 C 
ATOM     15  C   UNL     1      -9.516   7.145 130.338  0.00  0.00    +0.000 C 
ATOM     16  N   UNL     1     -10.846   6.537 130.595  0.00  0.00    +0.000 NA
ATOM     17  C   UNL     1      -7.209   3.247 133.050  0.00  0.00    +0.000 C 
ATOM     18  O   UNL     1      -6.710   2.081 132.329  0.00  0.00    +0.000 OA
ENDROOT
BRANCH  10  19
ATOM     19  O   UNL     1      -6.718   0.026 130.204  0.00  0.00    +0.000 OA
ATOM     20  H   UNL     1      -6.680  -0.243 131.143  0.00  0.00    +0.000 HD
ENDBRANCH  10  19
BRANCH   4  21
ATOM     21  O   UNL     1      -9.346   6.218 133.500  0.00  0.00    +0.000 OA
ATOM     22  H   UNL     1      -8.523   6.649 133.721  0.00  0.00    +0.000 HD
ENDBRANCH   4  21
BRANCH  16  23
ATOM     23  C   UNL     1     -11.742   6.598 129.215  0.00  0.00    +0.000 C 
BRANCH  23  24
ATOM     24  C   UNL     1     -12.243   8.042 128.840  0.00  0.00    +0.000 C 
ATOM     25  C   UNL     1     -12.701   9.071 129.600  0.00  0.00    +0.000 C 
ENDBRANCH  23  24
ENDBRANCH  16  23
BRANCH   1  26
ATOM     26  O   UNL     1      -4.856   3.399 133.804  0.00  0.00    +0.000 OA
BRANCH  26  27
ATOM     27  C   UNL     1      -4.517   4.677 133.201  0.00  0.00    +0.000 C 
BRANCH  27  28
ATOM     28  C   UNL     1      -4.130   4.434 131.752  0.00  0.00    +0.000 C 
BRANCH  28  29
ATOM     29  O   UNL     1      -2.732   4.645 131.571  0.00  0.00    +0.000 OA
BRANCH  29  30
ATOM     30  C   UNL     1      -2.445   6.039 131.591  0.00  0.00    +0.000 C 
BRANCH  30  31
ATOM     31  C   UNL     1      -2.061   6.484 130.195  0.00  0.00    +0.000 C 
BRANCH  31  32
ATOM     32  O   UNL     1      -3.243   6.625 129.415  0.00  0.00    +0.000 OA
BRANCH  32  33
ATOM     33  C   UNL     1      -2.944   6.454 128.034  0.00  0.00    +0.000 C 
BRANCH  33  34
ATOM     34  C   UNL     1      -3.792   5.326 127.485  0.00  0.00    +0.000 C 
BRANCH  34  35
ATOM     35  O   UNL     1      -4.966   5.200 128.280  0.00  0.00    +0.000 OA
BRANCH  35  36
ATOM     36  C   UNL     1      -5.489   3.881 128.179  0.00  0.00    +0.000 C 
BRANCH  36  37
ATOM     37  C   UNL     1      -4.371   2.888 128.421  0.00  0.00    +0.000 C 
BRANCH  37  38
ATOM     38  O   UNL     1      -4.830   1.582 128.084  0.00  0.00    +0.000 OA
BRANCH  38  39
ATOM     39  C   UNL     1      -4.959   1.455 126.672  0.00  0.00    +0.000 C 
BRANCH  39  40
ATOM     40  C   UNL     1      -5.365   0.032 126.341  0.00  0.00    +0.000 C 
BRANCH  40  41
ATOM     41  O   UNL     1      -5.728  -0.639 127.543  0.00  0.00    +0.000 OA
BRANCH  41  42
ATOM     42  C   UNL     1      -5.571  -2.044 127.390  0.00  0.00    +0.000 C 
BRANCH  42  43
ATOM     43  C   UNL     1      -4.771  -2.583 128.562  0.00  0.00    +0.000 C 
BRANCH  43  44
ATOM     44  O   UNL     1      -5.589  -2.574 129.728  0.00  0.00    +0.000 OA
BRANCH  44  45
ATOM     45  C   UNL     1      -5.952  -3.903 130.087  0.00  0.00    +0.000 C 
BRANCH  45  46
ATOM     46  C   UNL     1      -5.206  -4.298 131.349  0.00  0.00    +0.000 C 
BRANCH  46  48
ATOM     47  C   UNL     1      -5.738  -5.106 133.478  0.00  0.00    +0.000 C 
ATOM     48  O   UNL     1      -6.073  -4.161 132.472  0.00  0.00    +0.000 OA
ENDBRANCH  46  48
ENDBRANCH  45  46
ENDBRANCH  44  45
ENDBRANCH  43  44
ENDBRANCH  42  43
ENDBRANCH  41  42
ENDBRANCH  40  41
ENDBRANCH  39  40
ENDBRANCH  38  39
ENDBRANCH  37  38
ENDBRANCH  36  37
ENDBRANCH  35  36
ENDBRANCH  34  35
ENDBRANCH  33  34
ENDBRANCH  32  33
ENDBRANCH  31  32
ENDBRANCH  30  31
ENDBRANCH  29  30
ENDBRANCH  28  29
ENDBRANCH  27  28
ENDBRANCH  26  27
ENDBRANCH   1  26
TORSDOF 26
ENDMDL
MODEL 9
REMARK VINA RESULT:      -5.8      3.112      8.015
REMARK  Name = Naloxegol
REMARK  27 active torsions:
REMARK  status: ('A' for Active; 'I' for Inactive)
REMARK    1  A    between atoms: C_1  and  O_2
REMARK    2  A    between atoms: O_2  and  C_3
REMARK    3  A    between atoms: C_3  and  C_4
REMARK    4  A    between atoms: C_4  and  O_5
REMARK    5  A    between atoms: O_5  and  C_6
REMARK    6  A    between atoms: C_6  and  C_7
REMARK    7  A    between atoms: C_7  and  O_8
REMARK    8  A    between atoms: O_8  and  C_9
REMARK    9  A    between atoms: C_9  and  C_10
REMARK   10  A    between atoms: C_10  and  O_11
REMARK   11  A    between atoms: O_11  and  C_12
REMARK   12  A    between atoms: C_12  and  C_13
REMARK   13  A    between atoms: C_13  and  O_14
REMARK   14  A    between atoms: O_14  and  C_15
REMARK   15  A    between atoms: C_15  and  C_16
REMARK   16  A    between atoms: C_16  and  O_17
REMARK   17  A    between atoms: O_17  and  C_18
REMARK   18  A    between atoms: C_18  and  C_19
REMARK   19  A    between atoms: C_19  and  O_20
REMARK   20  A    between atoms: O_20  and  C_21
REMARK   21  A    between atoms: C_21  and  C_22
REMARK   22  A    between atoms: C_22  and  O_23
REMARK   23  A    between atoms: O_23  and  C_24
REMARK   24  A    between atoms: C_27  and  O_28
REMARK   25  A    between atoms: C_34  and  O_35
REMARK   26  A    between atoms: N_41  and  C_42
REMARK   27  A    between atoms: C_42  and  C_43
REMARK                            x       y       z     vdW  Elec       q    Type
REMARK                         _______ _______ _______ _____ _____    ______ ____
ROOT
ATOM      1  C   UNL     1      -6.394  -0.420 131.917  0.00  0.00    +0.000 C 
ATOM      2  C   UNL     1      -7.675  -0.533 132.659  0.00  0.00    +0.000 C 
ATOM      3  C   UNL     1      -9.002   0.136 131.856  0.00  0.00    +0.000 C 
ATOM      4  C   UNL     1      -9.098   1.797 131.005  0.00  0.00    +0.000 C 
ATOM      5  C   UNL     1      -9.787   3.440 130.161  0.00  0.00    +0.000 C 
ATOM      6  C   UNL     1      -8.477   4.133 129.725  0.00  0.00    +0.000 C 
ATOM      7  C   UNL     1      -7.117   3.825 129.505  0.00  0.00    +0.000 A 
ATOM      8  C   UNL     1      -6.457   4.343 128.417  0.00  0.00    +0.000 A 
ATOM      9  C   UNL     1      -5.316   3.789 128.028  0.00  0.00    +0.000 A 
ATOM     10  C   UNL     1      -4.887   2.592 128.642  0.00  0.00    +0.000 A 
ATOM     11  C   UNL     1      -5.652   2.115 129.734  0.00  0.00    +0.000 A 
ATOM     12  C   UNL     1      -6.672   2.786 130.308  0.00  0.00    +0.000 A 
ATOM     13  C   UNL     1      -7.653   2.318 131.436  0.00  0.00    +0.000 C 
ATOM     14  C   UNL     1      -8.659   3.639 132.448  0.00  0.00    +0.000 C 
ATOM     15  C   UNL     1      -9.697   5.033 131.924  0.00  0.00    +0.000 C 
ATOM     16  N   UNL     1     -10.520   4.724 130.726  0.00  0.00    +0.000 NA
ATOM     17  C   UNL     1      -6.764   0.739 131.014  0.00  0.00    +0.000 C 
ATOM     18  O   UNL     1      -5.529   0.873 130.247  0.00  0.00    +0.000 OA
ENDROOT
BRANCH  10  19
ATOM     19  O   UNL     1      -3.773   1.997 128.152  0.00  0.00    +0.000 OA
ATOM     20  H   UNL     1      -3.133   1.933 128.888  0.00  0.00    +0.000 HD
ENDBRANCH  10  19
BRANCH   4  21
ATOM     21  O   UNL     1     -10.133   1.768 132.104  0.00  0.00    +0.000 OA
ATOM     22  H   UNL     1     -10.554   0.921 132.230  0.00  0.00    +0.000 HD
ENDBRANCH   4  21
BRANCH  16  23
ATOM     23  C   UNL     1     -10.802   6.117 129.893  0.00  0.00    +0.000 C 
BRANCH  23  24
ATOM     24  C   UNL     1     -12.225   6.737 130.147  0.00  0.00    +0.000 C 
ATOM     25  C   UNL     1     -12.768   7.355 131.229  0.00  0.00    +0.000 C 
ENDBRANCH  23  24
ENDBRANCH  16  23
BRANCH   1  26
ATOM     26  O   UNL     1      -5.232  -0.180 132.728  0.00  0.00    +0.000 OA
BRANCH  26  27
ATOM     27  C   UNL     1      -4.481  -1.379 133.059  0.00  0.00    +0.000 C 
BRANCH  27  28
ATOM     28  C   UNL     1      -3.416  -1.583 131.994  0.00  0.00    +0.000 C 
BRANCH  28  29
ATOM     29  O   UNL     1      -3.241  -2.973 131.730  0.00  0.00    +0.000 OA
BRANCH  29  30
ATOM     30  C   UNL     1      -4.139  -3.392 130.708  0.00  0.00    +0.000 C 
BRANCH  30  31
ATOM     31  C   UNL     1      -5.018  -4.501 131.246  0.00  0.00    +0.000 C 
BRANCH  31  32
ATOM     32  O   UNL     1      -6.379  -4.181 130.980  0.00  0.00    +0.000 OA
BRANCH  32  33
ATOM     33  C   UNL     1      -6.478  -3.406 129.791  0.00  0.00    +0.000 C 
BRANCH  33  34
ATOM     34  C   UNL     1      -7.918  -2.976 129.606  0.00  0.00    +0.000 C 
BRANCH  34  35
ATOM     35  O   UNL     1      -8.437  -3.589 128.431  0.00  0.00    +0.000 OA
BRANCH  35  36
ATOM     36  C   UNL     1      -8.415  -2.670 127.345  0.00  0.00    +0.000 C 
BRANCH  36  37
ATOM     37  C   UNL     1      -9.214  -3.247 126.195  0.00  0.00    +0.000 C 
BRANCH  37  38
ATOM     38  O   UNL     1      -9.582  -2.194 125.310  0.00  0.00    +0.000 OA
BRANCH  38  39
ATOM     39  C   UNL     1      -8.571  -2.001 124.327  0.00  0.00    +0.000 C 
BRANCH  39  40
ATOM     40  C   UNL     1      -9.125  -1.130 123.215  0.00  0.00    +0.000 C 
BRANCH  40  41
ATOM     41  O   UNL     1      -9.741   0.018 123.789  0.00  0.00    +0.000 OA
BRANCH  41  42
ATOM     42  C   UNL     1      -9.502   1.163 122.979  0.00  0.00    +0.000 C 
BRANCH  42  43
ATOM     43  C   UNL     1      -9.217   2.352 123.876  0.00  0.00    +0.000 C 
BRANCH  43  44
ATOM     44  O   UNL     1      -9.383   1.962 125.235  0.00  0.00    +0.000 OA
BRANCH  44  45
ATOM     45  C   UNL     1      -8.202   2.244 125.979  0.00  0.00    +0.000 C 
BRANCH  45  46
ATOM     46  C   UNL     1      -8.005   1.165 127.028  0.00  0.00    +0.000 C 
BRANCH  46  48
ATOM     47  C   UNL     1      -6.147   0.901 125.632  0.00  0.00    +0.000 C 
ATOM     48  O   UNL     1      -6.974   0.277 126.603  0.00  0.00    +0.000 OA
ENDBRANCH  46  48
ENDBRANCH  45  46
ENDBRANCH  44  45
ENDBRANCH  43  44
ENDBRANCH  42  43
ENDBRANCH  41  42
ENDBRANCH  40  41
ENDBRANCH  39  40
ENDBRANCH  38  39
ENDBRANCH  37  38
ENDBRANCH  36  37
ENDBRANCH  35  36
ENDBRANCH  34  35
ENDBRANCH  33  34
ENDBRANCH  32  33
ENDBRANCH  31  32
ENDBRANCH  30  31
ENDBRANCH  29  30
ENDBRANCH  28  29
ENDBRANCH  27  28
ENDBRANCH  26  27
ENDBRANCH   1  26
TORSDOF 26
ENDMDL
