MODEL 1
REMARK VINA RESULT:      -7.9      0.000      0.000
REMARK  Name = Naltrexone
REMARK  4 active torsions:
REMARK  status: ('A' for Active; 'I' for Inactive)
REMARK    1  A    between atoms: C_5  and  O_6
REMARK    2  A    between atoms: N_14  and  C_15
REMARK    3  A    between atoms: C_15  and  C_16
REMARK    4  A    between atoms: C_22  and  O_23
REMARK                            x       y       z     vdW  Elec       q    Type
REMARK                         _______ _______ _______ _____ _____    ______ ____
ROOT
ATOM      1  C   UNL     1      -5.563   3.977 124.531  0.00  0.00    +0.000 C 
ATOM      2  O   UNL     1      -4.647   4.667 123.653  0.00  0.00    +0.000 OA
ATOM      3  C   UNL     1      -5.262   4.422 122.492  0.00  0.00    +0.000 A 
ATOM      4  C   UNL     1      -5.021   5.116 121.302  0.00  0.00    +0.000 A 
ATOM      5  C   UNL     1      -5.852   4.735 120.267  0.00  0.00    +0.000 A 
ATOM      6  C   UNL     1      -6.942   3.837 120.511  0.00  0.00    +0.000 A 
ATOM      7  C   UNL     1      -7.194   3.254 121.757  0.00  0.00    +0.000 A 
ATOM      8  C   UNL     1      -6.224   3.362 122.635  0.00  0.00    +0.000 A 
ATOM      9  C   UNL     1      -6.448   2.462 123.864  0.00  0.00    +0.000 C 
ATOM     10  C   UNL     1      -7.493   0.533 123.851  0.00  0.00    +0.000 C 
ATOM     11  C   UNL     1      -9.323   0.619 124.270  0.00  0.00    +0.000 C 
ATOM     12  N   UNL     1      -9.259   1.777 125.104  0.00  0.00    +0.000 NA
ATOM     13  C   UNL     1      -8.120   2.280 124.440  0.00  0.00    +0.000 C 
ATOM     14  C   UNL     1      -8.267   2.436 122.473  0.00  0.00    +0.000 C 
ATOM     15  C   UNL     1      -7.442   3.368 124.950  0.00  0.00    +0.000 C 
ATOM     16  C   UNL     1      -6.959   3.338 126.442  0.00  0.00    +0.000 C 
ATOM     17  C   UNL     1      -5.502   3.410 126.843  0.00  0.00    +0.000 C 
ATOM     18  C   UNL     1      -4.713   3.806 125.708  0.00  0.00    +0.000 C 
ATOM     19  O   UNL     1      -3.492   3.837 125.735  0.00  0.00    +0.000 OA
ENDROOT
BRANCH   4  20
ATOM     20  O   UNL     1      -4.074   6.052 120.972  0.00  0.00    +0.000 OA
ATOM     21  H   UNL     1      -4.350   6.745 120.348  0.00  0.00    +0.000 HD
ENDBRANCH   4  20
BRANCH  15  22
ATOM     22  O   UNL     1      -8.263   4.478 124.670  0.00  0.00    +0.000 OA
ATOM     23  H   UNL     1      -8.216   4.678 123.723  0.00  0.00    +0.000 HD
ENDBRANCH  15  22
BRANCH  12  24
ATOM     24  C   UNL     1      -8.934   1.408 126.556  0.00  0.00    +0.000 C 
BRANCH  24  25
ATOM     25  C   UNL     1      -8.262   0.041 126.874  0.00  0.00    +0.000 C 
ATOM     26  C   UNL     1      -6.773  -0.358 127.205  0.00  0.00    +0.000 C 
ATOM     27  C   UNL     1      -7.862  -0.538 128.204  0.00  0.00    +0.000 C 
ENDBRANCH  24  25
ENDBRANCH  12  24
TORSDOF 4
ENDMDL
MODEL 2
REMARK VINA RESULT:      -7.8      7.412      8.201
REMARK  Name = Naltrexone
REMARK  4 active torsions:
REMARK  status: ('A' for Active; 'I' for Inactive)
REMARK    1  A    between atoms: C_5  and  O_6
REMARK    2  A    between atoms: N_14  and  C_15
REMARK    3  A    between atoms: C_15  and  C_16
REMARK    4  A    between atoms: C_22  and  O_23
REMARK                            x       y       z     vdW  Elec       q    Type
REMARK                         _______ _______ _______ _____ _____    ______ ____
ROOT
ATOM      1  C   UNL     1      -8.315   6.750 130.992  0.00  0.00    +0.000 C 
ATOM      2  O   UNL     1      -8.667   7.765 130.026  0.00  0.00    +0.000 OA
ATOM      3  C   UNL     1      -9.836   7.257 129.621  0.00  0.00    +0.000 A 
ATOM      4  C   UNL     1     -10.813   7.972 128.921  0.00  0.00    +0.000 A 
ATOM      5  C   UNL     1     -11.968   7.248 128.701  0.00  0.00    +0.000 A 
ATOM      6  C   UNL     1     -12.140   5.962 129.309  0.00  0.00    +0.000 A 
ATOM      7  C   UNL     1     -11.158   5.343 130.090  0.00  0.00    +0.000 A 
ATOM      8  C   UNL     1      -9.964   5.882 130.022  0.00  0.00    +0.000 A 
ATOM      9  C   UNL     1      -8.886   4.991 130.667  0.00  0.00    +0.000 C 
ATOM     10  C   UNL     1      -8.924   2.799 130.735  0.00  0.00    +0.000 C 
ATOM     11  C   UNL     1      -9.676   2.066 132.294  0.00  0.00    +0.000 C 
ATOM     12  N   UNL     1      -9.342   3.142 133.173  0.00  0.00    +0.000 NA
ATOM     13  C   UNL     1      -9.347   4.091 132.129  0.00  0.00    +0.000 C 
ATOM     14  C   UNL     1     -10.983   4.141 131.016  0.00  0.00    +0.000 C 
ATOM     15  C   UNL     1      -8.889   5.374 132.353  0.00  0.00    +0.000 C 
ATOM     16  C   UNL     1      -7.462   5.581 132.970  0.00  0.00    +0.000 C 
ATOM     17  C   UNL     1      -6.344   6.299 132.248  0.00  0.00    +0.000 C 
ATOM     18  C   UNL     1      -6.878   6.990 131.107  0.00  0.00    +0.000 C 
ATOM     19  O   UNL     1      -6.168   7.563 130.294  0.00  0.00    +0.000 OA
ENDROOT
BRANCH   4  20
ATOM     20  O   UNL     1     -10.800   9.228 128.369  0.00  0.00    +0.000 OA
ATOM     21  H   UNL     1      -9.973   9.732 128.464  0.00  0.00    +0.000 HD
ENDBRANCH   4  20
BRANCH  15  22
ATOM     22  O   UNL     1      -9.901   5.998 133.109  0.00  0.00    +0.000 OA
ATOM     23  H   UNL     1     -10.390   5.324 133.605  0.00  0.00    +0.000 HD
ENDBRANCH  15  22
BRANCH  12  24
ATOM     24  C   UNL     1      -7.936   2.974 133.760  0.00  0.00    +0.000 C 
BRANCH  24  25
ATOM     25  C   UNL     1      -7.125   1.680 133.466  0.00  0.00    +0.000 C 
ATOM     26  C   UNL     1      -5.851   1.403 132.578  0.00  0.00    +0.000 C 
ATOM     27  C   UNL     1      -5.820   1.218 134.055  0.00  0.00    +0.000 C 
ENDBRANCH  24  25
ENDBRANCH  12  24
TORSDOF 4
ENDMDL
MODEL 3
REMARK VINA RESULT:      -7.7      3.425      7.023
REMARK  Name = Naltrexone
REMARK  4 active torsions:
REMARK  status: ('A' for Active; 'I' for Inactive)
REMARK    1  A    between atoms: C_5  and  O_6
REMARK    2  A    between atoms: N_14  and  C_15
REMARK    3  A    between atoms: C_15  and  C_16
REMARK    4  A    between atoms: C_22  and  O_23
REMARK                            x       y       z     vdW  Elec       q    Type
REMARK                         _______ _______ _______ _____ _____    ______ ____
ROOT
ATOM      1  C   UNL     1      -8.091  -1.663 125.279  0.00  0.00    +0.000 C 
ATOM      2  O   UNL     1      -7.768  -2.689 126.242  0.00  0.00    +0.000 OA
ATOM      3  C   UNL     1      -7.678  -1.918 127.331  0.00  0.00    +0.000 A 
ATOM      4  C   UNL     1      -7.707  -2.392 128.647  0.00  0.00    +0.000 A 
ATOM      5  C   UNL     1      -7.691  -1.387 129.592  0.00  0.00    +0.000 A 
ATOM      6  C   UNL     1      -7.808  -0.016 129.190  0.00  0.00    +0.000 A 
ATOM      7  C   UNL     1      -7.880   0.389 127.853  0.00  0.00    +0.000 A 
ATOM      8  C   UNL     1      -7.569  -0.530 126.969  0.00  0.00    +0.000 A 
ATOM      9  C   UNL     1      -7.391   0.057 125.557  0.00  0.00    +0.000 C 
ATOM     10  C   UNL     1      -6.668   2.078 125.103  0.00  0.00    +0.000 C 
ATOM     11  C   UNL     1      -8.014   3.369 124.870  0.00  0.00    +0.000 C 
ATOM     12  N   UNL     1      -9.028   2.482 124.396  0.00  0.00    +0.000 NA
ATOM     13  C   UNL     1      -8.484   1.376 125.084  0.00  0.00    +0.000 C 
ATOM     14  C   UNL     1      -8.169   1.637 127.021  0.00  0.00    +0.000 C 
ATOM     15  C   UNL     1      -8.969   0.105 124.852  0.00  0.00    +0.000 C 
ATOM     16  C   UNL     1      -9.034  -0.432 123.380  0.00  0.00    +0.000 C 
ATOM     17  C   UNL     1      -8.259  -1.641 122.904  0.00  0.00    +0.000 C 
ATOM     18  C   UNL     1      -7.737  -2.351 124.040  0.00  0.00    +0.000 C 
ATOM     19  O   UNL     1      -6.984  -3.307 123.928  0.00  0.00    +0.000 OA
ENDROOT
BRANCH   4  20
ATOM     20  O   UNL     1      -7.687  -3.667 129.153  0.00  0.00    +0.000 OA
ATOM     21  H   UNL     1      -7.459  -4.377 128.527  0.00  0.00    +0.000 HD
ENDBRANCH   4  20
BRANCH  15  22
ATOM     22  O   UNL     1     -10.220   0.065 125.498  0.00  0.00    +0.000 OA
ATOM     23  H   UNL     1     -10.381   0.915 125.934  0.00  0.00    +0.000 HD
ENDBRANCH  15  22
BRANCH  12  24
ATOM     24  C   UNL     1      -8.940   2.285 122.879  0.00  0.00    +0.000 C 
BRANCH  24  25
ATOM     25  C   UNL     1      -8.495   3.467 121.970  0.00  0.00    +0.000 C 
ATOM     26  C   UNL     1      -7.378   3.594 120.864  0.00  0.00    +0.000 C 
ATOM     27  C   UNL     1      -8.821   3.735 120.526  0.00  0.00    +0.000 C 
ENDBRANCH  24  25
ENDBRANCH  12  24
TORSDOF 4
ENDMDL
MODEL 4
REMARK VINA RESULT:      -7.5      3.116      6.480
REMARK  Name = Naltrexone
REMARK  4 active torsions:
REMARK  status: ('A' for Active; 'I' for Inactive)
REMARK    1  A    between atoms: C_5  and  O_6
REMARK    2  A    between atoms: N_14  and  C_15
REMARK    3  A    between atoms: C_15  and  C_16
REMARK    4  A    between atoms: C_22  and  O_23
REMARK                            x       y       z     vdW  Elec       q    Type
REMARK                         _______ _______ _______ _____ _____    ______ ____
ROOT
ATOM      1  C   UNL     1      -6.737   0.127 127.254  0.00  0.00    +0.000 C 
ATOM      2  O   UNL     1      -6.882  -0.836 128.320  0.00  0.00    +0.000 OA
ATOM      3  C   UNL     1      -7.761  -1.654 127.730  0.00  0.00    +0.000 A 
ATOM      4  C   UNL     1      -8.039  -2.959 128.149  0.00  0.00    +0.000 A 
ATOM      5  C   UNL     1      -8.915  -3.626 127.317  0.00  0.00    +0.000 A 
ATOM      6  C   UNL     1      -9.322  -3.037 126.075  0.00  0.00    +0.000 A 
ATOM      7  C   UNL     1      -8.924  -1.761 125.663  0.00  0.00    +0.000 A 
ATOM      8  C   UNL     1      -8.368  -1.018 126.592  0.00  0.00    +0.000 A 
ATOM      9  C   UNL     1      -8.222   0.450 126.152  0.00  0.00    +0.000 C 
ATOM     10  C   UNL     1      -9.575   1.508 124.787  0.00  0.00    +0.000 C 
ATOM     11  C   UNL     1      -9.054   1.492 122.982  0.00  0.00    +0.000 C 
ATOM     12  N   UNL     1      -7.646   1.398 123.205  0.00  0.00    +0.000 NA
ATOM     13  C   UNL     1      -7.815   0.749 124.447  0.00  0.00    +0.000 C 
ATOM     14  C   UNL     1      -8.965  -0.863 124.429  0.00  0.00    +0.000 C 
ATOM     15  C   UNL     1      -6.732   0.546 125.279  0.00  0.00    +0.000 C 
ATOM     16  C   UNL     1      -5.832   1.768 125.674  0.00  0.00    +0.000 C 
ATOM     17  C   UNL     1      -5.663   2.246 127.099  0.00  0.00    +0.000 C 
ATOM     18  C   UNL     1      -6.184   1.256 128.001  0.00  0.00    +0.000 C 
ATOM     19  O   UNL     1      -6.266   1.442 129.205  0.00  0.00    +0.000 OA
ENDROOT
BRANCH   4  20
ATOM     20  O   UNL     1      -7.645  -3.659 129.261  0.00  0.00    +0.000 OA
ATOM     21  H   UNL     1      -7.883  -4.602 129.284  0.00  0.00    +0.000 HD
ENDBRANCH   4  20
BRANCH  15  22
ATOM     22  O   UNL     1      -5.998  -0.496 124.680  0.00  0.00    +0.000 OA
ATOM     23  H   UNL     1      -5.140  -0.154 124.388  0.00  0.00    +0.000 HD
ENDBRANCH  15  22
BRANCH  12  24
ATOM     24  C   UNL     1      -7.010   2.780 123.388  0.00  0.00    +0.000 C 
BRANCH  24  25
ATOM     25  C   UNL     1      -6.527   3.578 122.143  0.00  0.00    +0.000 C 
ATOM     26  C   UNL     1      -5.175   4.326 121.819  0.00  0.00    +0.000 C 
ATOM     27  C   UNL     1      -5.615   3.144 121.027  0.00  0.00    +0.000 C 
ENDBRANCH  24  25
ENDBRANCH  12  24
TORSDOF 4
ENDMDL
MODEL 5
REMARK VINA RESULT:      -7.3      4.812      7.042
REMARK  Name = Naltrexone
REMARK  4 active torsions:
REMARK  status: ('A' for Active; 'I' for Inactive)
REMARK    1  A    between atoms: C_5  and  O_6
REMARK    2  A    between atoms: N_14  and  C_15
REMARK    3  A    between atoms: C_15  and  C_16
REMARK    4  A    between atoms: C_22  and  O_23
REMARK                            x       y       z     vdW  Elec       q    Type
REMARK                         _______ _______ _______ _____ _____    ______ ____
ROOT
ATOM      1  C   UNL     1      -8.222  -2.939 127.122  0.00  0.00    +0.000 C 
ATOM      2  O   UNL     1      -9.137  -3.457 126.132  0.00  0.00    +0.000 OA
ATOM      3  C   UNL     1      -9.003  -2.494 125.214  0.00  0.00    +0.000 A 
ATOM      4  C   UNL     1      -9.400  -2.607 123.878  0.00  0.00    +0.000 A 
ATOM      5  C   UNL     1      -9.069  -1.507 123.113  0.00  0.00    +0.000 A 
ATOM      6  C   UNL     1      -8.248  -0.468 123.661  0.00  0.00    +0.000 A 
ATOM      7  C   UNL     1      -7.794  -0.464 124.984  0.00  0.00    +0.000 A 
ATOM      8  C   UNL     1      -8.375  -1.330 125.781  0.00  0.00    +0.000 A 
ATOM      9  C   UNL     1      -8.039  -1.076 127.262  0.00  0.00    +0.000 C 
ATOM     10  C   UNL     1      -7.622   0.886 128.151  0.00  0.00    +0.000 C 
ATOM     11  C   UNL     1      -5.803   1.351 128.230  0.00  0.00    +0.000 C 
ATOM     12  N   UNL     1      -5.285   0.023 128.319  0.00  0.00    +0.000 NA
ATOM     13  C   UNL     1      -6.389  -0.530 127.635  0.00  0.00    +0.000 C 
ATOM     14  C   UNL     1      -6.821   0.292 125.887  0.00  0.00    +0.000 C 
ATOM     15  C   UNL     1      -6.549  -1.899 127.566  0.00  0.00    +0.000 C 
ATOM     16  C   UNL     1      -6.535  -2.739 128.890  0.00  0.00    +0.000 C 
ATOM     17  C   UNL     1      -7.718  -3.554 129.366  0.00  0.00    +0.000 C 
ATOM     18  C   UNL     1      -8.678  -3.670 128.303  0.00  0.00    +0.000 C 
ATOM     19  O   UNL     1      -9.772  -4.190 128.459  0.00  0.00    +0.000 OA
ENDROOT
BRANCH   4  20
ATOM     20  O   UNL     1     -10.107  -3.582 123.220  0.00  0.00    +0.000 OA
ATOM     21  H   UNL     1      -9.602  -4.362 122.932  0.00  0.00    +0.000 HD
ENDBRANCH   4  20
BRANCH  15  22
ATOM     22  O   UNL     1      -5.582  -2.335 126.638  0.00  0.00    +0.000 OA
ATOM     23  H   UNL     1      -6.002  -2.455 125.773  0.00  0.00    +0.000 HD
ENDBRANCH  15  22
BRANCH  12  24
ATOM     24  C   UNL     1      -5.233  -0.466 129.770  0.00  0.00    +0.000 C 
BRANCH  24  25
ATOM     25  C   UNL     1      -3.882  -0.944 130.376  0.00  0.00    +0.000 C 
ATOM     26  C   UNL     1      -3.530  -2.051 131.444  0.00  0.00    +0.000 C 
ATOM     27  C   UNL     1      -3.060  -2.157 130.035  0.00  0.00    +0.000 C 
ENDBRANCH  24  25
ENDBRANCH  12  24
TORSDOF 4
ENDMDL
MODEL 6
REMARK VINA RESULT:      -7.1      3.130      6.390
REMARK  Name = Naltrexone
REMARK  4 active torsions:
REMARK  status: ('A' for Active; 'I' for Inactive)
REMARK    1  A    between atoms: C_5  and  O_6
REMARK    2  A    between atoms: N_14  and  C_15
REMARK    3  A    between atoms: C_15  and  C_16
REMARK    4  A    between atoms: C_22  and  O_23
REMARK                            x       y       z     vdW  Elec       q    Type
REMARK                         _______ _______ _______ _____ _____    ______ ____
ROOT
ATOM      1  C   UNL     1      -7.725   2.652 127.019  0.00  0.00    +0.000 C 
ATOM      2  O   UNL     1      -8.495   3.598 127.793  0.00  0.00    +0.000 OA
ATOM      3  C   UNL     1      -8.677   2.855 128.890  0.00  0.00    +0.000 A 
ATOM      4  C   UNL     1      -9.079   3.356 130.132  0.00  0.00    +0.000 A 
ATOM      5  C   UNL     1      -9.105   2.400 131.127  0.00  0.00    +0.000 A 
ATOM      6  C   UNL     1      -8.591   1.085 130.877  0.00  0.00    +0.000 A 
ATOM      7  C   UNL     1      -8.103   0.674 129.632  0.00  0.00    +0.000 A 
ATOM      8  C   UNL     1      -8.383   1.472 128.627  0.00  0.00    +0.000 A 
ATOM      9  C   UNL     1      -8.073   0.824 127.266  0.00  0.00    +0.000 C 
ATOM     10  C   UNL     1      -8.194  -1.322 126.823  0.00  0.00    +0.000 C 
ATOM     11  C   UNL     1      -6.580  -2.265 127.018  0.00  0.00    +0.000 C 
ATOM     12  N   UNL     1      -5.704  -1.177 126.722  0.00  0.00    +0.000 NA
ATOM     13  C   UNL     1      -6.632  -0.213 127.171  0.00  0.00    +0.000 C 
ATOM     14  C   UNL     1      -7.349  -0.491 128.995  0.00  0.00    +0.000 C 
ATOM     15  C   UNL     1      -6.400   1.130 126.955  0.00  0.00    +0.000 C 
ATOM     16  C   UNL     1      -6.095   1.630 125.500  0.00  0.00    +0.000 C 
ATOM     17  C   UNL     1      -6.978   2.610 124.759  0.00  0.00    +0.000 C 
ATOM     18  C   UNL     1      -7.908   3.206 125.679  0.00  0.00    +0.000 C 
ATOM     19  O   UNL     1      -8.802   3.955 125.316  0.00  0.00    +0.000 OA
ENDROOT
BRANCH   4  20
ATOM     20  O   UNL     1      -9.507   4.603 130.513  0.00  0.00    +0.000 OA
ATOM     21  H   UNL     1      -9.376   5.320 129.869  0.00  0.00    +0.000 HD
ENDBRANCH   4  20
BRANCH  15  22
ATOM     22  O   UNL     1      -5.388   1.480 127.871  0.00  0.00    +0.000 OA
ATOM     23  H   UNL     1      -5.675   2.249 128.385  0.00  0.00    +0.000 HD
ENDBRANCH  15  22
BRANCH  12  24
ATOM     24  C   UNL     1      -5.457  -1.045 125.215  0.00  0.00    +0.000 C 
BRANCH  24  25
ATOM     25  C   UNL     1      -5.762  -2.245 124.274  0.00  0.00    +0.000 C 
ATOM     26  C   UNL     1      -5.732  -2.399 122.704  0.00  0.00    +0.000 C 
ATOM     27  C   UNL     1      -4.807  -3.176 123.576  0.00  0.00    +0.000 C 
ENDBRANCH  24  25
ENDBRANCH  12  24
TORSDOF 4
ENDMDL
MODEL 7
REMARK VINA RESULT:      -7.0      5.982      8.875
REMARK  Name = Naltrexone
REMARK  4 active torsions:
REMARK  status: ('A' for Active; 'I' for Inactive)
REMARK    1  A    between atoms: C_5  and  O_6
REMARK    2  A    between atoms: N_14  and  C_15
REMARK    3  A    between atoms: C_15  and  C_16
REMARK    4  A    between atoms: C_22  and  O_23
REMARK                            x       y       z     vdW  Elec       q    Type
REMARK                         _______ _______ _______ _____ _____    ______ ____
ROOT
ATOM      1  C   UNL     1      -8.332   4.918 129.478  0.00  0.00    +0.000 C 
ATOM      2  O   UNL     1      -9.630   5.005 128.851  0.00  0.00    +0.000 OA
ATOM      3  C   UNL     1     -10.329   5.447 129.903  0.00  0.00    +0.000 A 
ATOM      4  C   UNL     1     -11.596   6.033 129.826  0.00  0.00    +0.000 A 
ATOM      5  C   UNL     1     -12.064   6.488 131.042  0.00  0.00    +0.000 A 
ATOM      6  C   UNL     1     -11.209   6.482 132.192  0.00  0.00    +0.000 A 
ATOM      7  C   UNL     1      -9.906   5.973 132.178  0.00  0.00    +0.000 A 
ATOM      8  C   UNL     1      -9.593   5.257 131.123  0.00  0.00    +0.000 A 
ATOM      9  C   UNL     1      -8.265   4.500 131.307  0.00  0.00    +0.000 C 
ATOM     10  C   UNL     1      -7.483   3.752 133.216  0.00  0.00    +0.000 C 
ATOM     11  C   UNL     1      -6.303   4.917 134.101  0.00  0.00    +0.000 C 
ATOM     12  N   UNL     1      -5.793   5.570 132.937  0.00  0.00    +0.000 NA
ATOM     13  C   UNL     1      -6.974   5.333 132.200  0.00  0.00    +0.000 C 
ATOM     14  C   UNL     1      -8.658   5.924 133.057  0.00  0.00    +0.000 C 
ATOM     15  C   UNL     1      -7.014   5.601 130.847  0.00  0.00    +0.000 C 
ATOM     16  C   UNL     1      -5.920   4.979 129.911  0.00  0.00    +0.000 C 
ATOM     17  C   UNL     1      -6.240   4.014 128.791  0.00  0.00    +0.000 C 
ATOM     18  C   UNL     1      -7.656   4.016 128.548  0.00  0.00    +0.000 C 
ATOM     19  O   UNL     1      -8.190   3.246 127.764  0.00  0.00    +0.000 OA
ENDROOT
BRANCH   4  20
ATOM     20  O   UNL     1     -12.469   6.176 128.777  0.00  0.00    +0.000 OA
ATOM     21  H   UNL     1     -12.861   5.357 128.427  0.00  0.00    +0.000 HD
ENDBRANCH   4  20
BRANCH  15  22
ATOM     22  O   UNL     1      -7.073   7.005 130.751  0.00  0.00    +0.000 OA
ATOM     23  H   UNL     1      -7.134   7.383 131.642  0.00  0.00    +0.000 HD
ENDBRANCH  15  22
BRANCH  12  24
ATOM     24  C   UNL     1      -4.607   4.807 132.337  0.00  0.00    +0.000 C 
BRANCH  24  25
ATOM     25  C   UNL     1      -3.178   5.420 132.411  0.00  0.00    +0.000 C 
ATOM     26  C   UNL     1      -1.742   4.767 132.417  0.00  0.00    +0.000 C 
ATOM     27  C   UNL     1      -2.184   5.655 131.306  0.00  0.00    +0.000 C 
ENDBRANCH  24  25
ENDBRANCH  12  24
TORSDOF 4
ENDMDL
MODEL 8
REMARK VINA RESULT:      -7.0      3.584      5.830
REMARK  Name = Naltrexone
REMARK  4 active torsions:
REMARK  status: ('A' for Active; 'I' for Inactive)
REMARK    1  A    between atoms: C_5  and  O_6
REMARK    2  A    between atoms: N_14  and  C_15
REMARK    3  A    between atoms: C_15  and  C_16
REMARK    4  A    between atoms: C_22  and  O_23
REMARK                            x       y       z     vdW  Elec       q    Type
REMARK                         _______ _______ _______ _____ _____    ______ ____
ROOT
ATOM      1  C   UNL     1      -8.562  -1.294 125.585  0.00  0.00    +0.000 C 
ATOM      2  O   UNL     1      -9.467  -1.062 124.483  0.00  0.00    +0.000 OA
ATOM      3  C   UNL     1      -9.272   0.254 124.341  0.00  0.00    +0.000 A 
ATOM      4  C   UNL     1      -9.634   0.994 123.210  0.00  0.00    +0.000 A 
ATOM      5  C   UNL     1      -9.241   2.315 123.272  0.00  0.00    +0.000 A 
ATOM      6  C   UNL     1      -8.399   2.769 124.340  0.00  0.00    +0.000 A 
ATOM      7  C   UNL     1      -7.983   1.947 125.393  0.00  0.00    +0.000 A 
ATOM      8  C   UNL     1      -8.619   0.803 125.498  0.00  0.00    +0.000 A 
ATOM      9  C   UNL     1      -8.316   0.090 126.829  0.00  0.00    +0.000 C 
ATOM     10  C   UNL     1      -7.854   1.087 128.728  0.00  0.00    +0.000 C 
ATOM     11  C   UNL     1      -6.022   1.324 129.075  0.00  0.00    +0.000 C 
ATOM     12  N   UNL     1      -5.555   0.192 128.338  0.00  0.00    +0.000 NA
ATOM     13  C   UNL     1      -6.659   0.220 127.459  0.00  0.00    +0.000 C 
ATOM     14  C   UNL     1      -7.009   1.953 126.569  0.00  0.00    +0.000 C 
ATOM     15  C   UNL     1      -6.866  -0.816 126.571  0.00  0.00    +0.000 C 
ATOM     16  C   UNL     1      -6.921  -2.288 127.111  0.00  0.00    +0.000 C 
ATOM     17  C   UNL     1      -8.146  -3.168 126.993  0.00  0.00    +0.000 C 
ATOM     18  C   UNL     1      -9.078  -2.570 126.078  0.00  0.00    +0.000 C 
ATOM     19  O   UNL     1     -10.195  -3.026 125.885  0.00  0.00    +0.000 OA
ENDROOT
BRANCH   4  20
ATOM     20  O   UNL     1     -10.357   0.653 122.095  0.00  0.00    +0.000 OA
ATOM     21  H   UNL     1     -11.181   1.148 121.946  0.00  0.00    +0.000 HD
ENDBRANCH   4  20
BRANCH  15  22
ATOM     22  O   UNL     1      -5.890  -0.644 125.570  0.00  0.00    +0.000 OA
ATOM     23  H   UNL     1      -6.113   0.134 125.037  0.00  0.00    +0.000 HD
ENDBRANCH  15  22
BRANCH  12  24
ATOM     24  C   UNL     1      -5.563  -1.079 129.193  0.00  0.00    +0.000 C 
BRANCH  24  25
ATOM     25  C   UNL     1      -4.243  -1.876 129.406  0.00  0.00    +0.000 C 
ATOM     26  C   UNL     1      -3.753  -2.830 130.563  0.00  0.00    +0.000 C 
ATOM     27  C   UNL     1      -3.964  -3.337 129.179  0.00  0.00    +0.000 C 
ENDBRANCH  24  25
ENDBRANCH  12  24
TORSDOF 4
ENDMDL
MODEL 9
REMARK VINA RESULT:      -6.9      6.318      8.730
REMARK  Name = Naltrexone
REMARK  4 active torsions:
REMARK  status: ('A' for Active; 'I' for Inactive)
REMARK    1  A    between atoms: C_5  and  O_6
REMARK    2  A    between atoms: N_14  and  C_15
REMARK    3  A    between atoms: C_15  and  C_16
REMARK    4  A    between atoms: C_22  and  O_23
REMARK                            x       y       z     vdW  Elec       q    Type
REMARK                         _______ _______ _______ _____ _____    ______ ____
ROOT
ATOM      1  C   UNL     1      -8.804   5.147 129.578  0.00  0.00    +0.000 C 
ATOM      2  O   UNL     1      -9.842   5.492 128.636  0.00  0.00    +0.000 OA
ATOM      3  C   UNL     1     -10.747   5.963 129.501  0.00  0.00    +0.000 A 
ATOM      4  C   UNL     1     -11.846   6.754 129.151  0.00  0.00    +0.000 A 
ATOM      5  C   UNL     1     -12.577   7.187 130.239  0.00  0.00    +0.000 A 
ATOM      6  C   UNL     1     -12.097   6.955 131.570  0.00  0.00    +0.000 A 
ATOM      7  C   UNL     1     -10.927   6.242 131.852  0.00  0.00    +0.000 A 
ATOM      8  C   UNL     1     -10.425   5.565 130.845  0.00  0.00    +0.000 A 
ATOM      9  C   UNL     1      -9.323   4.588 131.294  0.00  0.00    +0.000 C 
ATOM     10  C   UNL     1      -9.232   3.582 133.241  0.00  0.00    +0.000 C 
ATOM     11  C   UNL     1      -8.209   4.468 134.545  0.00  0.00    +0.000 C 
ATOM     12  N   UNL     1      -7.302   5.113 133.650  0.00  0.00    +0.000 NA
ATOM     13  C   UNL     1      -8.241   5.130 132.596  0.00  0.00    +0.000 C 
ATOM     14  C   UNL     1     -10.003   5.923 133.025  0.00  0.00    +0.000 C 
ATOM     15  C   UNL     1      -7.854   5.500 131.325  0.00  0.00    +0.000 C 
ATOM     16  C   UNL     1      -6.633   4.778 130.656  0.00  0.00    +0.000 C 
ATOM     17  C   UNL     1      -6.745   3.965 129.385  0.00  0.00    +0.000 C 
ATOM     18  C   UNL     1      -8.018   4.218 128.768  0.00  0.00    +0.000 C 
ATOM     19  O   UNL     1      -8.404   3.606 127.783  0.00  0.00    +0.000 OA
ENDROOT
BRANCH   4  20
ATOM     20  O   UNL     1     -12.352   7.116 127.929  0.00  0.00    +0.000 OA
ATOM     21  H   UNL     1     -11.898   6.752 127.148  0.00  0.00    +0.000 HD
ENDBRANCH   4  20
BRANCH  15  22
ATOM     22  O   UNL     1      -7.691   6.898 131.383  0.00  0.00    +0.000 OA
ATOM     23  H   UNL     1      -7.113   7.121 132.129  0.00  0.00    +0.000 HD
ENDBRANCH  15  22
BRANCH  12  24
ATOM     24  C   UNL     1      -6.109   4.213 133.311  0.00  0.00    +0.000 C 
BRANCH  24  25
ATOM     25  C   UNL     1      -5.819   2.955 134.178  0.00  0.00    +0.000 C 
ATOM     26  C   UNL     1      -6.197   1.433 134.001  0.00  0.00    +0.000 C 
ATOM     27  C   UNL     1      -4.778   1.885 133.988  0.00  0.00    +0.000 C 
ENDBRANCH  24  25
ENDBRANCH  12  24
TORSDOF 4
ENDMDL
