MODEL 1
REMARK VINA RESULT:     -10.0      0.000      0.000
REMARK  Name = Nandrolone phenpropionate
REMARK  6 active torsions:
REMARK  status: ('A' for Active; 'I' for Inactive)
REMARK    1  A    between atoms: C_5  and  O_6
REMARK    2  A    between atoms: O_6  and  C_7
REMARK    3  A    between atoms: C_7  and  C_9
REMARK    4  A    between atoms: C_9  and  C_10
REMARK    5  A    between atoms: C_10  and  C_11
REMARK    6  A    between atoms: C_17  and  C_18
REMARK                            x       y       z     vdW  Elec       q    Type
REMARK                         _______ _______ _______ _____ _____    ______ ____
ROOT
ATOM      1  C   UNL     1      -7.918  -0.821 123.248  0.00  0.00    +0.000 C 
ATOM      2  C   UNL     1      -8.721  -2.000 123.275  0.00  0.00    +0.000 C 
ATOM      3  C   UNL     1      -9.032  -1.144 124.465  0.00  0.00    +0.000 C 
ATOM      4  C   UNL     1      -8.254   0.787 124.310  0.00  0.00    +0.000 C 
ATOM      5  C   UNL     1      -9.345   0.284 123.677  0.00  0.00    +0.000 C 
ATOM      6  C   UNL     1     -10.226   0.652 122.590  0.00  0.00    +0.000 C 
ATOM      7  C   UNL     1      -9.924   0.553 125.387  0.00  0.00    +0.000 C 
ATOM      8  C   UNL     1      -8.625   0.312 126.419  0.00  0.00    +0.000 C 
ATOM      9  C   UNL     1      -7.378  -0.770 126.041  0.00  0.00    +0.000 C 
ATOM     10  C   UNL     1      -6.282  -0.685 127.003  0.00  0.00    +0.000 C 
ATOM     11  C   UNL     1      -6.987  -0.583 128.205  0.00  0.00    +0.000 C 
ATOM     12  C   UNL     1      -7.702  -0.008 129.255  0.00  0.00    +0.000 C 
ATOM     13  C   UNL     1      -7.266  -1.540 129.846  0.00  0.00    +0.000 C 
ATOM     14  O   UNL     1      -7.869  -1.909 130.792  0.00  0.00    +0.000 OA
ATOM     15  C   UNL     1      -6.138  -2.585 128.661  0.00  0.00    +0.000 C 
ATOM     16  C   UNL     1      -5.770  -2.113 127.330  0.00  0.00    +0.000 C 
ATOM     17  C   UNL     1      -5.032  -2.416 125.916  0.00  0.00    +0.000 C 
ATOM     18  C   UNL     1      -5.900  -2.214 124.590  0.00  0.00    +0.000 C 
ATOM     19  C   UNL     1      -6.723  -0.923 124.605  0.00  0.00    +0.000 C 
ENDROOT
BRANCH   4  20
ATOM     20  O   UNL     1      -8.862   2.403 124.428  0.00  0.00    +0.000 OA
BRANCH  20  21
ATOM     21  C   UNL     1      -8.229   3.633 124.763  0.00  0.00    +0.000 C 
ATOM     22  O   UNL     1      -8.707   4.418 125.579  0.00  0.00    +0.000 OA
BRANCH  21  23
ATOM     23  C   UNL     1      -6.817   3.998 124.042  0.00  0.00    +0.000 C 
BRANCH  23  24
ATOM     24  C   UNL     1      -6.390   3.106 122.786  0.00  0.00    +0.000 C 
BRANCH  24  25
ATOM     25  C   UNL     1      -7.006   3.458 121.414  0.00  0.00    +0.000 A 
ATOM     26  C   UNL     1      -6.200   3.932 120.370  0.00  0.00    +0.000 A 
ATOM     27  C   UNL     1      -6.758   4.486 119.210  0.00  0.00    +0.000 A 
ATOM     28  C   UNL     1      -8.135   4.475 119.014  0.00  0.00    +0.000 A 
ATOM     29  C   UNL     1      -8.961   3.975 120.016  0.00  0.00    +0.000 A 
ATOM     30  C   UNL     1      -8.404   3.485 121.213  0.00  0.00    +0.000 A 
ENDBRANCH  24  25
ENDBRANCH  23  24
ENDBRANCH  21  23
ENDBRANCH  20  21
ENDBRANCH   4  20
TORSDOF 5
ENDMDL
MODEL 2
REMARK VINA RESULT:      -9.8      3.110      6.069
REMARK  Name = Nandrolone phenpropionate
REMARK  6 active torsions:
REMARK  status: ('A' for Active; 'I' for Inactive)
REMARK    1  A    between atoms: C_5  and  O_6
REMARK    2  A    between atoms: O_6  and  C_7
REMARK    3  A    between atoms: C_7  and  C_9
REMARK    4  A    between atoms: C_9  and  C_10
REMARK    5  A    between atoms: C_10  and  C_11
REMARK    6  A    between atoms: C_17  and  C_18
REMARK                            x       y       z     vdW  Elec       q    Type
REMARK                         _______ _______ _______ _____ _____    ______ ____
ROOT
ATOM      1  C   UNL     1      -7.115  -2.879 130.485  0.00  0.00    +0.000 C 
ATOM      2  C   UNL     1      -6.485  -4.159 130.479  0.00  0.00    +0.000 C 
ATOM      3  C   UNL     1      -5.736  -3.218 129.586  0.00  0.00    +0.000 C 
ATOM      4  C   UNL     1      -6.291  -1.223 129.848  0.00  0.00    +0.000 C 
ATOM      5  C   UNL     1      -5.505  -1.974 130.662  0.00  0.00    +0.000 C 
ATOM      6  C   UNL     1      -4.951  -1.899 131.996  0.00  0.00    +0.000 C 
ATOM      7  C   UNL     1      -4.416  -1.583 129.250  0.00  0.00    +0.000 C 
ATOM      8  C   UNL     1      -5.369  -1.474 127.875  0.00  0.00    +0.000 C 
ATOM      9  C   UNL     1      -6.790  -2.378 127.703  0.00  0.00    +0.000 C 
ATOM     10  C   UNL     1      -7.533  -1.993 126.506  0.00  0.00    +0.000 C 
ATOM     11  C   UNL     1      -6.495  -1.850 125.581  0.00  0.00    +0.000 C 
ATOM     12  C   UNL     1      -5.438  -1.268 124.883  0.00  0.00    +0.000 C 
ATOM     13  C   UNL     1      -5.856  -2.619 123.942  0.00  0.00    +0.000 C 
ATOM     14  O   UNL     1      -5.047  -2.954 123.149  0.00  0.00    +0.000 OA
ATOM     15  C   UNL     1      -7.400  -3.612 124.572  0.00  0.00    +0.000 C 
ATOM     16  C   UNL     1      -8.089  -3.263 125.811  0.00  0.00    +0.000 C 
ATOM     17  C   UNL     1      -9.244  -3.623 126.893  0.00  0.00    +0.000 C 
ATOM     18  C   UNL     1      -8.792  -3.740 128.421  0.00  0.00    +0.000 C 
ATOM     19  C   UNL     1      -7.856  -2.608 128.855  0.00  0.00    +0.000 C 
ENDROOT
BRANCH   4  20
ATOM     20  O   UNL     1      -5.489   0.274 130.182  0.00  0.00    +0.000 OA
BRANCH  20  21
ATOM     21  C   UNL     1      -5.898   1.628 130.013  0.00  0.00    +0.000 C 
ATOM     22  O   UNL     1      -5.873   2.442 130.933  0.00  0.00    +0.000 OA
BRANCH  21  23
ATOM     23  C   UNL     1      -6.403   2.105 128.542  0.00  0.00    +0.000 C 
BRANCH  23  24
ATOM     24  C   UNL     1      -7.866   1.645 128.090  0.00  0.00    +0.000 C 
BRANCH  24  25
ATOM     25  C   UNL     1      -8.150   1.547 126.575  0.00  0.00    +0.000 A 
ATOM     26  C   UNL     1      -9.301   0.899 126.106  0.00  0.00    +0.000 A 
ATOM     27  C   UNL     1      -9.460   0.582 124.750  0.00  0.00    +0.000 A 
ATOM     28  C   UNL     1      -8.525   1.006 123.812  0.00  0.00    +0.000 A 
ATOM     29  C   UNL     1      -7.389   1.687 124.242  0.00  0.00    +0.000 A 
ATOM     30  C   UNL     1      -7.195   1.941 125.613  0.00  0.00    +0.000 A 
ENDBRANCH  24  25
ENDBRANCH  23  24
ENDBRANCH  21  23
ENDBRANCH  20  21
ENDBRANCH   4  20
TORSDOF 5
ENDMDL
MODEL 3
REMARK VINA RESULT:      -9.6      4.684      7.664
REMARK  Name = Nandrolone phenpropionate
REMARK  6 active torsions:
REMARK  status: ('A' for Active; 'I' for Inactive)
REMARK    1  A    between atoms: C_5  and  O_6
REMARK    2  A    between atoms: O_6  and  C_7
REMARK    3  A    between atoms: C_7  and  C_9
REMARK    4  A    between atoms: C_9  and  C_10
REMARK    5  A    between atoms: C_10  and  C_11
REMARK    6  A    between atoms: C_17  and  C_18
REMARK                            x       y       z     vdW  Elec       q    Type
REMARK                         _______ _______ _______ _____ _____    ______ ____
ROOT
ATOM      1  C   UNL     1      -6.511  -3.390 130.738  0.00  0.00    +0.000 C 
ATOM      2  C   UNL     1      -5.986  -4.697 130.515  0.00  0.00    +0.000 C 
ATOM      3  C   UNL     1      -5.294  -3.711 129.625  0.00  0.00    +0.000 C 
ATOM      4  C   UNL     1      -5.658  -1.727 130.161  0.00  0.00    +0.000 C 
ATOM      5  C   UNL     1      -4.829  -2.609 130.777  0.00  0.00    +0.000 C 
ATOM      6  C   UNL     1      -4.098  -2.714 132.021  0.00  0.00    +0.000 C 
ATOM      7  C   UNL     1      -3.911  -2.133 129.273  0.00  0.00    +0.000 C 
ATOM      8  C   UNL     1      -5.028  -1.816 128.063  0.00  0.00    +0.000 C 
ATOM      9  C   UNL     1      -6.523  -2.608 128.002  0.00  0.00    +0.000 C 
ATOM     10  C   UNL     1      -7.387  -2.050 126.966  0.00  0.00    +0.000 C 
ATOM     11  C   UNL     1      -6.474  -1.871 125.923  0.00  0.00    +0.000 C 
ATOM     12  C   UNL     1      -5.478  -1.280 125.146  0.00  0.00    +0.000 C 
ATOM     13  C   UNL     1      -6.118  -2.492 124.142  0.00  0.00    +0.000 C 
ATOM     14  O   UNL     1      -5.449  -2.787 123.214  0.00  0.00    +0.000 OA
ATOM     15  C   UNL     1      -7.634  -3.453 124.880  0.00  0.00    +0.000 C 
ATOM     16  C   UNL     1      -8.125  -3.200 126.232  0.00  0.00    +0.000 C 
ATOM     17  C   UNL     1      -9.149  -3.607 127.423  0.00  0.00    +0.000 C 
ATOM     18  C   UNL     1      -8.508  -3.916 128.854  0.00  0.00    +0.000 C 
ATOM     19  C   UNL     1      -7.441  -2.898 129.263  0.00  0.00    +0.000 C 
ENDROOT
BRANCH   4  20
ATOM     20  O   UNL     1      -4.709  -0.327 130.527  0.00  0.00    +0.000 OA
BRANCH  20  21
ATOM     21  C   UNL     1      -5.012   1.064 130.480  0.00  0.00    +0.000 C 
ATOM     22  O   UNL     1      -4.803   1.814 131.431  0.00  0.00    +0.000 OA
BRANCH  21  23
ATOM     23  C   UNL     1      -5.646   1.671 129.111  0.00  0.00    +0.000 C 
BRANCH  23  24
ATOM     24  C   UNL     1      -7.120   1.194 128.718  0.00  0.00    +0.000 C 
BRANCH  24  25
ATOM     25  C   UNL     1      -8.227   1.332 129.786  0.00  0.00    +0.000 A 
ATOM     26  C   UNL     1      -8.938   2.532 129.926  0.00  0.00    +0.000 A 
ATOM     27  C   UNL     1      -9.766   2.766 131.032  0.00  0.00    +0.000 A 
ATOM     28  C   UNL     1      -9.993   1.764 131.968  0.00  0.00    +0.000 A 
ATOM     29  C   UNL     1      -9.332   0.546 131.836  0.00  0.00    +0.000 A 
ATOM     30  C   UNL     1      -8.445   0.336 130.763  0.00  0.00    +0.000 A 
ENDBRANCH  24  25
ENDBRANCH  23  24
ENDBRANCH  21  23
ENDBRANCH  20  21
ENDBRANCH   4  20
TORSDOF 5
ENDMDL
MODEL 4
REMARK VINA RESULT:      -9.4      2.344      6.622
REMARK  Name = Nandrolone phenpropionate
REMARK  6 active torsions:
REMARK  status: ('A' for Active; 'I' for Inactive)
REMARK    1  A    between atoms: C_5  and  O_6
REMARK    2  A    between atoms: O_6  and  C_7
REMARK    3  A    between atoms: C_7  and  C_9
REMARK    4  A    between atoms: C_9  and  C_10
REMARK    5  A    between atoms: C_10  and  C_11
REMARK    6  A    between atoms: C_17  and  C_18
REMARK                            x       y       z     vdW  Elec       q    Type
REMARK                         _______ _______ _______ _____ _____    ______ ____
ROOT
ATOM      1  C   UNL     1      -4.805   3.159 127.852  0.00  0.00    +0.000 C 
ATOM      2  C   UNL     1      -5.564   4.309 128.218  0.00  0.00    +0.000 C 
ATOM      3  C   UNL     1      -6.454   3.104 128.170  0.00  0.00    +0.000 C 
ATOM      4  C   UNL     1      -5.396   1.307 128.079  0.00  0.00    +0.000 C 
ATOM      5  C   UNL     1      -5.580   2.102 129.165  0.00  0.00    +0.000 C 
ATOM      6  C   UNL     1      -5.048   2.241 130.502  0.00  0.00    +0.000 C 
ATOM      7  C   UNL     1      -7.193   1.272 128.959  0.00  0.00    +0.000 C 
ATOM      8  C   UNL     1      -7.431   1.000 127.322  0.00  0.00    +0.000 C 
ATOM      9  C   UNL     1      -6.783   2.031 126.145  0.00  0.00    +0.000 C 
ATOM     10  C   UNL     1      -6.978   1.502 124.798  0.00  0.00    +0.000 C 
ATOM     11  C   UNL     1      -8.289   1.024 124.885  0.00  0.00    +0.000 C 
ATOM     12  C   UNL     1      -9.349   0.166 125.172  0.00  0.00    +0.000 C 
ATOM     13  C   UNL     1     -10.029   1.328 124.134  0.00  0.00    +0.000 C 
ATOM     14  O   UNL     1     -11.210   1.371 124.126  0.00  0.00    +0.000 OA
ATOM     15  C   UNL     1      -8.777   2.634 123.433  0.00  0.00    +0.000 C 
ATOM     16  C   UNL     1      -7.375   2.657 123.841  0.00  0.00    +0.000 C 
ATOM     17  C   UNL     1      -5.932   3.396 123.770  0.00  0.00    +0.000 C 
ATOM     18  C   UNL     1      -5.244   3.775 125.161  0.00  0.00    +0.000 C 
ATOM     19  C   UNL     1      -5.321   2.647 126.193  0.00  0.00    +0.000 C 
ENDROOT
BRANCH   4  20
ATOM     20  O   UNL     1      -5.357  -0.178 128.967  0.00  0.00    +0.000 OA
BRANCH  20  21
ATOM     21  C   UNL     1      -5.091  -1.517 128.564  0.00  0.00    +0.000 C 
ATOM     22  O   UNL     1      -4.137  -2.157 128.999  0.00  0.00    +0.000 OA
BRANCH  21  23
ATOM     23  C   UNL     1      -6.100  -2.218 127.498  0.00  0.00    +0.000 C 
BRANCH  23  24
ATOM     24  C   UNL     1      -5.619  -2.284 125.975  0.00  0.00    +0.000 C 
BRANCH  24  25
ATOM     25  C   UNL     1      -6.687  -2.573 124.897  0.00  0.00    +0.000 A 
ATOM     26  C   UNL     1      -6.599  -1.984 123.628  0.00  0.00    +0.000 A 
ATOM     27  C   UNL     1      -7.669  -2.032 122.725  0.00  0.00    +0.000 A 
ATOM     28  C   UNL     1      -8.811  -2.767 123.022  0.00  0.00    +0.000 A 
ATOM     29  C   UNL     1      -8.913  -3.397 124.259  0.00  0.00    +0.000 A 
ATOM     30  C   UNL     1      -7.868  -3.288 125.195  0.00  0.00    +0.000 A 
ENDBRANCH  24  25
ENDBRANCH  23  24
ENDBRANCH  21  23
ENDBRANCH  20  21
ENDBRANCH   4  20
TORSDOF 5
ENDMDL
MODEL 5
REMARK VINA RESULT:      -9.3      2.830      6.597
REMARK  Name = Nandrolone phenpropionate
REMARK  6 active torsions:
REMARK  status: ('A' for Active; 'I' for Inactive)
REMARK    1  A    between atoms: C_5  and  O_6
REMARK    2  A    between atoms: O_6  and  C_7
REMARK    3  A    between atoms: C_7  and  C_9
REMARK    4  A    between atoms: C_9  and  C_10
REMARK    5  A    between atoms: C_10  and  C_11
REMARK    6  A    between atoms: C_17  and  C_18
REMARK                            x       y       z     vdW  Elec       q    Type
REMARK                         _______ _______ _______ _____ _____    ______ ____
ROOT
ATOM      1  C   UNL     1      -8.453  -1.189 124.024  0.00  0.00    +0.000 C 
ATOM      2  C   UNL     1      -7.746  -1.199 122.785  0.00  0.00    +0.000 C 
ATOM      3  C   UNL     1      -6.778  -1.096 123.923  0.00  0.00    +0.000 C 
ATOM      4  C   UNL     1      -7.645  -1.509 125.776  0.00  0.00    +0.000 C 
ATOM      5  C   UNL     1      -7.291  -2.400 124.814  0.00  0.00    +0.000 C 
ATOM      6  C   UNL     1      -7.507  -3.796 124.506  0.00  0.00    +0.000 C 
ATOM      7  C   UNL     1      -5.698  -1.916 125.562  0.00  0.00    +0.000 C 
ATOM      8  C   UNL     1      -5.824  -0.322 126.066  0.00  0.00    +0.000 C 
ATOM      9  C   UNL     1      -6.828   0.786 125.272  0.00  0.00    +0.000 C 
ATOM     10  C   UNL     1      -6.902   2.056 125.988  0.00  0.00    +0.000 C 
ATOM     11  C   UNL     1      -5.567   2.231 126.362  0.00  0.00    +0.000 C 
ATOM     12  C   UNL     1      -4.389   2.102 127.096  0.00  0.00    +0.000 C 
ATOM     13  C   UNL     1      -4.090   3.421 126.068  0.00  0.00    +0.000 C 
ATOM     14  O   UNL     1      -2.954   3.726 125.951  0.00  0.00    +0.000 OA
ATOM     15  C   UNL     1      -5.595   3.961 124.967  0.00  0.00    +0.000 C 
ATOM     16  C   UNL     1      -6.857   3.227 124.971  0.00  0.00    +0.000 C 
ATOM     17  C   UNL     1      -8.342   3.039 124.345  0.00  0.00    +0.000 C 
ATOM     18  C   UNL     1      -8.719   1.585 123.801  0.00  0.00    +0.000 C 
ATOM     19  C   UNL     1      -8.291   0.463 124.750  0.00  0.00    +0.000 C 
ENDROOT
BRANCH   4  20
ATOM     20  O   UNL     1      -7.328  -2.569 127.107  0.00  0.00    +0.000 OA
BRANCH  20  21
ATOM     21  C   UNL     1      -8.139  -2.991 128.198  0.00  0.00    +0.000 C 
ATOM     22  O   UNL     1      -8.993  -3.867 128.083  0.00  0.00    +0.000 OA
BRANCH  21  23
ATOM     23  C   UNL     1      -7.910  -2.288 129.648  0.00  0.00    +0.000 C 
BRANCH  23  24
ATOM     24  C   UNL     1      -6.684  -1.271 129.779  0.00  0.00    +0.000 C 
BRANCH  24  25
ATOM     25  C   UNL     1      -6.977   0.233 129.586  0.00  0.00    +0.000 A 
ATOM     26  C   UNL     1      -6.123   1.202 130.130  0.00  0.00    +0.000 A 
ATOM     27  C   UNL     1      -6.491   2.554 130.182  0.00  0.00    +0.000 A 
ATOM     28  C   UNL     1      -7.671   2.988 129.589  0.00  0.00    +0.000 A 
ATOM     29  C   UNL     1      -8.523   2.054 129.005  0.00  0.00    +0.000 A 
ATOM     30  C   UNL     1      -8.188   0.687 129.017  0.00  0.00    +0.000 A 
ENDBRANCH  24  25
ENDBRANCH  23  24
ENDBRANCH  21  23
ENDBRANCH  20  21
ENDBRANCH   4  20
TORSDOF 5
ENDMDL
MODEL 6
REMARK VINA RESULT:      -9.3      2.309      5.356
REMARK  Name = Nandrolone phenpropionate
REMARK  6 active torsions:
REMARK  status: ('A' for Active; 'I' for Inactive)
REMARK    1  A    between atoms: C_5  and  O_6
REMARK    2  A    between atoms: O_6  and  C_7
REMARK    3  A    between atoms: C_7  and  C_9
REMARK    4  A    between atoms: C_9  and  C_10
REMARK    5  A    between atoms: C_10  and  C_11
REMARK    6  A    between atoms: C_17  and  C_18
REMARK                            x       y       z     vdW  Elec       q    Type
REMARK                         _______ _______ _______ _____ _____    ______ ____
ROOT
ATOM      1  C   UNL     1      -7.483   3.777 127.643  0.00  0.00    +0.000 C 
ATOM      2  C   UNL     1      -6.342   4.228 128.371  0.00  0.00    +0.000 C 
ATOM      3  C   UNL     1      -5.956   3.094 127.472  0.00  0.00    +0.000 C 
ATOM      4  C   UNL     1      -7.416   2.642 126.050  0.00  0.00    +0.000 C 
ATOM      5  C   UNL     1      -6.552   3.689 126.040  0.00  0.00    +0.000 C 
ATOM      6  C   UNL     1      -6.376   4.935 125.328  0.00  0.00    +0.000 C 
ATOM      7  C   UNL     1      -5.512   2.267 125.562  0.00  0.00    +0.000 C 
ATOM      8  C   UNL     1      -6.109   0.905 126.338  0.00  0.00    +0.000 C 
ATOM      9  C   UNL     1      -6.878   1.003 127.843  0.00  0.00    +0.000 C 
ATOM     10  C   UNL     1      -7.457  -0.278 128.236  0.00  0.00    +0.000 C 
ATOM     11  C   UNL     1      -6.444  -1.160 127.852  0.00  0.00    +0.000 C 
ATOM     12  C   UNL     1      -5.664  -1.978 127.036  0.00  0.00    +0.000 C 
ATOM     13  C   UNL     1      -5.206  -2.416 128.613  0.00  0.00    +0.000 C 
ATOM     14  O   UNL     1      -4.194  -3.019 128.697  0.00  0.00    +0.000 OA
ATOM     15  C   UNL     1      -6.201  -1.538 130.029  0.00  0.00    +0.000 C 
ATOM     16  C   UNL     1      -7.207  -0.517 129.748  0.00  0.00    +0.000 C 
ATOM     17  C   UNL     1      -8.251   0.583 130.326  0.00  0.00    +0.000 C 
ATOM     18  C   UNL     1      -8.114   2.073 129.768  0.00  0.00    +0.000 C 
ATOM     19  C   UNL     1      -7.921   2.127 128.250  0.00  0.00    +0.000 C 
ENDROOT
BRANCH   4  20
ATOM     20  O   UNL     1      -7.489   2.472 124.330  0.00  0.00    +0.000 OA
BRANCH  20  21
ATOM     21  C   UNL     1      -8.589   2.411 123.428  0.00  0.00    +0.000 C 
ATOM     22  O   UNL     1      -8.759   3.244 122.541  0.00  0.00    +0.000 OA
BRANCH  21  23
ATOM     23  C   UNL     1      -9.646   1.184 123.580  0.00  0.00    +0.000 C 
BRANCH  23  24
ATOM     24  C   UNL     1      -9.577   0.326 124.927  0.00  0.00    +0.000 C 
BRANCH  24  25
ATOM     25  C   UNL     1      -8.858  -1.040 124.871  0.00  0.00    +0.000 A 
ATOM     26  C   UNL     1      -7.876  -1.290 123.902  0.00  0.00    +0.000 A 
ATOM     27  C   UNL     1      -7.389  -2.584 123.673  0.00  0.00    +0.000 A 
ATOM     28  C   UNL     1      -7.787  -3.642 124.483  0.00  0.00    +0.000 A 
ATOM     29  C   UNL     1      -8.731  -3.418 125.480  0.00  0.00    +0.000 A 
ATOM     30  C   UNL     1      -9.275  -2.132 125.663  0.00  0.00    +0.000 A 
ENDBRANCH  24  25
ENDBRANCH  23  24
ENDBRANCH  21  23
ENDBRANCH  20  21
ENDBRANCH   4  20
TORSDOF 5
ENDMDL
MODEL 7
REMARK VINA RESULT:      -9.2      6.739     10.599
REMARK  Name = Nandrolone phenpropionate
REMARK  6 active torsions:
REMARK  status: ('A' for Active; 'I' for Inactive)
REMARK    1  A    between atoms: C_5  and  O_6
REMARK    2  A    between atoms: O_6  and  C_7
REMARK    3  A    between atoms: C_7  and  C_9
REMARK    4  A    between atoms: C_9  and  C_10
REMARK    5  A    between atoms: C_10  and  C_11
REMARK    6  A    between atoms: C_17  and  C_18
REMARK                            x       y       z     vdW  Elec       q    Type
REMARK                         _______ _______ _______ _____ _____    ______ ____
ROOT
ATOM      1  C   UNL     1      -3.198   4.428 130.725  0.00  0.00    +0.000 C 
ATOM      2  C   UNL     1      -2.882   4.773 129.377  0.00  0.00    +0.000 C 
ATOM      3  C   UNL     1      -3.807   5.797 129.962  0.00  0.00    +0.000 C 
ATOM      4  C   UNL     1      -3.990   5.645 132.036  0.00  0.00    +0.000 C 
ATOM      5  C   UNL     1      -2.948   6.162 131.335  0.00  0.00    +0.000 C 
ATOM      6  C   UNL     1      -1.582   6.569 131.579  0.00  0.00    +0.000 C 
ATOM      7  C   UNL     1      -4.229   7.458 131.222  0.00  0.00    +0.000 C 
ATOM      8  C   UNL     1      -5.728   6.706 131.221  0.00  0.00    +0.000 C 
ATOM      9  C   UNL     1      -5.945   5.155 130.578  0.00  0.00    +0.000 C 
ATOM     10  C   UNL     1      -7.288   4.647 130.839  0.00  0.00    +0.000 C 
ATOM     11  C   UNL     1      -8.059   5.787 130.596  0.00  0.00    +0.000 C 
ATOM     12  C   UNL     1      -8.684   7.012 130.820  0.00  0.00    +0.000 C 
ATOM     13  C   UNL     1      -9.421   6.428 129.405  0.00  0.00    +0.000 C 
ATOM     14  O   UNL     1     -10.012   7.231 128.772  0.00  0.00    +0.000 OA
ATOM     15  C   UNL     1      -8.861   4.651 128.863  0.00  0.00    +0.000 C 
ATOM     16  C   UNL     1      -7.820   3.917 129.578  0.00  0.00    +0.000 C 
ATOM     17  C   UNL     1      -6.876   2.600 129.665  0.00  0.00    +0.000 C 
ATOM     18  C   UNL     1      -5.302   2.846 129.783  0.00  0.00    +0.000 C 
ATOM     19  C   UNL     1      -4.942   3.944 130.788  0.00  0.00    +0.000 C 
ENDROOT
BRANCH   4  20
ATOM     20  O   UNL     1      -3.814   6.700 133.396  0.00  0.00    +0.000 OA
BRANCH  20  21
ATOM     21  C   UNL     1      -3.993   6.487 134.792  0.00  0.00    +0.000 C 
ATOM     22  O   UNL     1      -3.176   6.871 135.626  0.00  0.00    +0.000 OA
BRANCH  21  23
ATOM     23  C   UNL     1      -5.336   5.715 135.290  0.00  0.00    +0.000 C 
BRANCH  23  24
ATOM     24  C   UNL     1      -5.451   4.158 134.946  0.00  0.00    +0.000 C 
BRANCH  24  25
ATOM     25  C   UNL     1      -6.817   3.632 134.455  0.00  0.00    +0.000 A 
ATOM     26  C   UNL     1      -6.906   2.421 133.755  0.00  0.00    +0.000 A 
ATOM     27  C   UNL     1      -8.082   2.045 133.091  0.00  0.00    +0.000 A 
ATOM     28  C   UNL     1      -9.235   2.815 133.207  0.00  0.00    +0.000 A 
ATOM     29  C   UNL     1      -9.190   4.004 133.930  0.00  0.00    +0.000 A 
ATOM     30  C   UNL     1      -7.988   4.418 134.535  0.00  0.00    +0.000 A 
ENDBRANCH  24  25
ENDBRANCH  23  24
ENDBRANCH  21  23
ENDBRANCH  20  21
ENDBRANCH   4  20
TORSDOF 5
ENDMDL
MODEL 8
REMARK VINA RESULT:      -9.1      2.249      6.666
REMARK  Name = Nandrolone phenpropionate
REMARK  6 active torsions:
REMARK  status: ('A' for Active; 'I' for Inactive)
REMARK    1  A    between atoms: C_5  and  O_6
REMARK    2  A    between atoms: O_6  and  C_7
REMARK    3  A    between atoms: C_7  and  C_9
REMARK    4  A    between atoms: C_9  and  C_10
REMARK    5  A    between atoms: C_10  and  C_11
REMARK    6  A    between atoms: C_17  and  C_18
REMARK                            x       y       z     vdW  Elec       q    Type
REMARK                         _______ _______ _______ _____ _____    ______ ____
ROOT
ATOM      1  C   UNL     1      -6.488   2.861 129.479  0.00  0.00    +0.000 C 
ATOM      2  C   UNL     1      -7.276   4.050 129.496  0.00  0.00    +0.000 C 
ATOM      3  C   UNL     1      -7.772   3.126 128.427  0.00  0.00    +0.000 C 
ATOM      4  C   UNL     1      -6.996   1.195 128.588  0.00  0.00    +0.000 C 
ATOM      5  C   UNL     1      -7.973   1.757 129.346  0.00  0.00    +0.000 C 
ATOM      6  C   UNL     1      -8.680   1.476 130.576  0.00  0.00    +0.000 C 
ATOM      7  C   UNL     1      -8.809   1.390 127.765  0.00  0.00    +0.000 C 
ATOM      8  C   UNL     1      -7.681   1.541 126.534  0.00  0.00    +0.000 C 
ATOM      9  C   UNL     1      -6.382   2.621 126.645  0.00  0.00    +0.000 C 
ATOM     10  C   UNL     1      -5.447   2.456 125.536  0.00  0.00    +0.000 C 
ATOM     11  C   UNL     1      -6.328   2.290 124.464  0.00  0.00    +0.000 C 
ATOM     12  C   UNL     1      -7.200   1.662 123.576  0.00  0.00    +0.000 C 
ATOM     13  C   UNL     1      -6.847   3.145 122.826  0.00  0.00    +0.000 C 
ATOM     14  O   UNL     1      -7.584   3.463 121.960  0.00  0.00    +0.000 OA
ATOM     15  C   UNL     1      -5.543   4.243 123.753  0.00  0.00    +0.000 C 
ATOM     16  C   UNL     1      -4.978   3.850 125.042  0.00  0.00    +0.000 C 
ATOM     17  C   UNL     1      -4.031   4.230 126.303  0.00  0.00    +0.000 C 
ATOM     18  C   UNL     1      -4.687   4.129 127.757  0.00  0.00    +0.000 C 
ATOM     19  C   UNL     1      -5.513   2.854 127.952  0.00  0.00    +0.000 C 
ENDROOT
BRANCH   4  20
ATOM     20  O   UNL     1      -7.628  -0.414 128.671  0.00  0.00    +0.000 OA
BRANCH  20  21
ATOM     21  C   UNL     1      -7.022  -1.655 129.016  0.00  0.00    +0.000 C 
ATOM     22  O   UNL     1      -7.234  -2.214 130.090  0.00  0.00    +0.000 OA
BRANCH  21  23
ATOM     23  C   UNL     1      -6.024  -2.354 127.939  0.00  0.00    +0.000 C 
BRANCH  23  24
ATOM     24  C   UNL     1      -5.631  -1.497 126.648  0.00  0.00    +0.000 C 
BRANCH  24  25
ATOM     25  C   UNL     1      -6.368  -1.810 125.328  0.00  0.00    +0.000 A 
ATOM     26  C   UNL     1      -5.664  -1.895 124.119  0.00  0.00    +0.000 A 
ATOM     27  C   UNL     1      -6.329  -1.933 122.886  0.00  0.00    +0.000 A 
ATOM     28  C   UNL     1      -7.717  -2.001 122.835  0.00  0.00    +0.000 A 
ATOM     29  C   UNL     1      -8.445  -1.958 124.021  0.00  0.00    +0.000 A 
ATOM     30  C   UNL     1      -7.778  -1.847 125.256  0.00  0.00    +0.000 A 
ENDBRANCH  24  25
ENDBRANCH  23  24
ENDBRANCH  21  23
ENDBRANCH  20  21
ENDBRANCH   4  20
TORSDOF 5
ENDMDL
MODEL 9
REMARK VINA RESULT:      -9.1      3.446      7.483
REMARK  Name = Nandrolone phenpropionate
REMARK  6 active torsions:
REMARK  status: ('A' for Active; 'I' for Inactive)
REMARK    1  A    between atoms: C_5  and  O_6
REMARK    2  A    between atoms: O_6  and  C_7
REMARK    3  A    between atoms: C_7  and  C_9
REMARK    4  A    between atoms: C_9  and  C_10
REMARK    5  A    between atoms: C_10  and  C_11
REMARK    6  A    between atoms: C_17  and  C_18
REMARK                            x       y       z     vdW  Elec       q    Type
REMARK                         _______ _______ _______ _____ _____    ______ ____
ROOT
ATOM      1  C   UNL     1      -6.195  -1.182 129.401  0.00  0.00    +0.000 C 
ATOM      2  C   UNL     1      -5.066  -1.963 129.011  0.00  0.00    +0.000 C 
ATOM      3  C   UNL     1      -5.473  -1.060 127.887  0.00  0.00    +0.000 C 
ATOM      4  C   UNL     1      -6.816   0.426 128.475  0.00  0.00    +0.000 C 
ATOM      5  C   UNL     1      -5.479   0.383 128.709  0.00  0.00    +0.000 C 
ATOM      6  C   UNL     1      -4.505   1.066 129.532  0.00  0.00    +0.000 C 
ATOM      7  C   UNL     1      -5.594   0.844 126.946  0.00  0.00    +0.000 C 
ATOM      8  C   UNL     1      -6.965   0.117 126.309  0.00  0.00    +0.000 C 
ATOM      9  C   UNL     1      -7.548  -1.357 126.903  0.00  0.00    +0.000 C 
ATOM     10  C   UNL     1      -8.836  -1.705 126.311  0.00  0.00    +0.000 C 
ATOM     11  C   UNL     1      -8.625  -1.346 124.977  0.00  0.00    +0.000 C 
ATOM     12  C   UNL     1      -8.531  -0.547 123.839  0.00  0.00    +0.000 C 
ATOM     13  C   UNL     1      -8.534  -2.133 123.228  0.00  0.00    +0.000 C 
ATOM     14  O   UNL     1      -8.161  -2.248 122.113  0.00  0.00    +0.000 OA
ATOM     15  C   UNL     1      -8.777  -3.524 124.560  0.00  0.00    +0.000 C 
ATOM     16  C   UNL     1      -8.864  -3.221 125.986  0.00  0.00    +0.000 C 
ATOM     17  C   UNL     1      -8.966  -3.776 127.507  0.00  0.00    +0.000 C 
ATOM     18  C   UNL     1      -7.870  -3.250 128.544  0.00  0.00    +0.000 C 
ATOM     19  C   UNL     1      -7.625  -1.742 128.440  0.00  0.00    +0.000 C 
ENDROOT
BRANCH   4  20
ATOM     20  O   UNL     1      -6.910   2.151 128.372  0.00  0.00    +0.000 OA
BRANCH  20  21
ATOM     21  C   UNL     1      -8.019   3.043 128.372  0.00  0.00    +0.000 C 
ATOM     22  O   UNL     1      -8.309   3.733 127.397  0.00  0.00    +0.000 OA
BRANCH  21  23
ATOM     23  C   UNL     1      -8.936   3.135 129.713  0.00  0.00    +0.000 C 
BRANCH  23  24
ATOM     24  C   UNL     1      -8.189   2.983 131.118  0.00  0.00    +0.000 C 
BRANCH  24  25
ATOM     25  C   UNL     1      -7.859   1.554 131.603  0.00  0.00    +0.000 A 
ATOM     26  C   UNL     1      -8.793   0.519 131.461  0.00  0.00    +0.000 A 
ATOM     27  C   UNL     1      -8.621  -0.714 132.105  0.00  0.00    +0.000 A 
ATOM     28  C   UNL     1      -7.456  -0.983 132.816  0.00  0.00    +0.000 A 
ATOM     29  C   UNL     1      -6.491   0.013 132.942  0.00  0.00    +0.000 A 
ATOM     30  C   UNL     1      -6.697   1.275 132.355  0.00  0.00    +0.000 A 
ENDBRANCH  24  25
ENDBRANCH  23  24
ENDBRANCH  21  23
ENDBRANCH  20  21
ENDBRANCH   4  20
TORSDOF 5
ENDMDL
