MODEL 1
REMARK VINA RESULT:      -7.3      0.000      0.000
REMARK  Name = Nandrolone decanoate
REMARK  12 active torsions:
REMARK  status: ('A' for Active; 'I' for Inactive)
REMARK    1  A    between atoms: C_5  and  O_6
REMARK    2  A    between atoms: O_6  and  C_7
REMARK    3  A    between atoms: C_7  and  C_9
REMARK    4  A    between atoms: C_9  and  C_10
REMARK    5  A    between atoms: C_10  and  C_11
REMARK    6  A    between atoms: C_11  and  C_12
REMARK    7  A    between atoms: C_12  and  C_13
REMARK    8  A    between atoms: C_13  and  C_14
REMARK    9  A    between atoms: C_14  and  C_15
REMARK   10  A    between atoms: C_15  and  C_16
REMARK   11  A    between atoms: C_16  and  C_17
REMARK   12  A    between atoms: C_18  and  C_19
REMARK                            x       y       z     vdW  Elec       q    Type
REMARK                         _______ _______ _______ _____ _____    ______ ____
ROOT
ATOM      1  C   UNL     1      -7.005  -3.014 130.548  0.00  0.00    +0.000 C 
ATOM      2  C   UNL     1      -6.381  -4.294 130.470  0.00  0.00    +0.000 C 
ATOM      3  C   UNL     1      -5.657  -3.320 129.593  0.00  0.00    +0.000 C 
ATOM      4  C   UNL     1      -6.191  -1.334 129.953  0.00  0.00    +0.000 C 
ATOM      5  C   UNL     1      -5.386  -2.122 130.710  0.00  0.00    +0.000 C 
ATOM      6  C   UNL     1      -4.790  -2.103 132.028  0.00  0.00    +0.000 C 
ATOM      7  C   UNL     1      -4.340  -1.679 129.281  0.00  0.00    +0.000 C 
ATOM      8  C   UNL     1      -5.336  -1.512 127.941  0.00  0.00    +0.000 C 
ATOM      9  C   UNL     1      -6.766  -2.404 127.780  0.00  0.00    +0.000 C 
ATOM     10  C   UNL     1      -7.543  -1.969 126.622  0.00  0.00    +0.000 C 
ATOM     11  C   UNL     1      -6.535  -1.792 125.670  0.00  0.00    +0.000 C 
ATOM     12  C   UNL     1      -5.497  -1.187 124.964  0.00  0.00    +0.000 C 
ATOM     13  C   UNL     1      -5.952  -2.497 123.983  0.00  0.00    +0.000 C 
ATOM     14  O   UNL     1      -5.170  -2.803 123.153  0.00  0.00    +0.000 OA
ATOM     15  C   UNL     1      -7.479  -3.510 124.622  0.00  0.00    +0.000 C 
ATOM     16  C   UNL     1      -8.128  -3.207 125.895  0.00  0.00    +0.000 C 
ATOM     17  C   UNL     1      -9.249  -3.607 126.997  0.00  0.00    +0.000 C 
ATOM     18  C   UNL     1      -8.750  -3.785 128.505  0.00  0.00    +0.000 C 
ATOM     19  C   UNL     1      -7.796  -2.675 128.954  0.00  0.00    +0.000 C 
ENDROOT
BRANCH   4  20
ATOM     20  O   UNL     1      -5.369   0.146 130.327  0.00  0.00    +0.000 OA
BRANCH  20  21
ATOM     21  C   UNL     1      -5.853   1.415 130.757  0.00  0.00    +0.000 C 
ATOM     22  O   UNL     1      -5.627   1.852 131.884  0.00  0.00    +0.000 OA
BRANCH  21  23
ATOM     23  C   UNL     1      -6.745   2.317 129.717  0.00  0.00    +0.000 C 
BRANCH  23  24
ATOM     24  C   UNL     1      -7.309   1.571 128.415  0.00  0.00    +0.000 C 
BRANCH  24  25
ATOM     25  C   UNL     1      -6.529   1.835 127.090  0.00  0.00    +0.000 C 
BRANCH  25  26
ATOM     26  C   UNL     1      -7.444   1.851 125.845  0.00  0.00    +0.000 C 
BRANCH  26  27
ATOM     27  C   UNL     1      -8.884   1.461 126.198  0.00  0.00    +0.000 C 
BRANCH  27  28
ATOM     28  C   UNL     1      -9.475   0.529 125.143  0.00  0.00    +0.000 C 
BRANCH  28  29
ATOM     29  C   UNL     1     -10.140   1.332 124.033  0.00  0.00    +0.000 C 
BRANCH  29  30
ATOM     30  C   UNL     1     -10.046   0.592 122.705  0.00  0.00    +0.000 C 
ATOM     31  C   UNL     1      -9.382  -0.758 122.898  0.00  0.00    +0.000 C 
ENDBRANCH  29  30
ENDBRANCH  28  29
ENDBRANCH  27  28
ENDBRANCH  26  27
ENDBRANCH  25  26
ENDBRANCH  24  25
ENDBRANCH  23  24
ENDBRANCH  21  23
ENDBRANCH  20  21
ENDBRANCH   4  20
TORSDOF 10
ENDMDL
MODEL 2
REMARK VINA RESULT:      -7.2      2.531      6.137
REMARK  Name = Nandrolone decanoate
REMARK  12 active torsions:
REMARK  status: ('A' for Active; 'I' for Inactive)
REMARK    1  A    between atoms: C_5  and  O_6
REMARK    2  A    between atoms: O_6  and  C_7
REMARK    3  A    between atoms: C_7  and  C_9
REMARK    4  A    between atoms: C_9  and  C_10
REMARK    5  A    between atoms: C_10  and  C_11
REMARK    6  A    between atoms: C_11  and  C_12
REMARK    7  A    between atoms: C_12  and  C_13
REMARK    8  A    between atoms: C_13  and  C_14
REMARK    9  A    between atoms: C_14  and  C_15
REMARK   10  A    between atoms: C_15  and  C_16
REMARK   11  A    between atoms: C_16  and  C_17
REMARK   12  A    between atoms: C_18  and  C_19
REMARK                            x       y       z     vdW  Elec       q    Type
REMARK                         _______ _______ _______ _____ _____    ______ ____
ROOT
ATOM      1  C   UNL     1      -4.672  -1.915 129.734  0.00  0.00    +0.000 C 
ATOM      2  C   UNL     1      -3.926  -1.861 130.948  0.00  0.00    +0.000 C 
ATOM      3  C   UNL     1      -5.393  -1.842 131.250  0.00  0.00    +0.000 C 
ATOM      4  C   UNL     1      -6.577  -2.357 129.609  0.00  0.00    +0.000 C 
ATOM      5  C   UNL     1      -5.847  -3.190 130.393  0.00  0.00    +0.000 C 
ATOM      6  C   UNL     1      -5.388  -4.562 130.374  0.00  0.00    +0.000 C 
ATOM      7  C   UNL     1      -7.295  -2.779 131.426  0.00  0.00    +0.000 C 
ATOM      8  C   UNL     1      -7.773  -1.215 131.049  0.00  0.00    +0.000 C 
ATOM      9  C   UNL     1      -6.664  -0.046 130.532  0.00  0.00    +0.000 C 
ATOM     10  C   UNL     1      -7.334   1.180 130.106  0.00  0.00    +0.000 C 
ATOM     11  C   UNL     1      -8.313   1.311 131.095  0.00  0.00    +0.000 C 
ATOM     12  C   UNL     1      -9.511   1.118 131.779  0.00  0.00    +0.000 C 
ATOM     13  C   UNL     1      -8.835   2.492 132.514  0.00  0.00    +0.000 C 
ATOM     14  O   UNL     1      -9.295   2.785 133.561  0.00  0.00    +0.000 OA
ATOM     15  C   UNL     1      -7.183   3.122 131.713  0.00  0.00    +0.000 C 
ATOM     16  C   UNL     1      -6.537   2.410 130.613  0.00  0.00    +0.000 C 
ATOM     17  C   UNL     1      -5.266   2.284 129.613  0.00  0.00    +0.000 C 
ATOM     18  C   UNL     1      -4.520   0.872 129.565  0.00  0.00    +0.000 C 
ATOM     19  C   UNL     1      -5.487  -0.314 129.503  0.00  0.00    +0.000 C 
ENDROOT
BRANCH   4  20
ATOM     20  O   UNL     1      -7.827  -3.508 129.266  0.00  0.00    +0.000 OA
BRANCH  20  21
ATOM     21  C   UNL     1      -8.665  -3.684 128.128  0.00  0.00    +0.000 C 
ATOM     22  O   UNL     1      -9.681  -4.376 128.166  0.00  0.00    +0.000 OA
BRANCH  21  23
ATOM     23  C   UNL     1      -8.258  -2.946 126.721  0.00  0.00    +0.000 C 
BRANCH  23  24
ATOM     24  C   UNL     1      -9.343  -2.991 125.542  0.00  0.00    +0.000 C 
BRANCH  24  25
ATOM     25  C   UNL     1      -8.810  -3.437 124.145  0.00  0.00    +0.000 C 
BRANCH  25  26
ATOM     26  C   UNL     1      -8.870  -2.310 123.089  0.00  0.00    +0.000 C 
BRANCH  26  27
ATOM     27  C   UNL     1      -7.613  -1.433 123.128  0.00  0.00    +0.000 C 
BRANCH  27  28
ATOM     28  C   UNL     1      -6.363  -2.252 122.819  0.00  0.00    +0.000 C 
BRANCH  28  29
ATOM     29  C   UNL     1      -5.389  -2.203 123.989  0.00  0.00    +0.000 C 
BRANCH  29  30
ATOM     30  C   UNL     1      -5.083  -3.608 124.492  0.00  0.00    +0.000 C 
ATOM     31  C   UNL     1      -4.311  -4.388 123.445  0.00  0.00    +0.000 C 
ENDBRANCH  29  30
ENDBRANCH  28  29
ENDBRANCH  27  28
ENDBRANCH  26  27
ENDBRANCH  25  26
ENDBRANCH  24  25
ENDBRANCH  23  24
ENDBRANCH  21  23
ENDBRANCH  20  21
ENDBRANCH   4  20
TORSDOF 10
ENDMDL
MODEL 3
REMARK VINA RESULT:      -7.2      1.442      2.998
REMARK  Name = Nandrolone decanoate
REMARK  12 active torsions:
REMARK  status: ('A' for Active; 'I' for Inactive)
REMARK    1  A    between atoms: C_5  and  O_6
REMARK    2  A    between atoms: O_6  and  C_7
REMARK    3  A    between atoms: C_7  and  C_9
REMARK    4  A    between atoms: C_9  and  C_10
REMARK    5  A    between atoms: C_10  and  C_11
REMARK    6  A    between atoms: C_11  and  C_12
REMARK    7  A    between atoms: C_12  and  C_13
REMARK    8  A    between atoms: C_13  and  C_14
REMARK    9  A    between atoms: C_14  and  C_15
REMARK   10  A    between atoms: C_15  and  C_16
REMARK   11  A    between atoms: C_16  and  C_17
REMARK   12  A    between atoms: C_18  and  C_19
REMARK                            x       y       z     vdW  Elec       q    Type
REMARK                         _______ _______ _______ _____ _____    ______ ____
ROOT
ATOM      1  C   UNL     1      -7.075  -2.860 130.476  0.00  0.00    +0.000 C 
ATOM      2  C   UNL     1      -6.411  -4.122 130.457  0.00  0.00    +0.000 C 
ATOM      3  C   UNL     1      -5.714  -3.167 129.538  0.00  0.00    +0.000 C 
ATOM      4  C   UNL     1      -6.311  -1.184 129.807  0.00  0.00    +0.000 C 
ATOM      5  C   UNL     1      -5.485  -1.912 130.601  0.00  0.00    +0.000 C 
ATOM      6  C   UNL     1      -4.895  -1.815 131.918  0.00  0.00    +0.000 C 
ATOM      7  C   UNL     1      -4.448  -1.501 129.156  0.00  0.00    +0.000 C 
ATOM      8  C   UNL     1      -5.443  -1.426 127.808  0.00  0.00    +0.000 C 
ATOM      9  C   UNL     1      -6.844  -2.368 127.683  0.00  0.00    +0.000 C 
ATOM     10  C   UNL     1      -7.630  -2.011 126.504  0.00  0.00    +0.000 C 
ATOM     11  C   UNL     1      -6.624  -1.846 125.548  0.00  0.00    +0.000 C 
ATOM     12  C   UNL     1      -5.603  -1.241 124.818  0.00  0.00    +0.000 C 
ATOM     13  C   UNL     1      -6.013  -2.608 123.896  0.00  0.00    +0.000 C 
ATOM     14  O   UNL     1      -5.218  -2.926 123.083  0.00  0.00    +0.000 OA
ATOM     15  C   UNL     1      -7.510  -3.638 124.576  0.00  0.00    +0.000 C 
ATOM     16  C   UNL     1      -8.174  -3.298 125.833  0.00  0.00    +0.000 C 
ATOM     17  C   UNL     1      -9.285  -3.682 126.950  0.00  0.00    +0.000 C 
ATOM     18  C   UNL     1      -8.787  -3.777 128.465  0.00  0.00    +0.000 C 
ATOM     19  C   UNL     1      -7.870  -2.618 128.866  0.00  0.00    +0.000 C 
ENDROOT
BRANCH   4  20
ATOM     20  O   UNL     1      -5.537   0.336 130.116  0.00  0.00    +0.000 OA
BRANCH  20  21
ATOM     21  C   UNL     1      -6.067   1.626 130.406  0.00  0.00    +0.000 C 
ATOM     22  O   UNL     1      -5.923   2.159 131.505  0.00  0.00    +0.000 OA
BRANCH  21  23
ATOM     23  C   UNL     1      -6.900   2.423 129.239  0.00  0.00    +0.000 C 
BRANCH  23  24
ATOM     24  C   UNL     1      -7.949   1.562 128.386  0.00  0.00    +0.000 C 
BRANCH  24  25
ATOM     25  C   UNL     1      -7.808   1.664 126.835  0.00  0.00    +0.000 C 
BRANCH  25  26
ATOM     26  C   UNL     1      -6.902   2.833 126.388  0.00  0.00    +0.000 C 
BRANCH  26  27
ATOM     27  C   UNL     1      -5.736   2.344 125.521  0.00  0.00    +0.000 C 
BRANCH  27  28
ATOM     28  C   UNL     1      -4.575   1.861 126.386  0.00  0.00    +0.000 C 
BRANCH  28  29
ATOM     29  C   UNL     1      -3.562   2.980 126.595  0.00  0.00    +0.000 C 
BRANCH  29  30
ATOM     30  C   UNL     1      -3.464   3.346 128.070  0.00  0.00    +0.000 C 
ATOM     31  C   UNL     1      -2.662   4.622 128.246  0.00  0.00    +0.000 C 
ENDBRANCH  29  30
ENDBRANCH  28  29
ENDBRANCH  27  28
ENDBRANCH  26  27
ENDBRANCH  25  26
ENDBRANCH  24  25
ENDBRANCH  23  24
ENDBRANCH  21  23
ENDBRANCH  20  21
ENDBRANCH   4  20
TORSDOF 10
ENDMDL
MODEL 4
REMARK VINA RESULT:      -7.2      2.820      6.405
REMARK  Name = Nandrolone decanoate
REMARK  12 active torsions:
REMARK  status: ('A' for Active; 'I' for Inactive)
REMARK    1  A    between atoms: C_5  and  O_6
REMARK    2  A    between atoms: O_6  and  C_7
REMARK    3  A    between atoms: C_7  and  C_9
REMARK    4  A    between atoms: C_9  and  C_10
REMARK    5  A    between atoms: C_10  and  C_11
REMARK    6  A    between atoms: C_11  and  C_12
REMARK    7  A    between atoms: C_12  and  C_13
REMARK    8  A    between atoms: C_13  and  C_14
REMARK    9  A    between atoms: C_14  and  C_15
REMARK   10  A    between atoms: C_15  and  C_16
REMARK   11  A    between atoms: C_16  and  C_17
REMARK   12  A    between atoms: C_18  and  C_19
REMARK                            x       y       z     vdW  Elec       q    Type
REMARK                         _______ _______ _______ _____ _____    ______ ____
ROOT
ATOM      1  C   UNL     1      -7.995  -0.925 123.215  0.00  0.00    +0.000 C 
ATOM      2  C   UNL     1      -8.845  -2.067 123.304  0.00  0.00    +0.000 C 
ATOM      3  C   UNL     1      -9.107  -1.146 124.456  0.00  0.00    +0.000 C 
ATOM      4  C   UNL     1      -8.255   0.744 124.207  0.00  0.00    +0.000 C 
ATOM      5  C   UNL     1      -9.370   0.256 123.606  0.00  0.00    +0.000 C 
ATOM      6  C   UNL     1     -10.247   0.610 122.511  0.00  0.00    +0.000 C 
ATOM      7  C   UNL     1      -9.920   0.626 125.307  0.00  0.00    +0.000 C 
ATOM      8  C   UNL     1      -8.620   0.377 126.338  0.00  0.00    +0.000 C 
ATOM      9  C   UNL     1      -7.423  -0.771 125.998  0.00  0.00    +0.000 C 
ATOM     10  C   UNL     1      -6.315  -0.690 126.947  0.00  0.00    +0.000 C 
ATOM     11  C   UNL     1      -7.002  -0.503 128.149  0.00  0.00    +0.000 C 
ATOM     12  C   UNL     1      -7.682   0.147 129.178  0.00  0.00    +0.000 C 
ATOM     13  C   UNL     1      -7.302  -1.374 129.833  0.00  0.00    +0.000 C 
ATOM     14  O   UNL     1      -7.909  -1.674 130.801  0.00  0.00    +0.000 OA
ATOM     15  C   UNL     1      -6.231  -2.517 128.688  0.00  0.00    +0.000 C 
ATOM     16  C   UNL     1      -5.857  -2.120 127.333  0.00  0.00    +0.000 C 
ATOM     17  C   UNL     1      -5.149  -2.517 125.929  0.00  0.00    +0.000 C 
ATOM     18  C   UNL     1      -6.021  -2.339 124.603  0.00  0.00    +0.000 C 
ATOM     19  C   UNL     1      -6.790  -1.016 124.565  0.00  0.00    +0.000 C 
ENDROOT
BRANCH   4  20
ATOM     20  O   UNL     1      -8.800   2.389 124.250  0.00  0.00    +0.000 OA
BRANCH  20  21
ATOM     21  C   UNL     1      -8.138   3.596 124.618  0.00  0.00    +0.000 C 
ATOM     22  O   UNL     1      -8.637   4.402 125.401  0.00  0.00    +0.000 OA
BRANCH  21  23
ATOM     23  C   UNL     1      -6.667   3.922 123.970  0.00  0.00    +0.000 C 
BRANCH  23  24
ATOM     24  C   UNL     1      -5.398   3.735 124.932  0.00  0.00    +0.000 C 
BRANCH  24  25
ATOM     25  C   UNL     1      -5.486   2.556 125.951  0.00  0.00    +0.000 C 
BRANCH  25  26
ATOM     26  C   UNL     1      -5.672   3.032 127.409  0.00  0.00    +0.000 C 
BRANCH  26  27
ATOM     27  C   UNL     1      -4.692   2.336 128.360  0.00  0.00    +0.000 C 
BRANCH  27  28
ATOM     28  C   UNL     1      -3.767   3.348 129.031  0.00  0.00    +0.000 C 
BRANCH  28  29
ATOM     29  C   UNL     1      -2.882   4.031 127.997  0.00  0.00    +0.000 C 
BRANCH  29  30
ATOM     30  C   UNL     1      -1.936   3.027 127.352  0.00  0.00    +0.000 C 
ATOM     31  C   UNL     1      -1.771   3.329 125.875  0.00  0.00    +0.000 C 
ENDBRANCH  29  30
ENDBRANCH  28  29
ENDBRANCH  27  28
ENDBRANCH  26  27
ENDBRANCH  25  26
ENDBRANCH  24  25
ENDBRANCH  23  24
ENDBRANCH  21  23
ENDBRANCH  20  21
ENDBRANCH   4  20
TORSDOF 10
ENDMDL
MODEL 5
REMARK VINA RESULT:      -7.0      2.260      6.128
REMARK  Name = Nandrolone decanoate
REMARK  12 active torsions:
REMARK  status: ('A' for Active; 'I' for Inactive)
REMARK    1  A    between atoms: C_5  and  O_6
REMARK    2  A    between atoms: O_6  and  C_7
REMARK    3  A    between atoms: C_7  and  C_9
REMARK    4  A    between atoms: C_9  and  C_10
REMARK    5  A    between atoms: C_10  and  C_11
REMARK    6  A    between atoms: C_11  and  C_12
REMARK    7  A    between atoms: C_12  and  C_13
REMARK    8  A    between atoms: C_13  and  C_14
REMARK    9  A    between atoms: C_14  and  C_15
REMARK   10  A    between atoms: C_15  and  C_16
REMARK   11  A    between atoms: C_16  and  C_17
REMARK   12  A    between atoms: C_18  and  C_19
REMARK                            x       y       z     vdW  Elec       q    Type
REMARK                         _______ _______ _______ _____ _____    ______ ____
ROOT
ATOM      1  C   UNL     1      -8.188  -1.438 123.778  0.00  0.00    +0.000 C 
ATOM      2  C   UNL     1      -7.350  -1.487 122.625  0.00  0.00    +0.000 C 
ATOM      3  C   UNL     1      -6.514  -1.301 123.854  0.00  0.00    +0.000 C 
ATOM      4  C   UNL     1      -7.565  -1.652 125.623  0.00  0.00    +0.000 C 
ATOM      5  C   UNL     1      -7.090  -2.575 124.749  0.00  0.00    +0.000 C 
ATOM      6  C   UNL     1      -7.238  -3.991 124.490  0.00  0.00    +0.000 C 
ATOM      7  C   UNL     1      -5.599  -2.011 125.638  0.00  0.00    +0.000 C 
ATOM      8  C   UNL     1      -5.816  -0.398 126.044  0.00  0.00    +0.000 C 
ATOM      9  C   UNL     1      -6.754   0.640 125.091  0.00  0.00    +0.000 C 
ATOM     10  C   UNL     1      -6.934   1.942 125.730  0.00  0.00    +0.000 C 
ATOM     11  C   UNL     1      -5.652   2.173 126.236  0.00  0.00    +0.000 C 
ATOM     12  C   UNL     1      -4.557   2.113 127.097  0.00  0.00    +0.000 C 
ATOM     13  C   UNL     1      -4.180   3.389 126.041  0.00  0.00    +0.000 C 
ATOM     14  O   UNL     1      -3.046   3.720 126.031  0.00  0.00    +0.000 OA
ATOM     15  C   UNL     1      -5.568   3.832 124.760  0.00  0.00    +0.000 C 
ATOM     16  C   UNL     1      -6.807   3.063 124.666  0.00  0.00    +0.000 C 
ATOM     17  C   UNL     1      -8.210   2.803 123.896  0.00  0.00    +0.000 C 
ATOM     18  C   UNL     1      -8.492   1.314 123.389  0.00  0.00    +0.000 C 
ATOM     19  C   UNL     1      -8.144   0.250 124.434  0.00  0.00    +0.000 C 
ENDROOT
BRANCH   4  20
ATOM     20  O   UNL     1      -7.370  -2.646 127.031  0.00  0.00    +0.000 OA
BRANCH  20  21
ATOM     21  C   UNL     1      -8.320  -3.302 127.866  0.00  0.00    +0.000 C 
ATOM     22  O   UNL     1      -9.303  -3.880 127.406  0.00  0.00    +0.000 OA
BRANCH  21  23
ATOM     23  C   UNL     1      -8.098  -3.278 129.491  0.00  0.00    +0.000 C 
BRANCH  23  24
ATOM     24  C   UNL     1      -6.667  -3.758 130.031  0.00  0.00    +0.000 C 
BRANCH  24  25
ATOM     25  C   UNL     1      -5.734  -2.630 130.573  0.00  0.00    +0.000 C 
BRANCH  25  26
ATOM     26  C   UNL     1      -4.972  -1.888 129.452  0.00  0.00    +0.000 C 
BRANCH  26  27
ATOM     27  C   UNL     1      -5.123  -0.368 129.578  0.00  0.00    +0.000 C 
BRANCH  27  28
ATOM     28  C   UNL     1      -6.490   0.003 130.147  0.00  0.00    +0.000 C 
BRANCH  28  29
ATOM     29  C   UNL     1      -7.480   0.278 129.022  0.00  0.00    +0.000 C 
BRANCH  29  30
ATOM     30  C   UNL     1      -8.186   1.610 129.242  0.00  0.00    +0.000 C 
ATOM     31  C   UNL     1      -7.224   2.628 129.825  0.00  0.00    +0.000 C 
ENDBRANCH  29  30
ENDBRANCH  28  29
ENDBRANCH  27  28
ENDBRANCH  26  27
ENDBRANCH  25  26
ENDBRANCH  24  25
ENDBRANCH  23  24
ENDBRANCH  21  23
ENDBRANCH  20  21
ENDBRANCH   4  20
TORSDOF 10
ENDMDL
MODEL 6
REMARK VINA RESULT:      -6.9      5.031      9.282
REMARK  Name = Nandrolone decanoate
REMARK  12 active torsions:
REMARK  status: ('A' for Active; 'I' for Inactive)
REMARK    1  A    between atoms: C_5  and  O_6
REMARK    2  A    between atoms: O_6  and  C_7
REMARK    3  A    between atoms: C_7  and  C_9
REMARK    4  A    between atoms: C_9  and  C_10
REMARK    5  A    between atoms: C_10  and  C_11
REMARK    6  A    between atoms: C_11  and  C_12
REMARK    7  A    between atoms: C_12  and  C_13
REMARK    8  A    between atoms: C_13  and  C_14
REMARK    9  A    between atoms: C_14  and  C_15
REMARK   10  A    between atoms: C_15  and  C_16
REMARK   11  A    between atoms: C_16  and  C_17
REMARK   12  A    between atoms: C_18  and  C_19
REMARK                            x       y       z     vdW  Elec       q    Type
REMARK                         _______ _______ _______ _____ _____    ______ ____
ROOT
ATOM      1  C   UNL     1      -4.226   4.410 127.812  0.00  0.00    +0.000 C 
ATOM      2  C   UNL     1      -2.873   3.971 127.923  0.00  0.00    +0.000 C 
ATOM      3  C   UNL     1      -3.579   3.783 129.231  0.00  0.00    +0.000 C 
ATOM      4  C   UNL     1      -5.653   3.970 129.080  0.00  0.00    +0.000 C 
ATOM      5  C   UNL     1      -4.889   2.917 128.692  0.00  0.00    +0.000 C 
ATOM      6  C   UNL     1      -5.032   1.714 127.901  0.00  0.00    +0.000 C 
ATOM      7  C   UNL     1      -4.941   2.768 130.510  0.00  0.00    +0.000 C 
ATOM      8  C   UNL     1      -5.033   4.314 131.155  0.00  0.00    +0.000 C 
ATOM      9  C   UNL     1      -4.342   5.646 130.372  0.00  0.00    +0.000 C 
ATOM     10  C   UNL     1      -4.693   6.901 131.033  0.00  0.00    +0.000 C 
ATOM     11  C   UNL     1      -4.568   6.541 132.378  0.00  0.00    +0.000 C 
ATOM     12  C   UNL     1      -4.896   6.011 133.624  0.00  0.00    +0.000 C 
ATOM     13  C   UNL     1      -3.525   6.965 133.932  0.00  0.00    +0.000 C 
ATOM     14  O   UNL     1      -2.979   6.753 134.958  0.00  0.00    +0.000 OA
ATOM     15  C   UNL     1      -2.859   7.962 132.406  0.00  0.00    +0.000 C 
ATOM     16  C   UNL     1      -3.452   7.829 131.078  0.00  0.00    +0.000 C 
ATOM     17  C   UNL     1      -3.401   8.212 129.503  0.00  0.00    +0.000 C 
ATOM     18  C   UNL     1      -3.396   6.999 128.463  0.00  0.00    +0.000 C 
ATOM     19  C   UNL     1      -4.415   5.910 128.810  0.00  0.00    +0.000 C 
ENDROOT
BRANCH   4  20
ATOM     20  O   UNL     1      -7.039   3.017 129.501  0.00  0.00    +0.000 OA
BRANCH  20  21
ATOM     21  C   UNL     1      -8.427   3.197 129.235  0.00  0.00    +0.000 C 
ATOM     22  O   UNL     1      -9.034   2.496 128.428  0.00  0.00    +0.000 OA
BRANCH  21  23
ATOM     23  C   UNL     1      -9.239   4.382 130.027  0.00  0.00    +0.000 C 
BRANCH  23  24
ATOM     24  C   UNL     1      -8.542   5.825 130.078  0.00  0.00    +0.000 C 
BRANCH  24  25
ATOM     25  C   UNL     1      -8.210   6.368 131.503  0.00  0.00    +0.000 C 
BRANCH  25  26
ATOM     26  C   UNL     1      -9.210   5.887 132.579  0.00  0.00    +0.000 C 
BRANCH  26  27
ATOM     27  C   UNL     1      -8.514   5.628 133.920  0.00  0.00    +0.000 C 
BRANCH  27  28
ATOM     28  C   UNL     1      -8.060   4.175 134.030  0.00  0.00    +0.000 C 
BRANCH  28  29
ATOM     29  C   UNL     1      -9.149   3.234 133.529  0.00  0.00    +0.000 C 
BRANCH  29  30
ATOM     30  C   UNL     1      -8.538   2.055 132.784  0.00  0.00    +0.000 C 
ATOM     31  C   UNL     1      -9.613   1.283 132.044  0.00  0.00    +0.000 C 
ENDBRANCH  29  30
ENDBRANCH  28  29
ENDBRANCH  27  28
ENDBRANCH  26  27
ENDBRANCH  25  26
ENDBRANCH  24  25
ENDBRANCH  23  24
ENDBRANCH  21  23
ENDBRANCH  20  21
ENDBRANCH   4  20
TORSDOF 10
ENDMDL
MODEL 7
REMARK VINA RESULT:      -6.8      2.108      4.608
REMARK  Name = Nandrolone decanoate
REMARK  12 active torsions:
REMARK  status: ('A' for Active; 'I' for Inactive)
REMARK    1  A    between atoms: C_5  and  O_6
REMARK    2  A    between atoms: O_6  and  C_7
REMARK    3  A    between atoms: C_7  and  C_9
REMARK    4  A    between atoms: C_9  and  C_10
REMARK    5  A    between atoms: C_10  and  C_11
REMARK    6  A    between atoms: C_11  and  C_12
REMARK    7  A    between atoms: C_12  and  C_13
REMARK    8  A    between atoms: C_13  and  C_14
REMARK    9  A    between atoms: C_14  and  C_15
REMARK   10  A    between atoms: C_15  and  C_16
REMARK   11  A    between atoms: C_16  and  C_17
REMARK   12  A    between atoms: C_18  and  C_19
REMARK                            x       y       z     vdW  Elec       q    Type
REMARK                         _______ _______ _______ _____ _____    ______ ____
ROOT
ATOM      1  C   UNL     1      -6.472  -3.534 130.678  0.00  0.00    +0.000 C 
ATOM      2  C   UNL     1      -5.961  -4.838 130.406  0.00  0.00    +0.000 C 
ATOM      3  C   UNL     1      -5.272  -3.829 129.539  0.00  0.00    +0.000 C 
ATOM      4  C   UNL     1      -5.609  -1.859 130.143  0.00  0.00    +0.000 C 
ATOM      5  C   UNL     1      -4.783  -2.769 130.720  0.00  0.00    +0.000 C 
ATOM      6  C   UNL     1      -4.037  -2.921 131.949  0.00  0.00    +0.000 C 
ATOM      7  C   UNL     1      -3.880  -2.252 129.219  0.00  0.00    +0.000 C 
ATOM      8  C   UNL     1      -5.010  -1.888 128.034  0.00  0.00    +0.000 C 
ATOM      9  C   UNL     1      -6.512  -2.666 127.968  0.00  0.00    +0.000 C 
ATOM     10  C   UNL     1      -7.384  -2.068 126.960  0.00  0.00    +0.000 C 
ATOM     11  C   UNL     1      -6.483  -1.862 125.912  0.00  0.00    +0.000 C 
ATOM     12  C   UNL     1      -5.492  -1.256 125.141  0.00  0.00    +0.000 C 
ATOM     13  C   UNL     1      -6.156  -2.430 124.108  0.00  0.00    +0.000 C 
ATOM     14  O   UNL     1      -5.502  -2.701 123.163  0.00  0.00    +0.000 OA
ATOM     15  C   UNL     1      -7.671  -3.401 124.834  0.00  0.00    +0.000 C 
ATOM     16  C   UNL     1      -8.142  -3.187 126.201  0.00  0.00    +0.000 C 
ATOM     17  C   UNL     1      -9.154  -3.622 127.391  0.00  0.00    +0.000 C 
ATOM     18  C   UNL     1      -8.497  -3.983 128.803  0.00  0.00    +0.000 C 
ATOM     19  C   UNL     1      -7.416  -2.987 129.231  0.00  0.00    +0.000 C 
ENDROOT
BRANCH   4  20
ATOM     20  O   UNL     1      -4.638  -0.480 130.548  0.00  0.00    +0.000 OA
BRANCH  20  21
ATOM     21  C   UNL     1      -4.796   0.906 130.257  0.00  0.00    +0.000 C 
ATOM     22  O   UNL     1      -3.886   1.581 129.780  0.00  0.00    +0.000 OA
BRANCH  21  23
ATOM     23  C   UNL     1      -6.236   1.625 130.576  0.00  0.00    +0.000 C 
BRANCH  23  24
ATOM     24  C   UNL     1      -7.516   1.049 129.802  0.00  0.00    +0.000 C 
BRANCH  24  25
ATOM     25  C   UNL     1      -8.519   0.226 130.669  0.00  0.00    +0.000 C 
BRANCH  25  26
ATOM     26  C   UNL     1      -8.180   0.257 132.176  0.00  0.00    +0.000 C 
BRANCH  26  27
ATOM     27  C   UNL     1      -7.896  -1.148 132.720  0.00  0.00    +0.000 C 
BRANCH  27  28
ATOM     28  C   UNL     1      -6.672  -1.145 133.632  0.00  0.00    +0.000 C 
BRANCH  28  29
ATOM     29  C   UNL     1      -6.737  -2.307 134.616  0.00  0.00    +0.000 C 
BRANCH  29  30
ATOM     30  C   UNL     1      -7.450  -3.499 133.993  0.00  0.00    +0.000 C 
ATOM     31  C   UNL     1      -6.750  -4.791 134.371  0.00  0.00    +0.000 C 
ENDBRANCH  29  30
ENDBRANCH  28  29
ENDBRANCH  27  28
ENDBRANCH  26  27
ENDBRANCH  25  26
ENDBRANCH  24  25
ENDBRANCH  23  24
ENDBRANCH  21  23
ENDBRANCH  20  21
ENDBRANCH   4  20
TORSDOF 10
ENDMDL
MODEL 8
REMARK VINA RESULT:      -6.8      2.523      5.992
REMARK  Name = Nandrolone decanoate
REMARK  12 active torsions:
REMARK  status: ('A' for Active; 'I' for Inactive)
REMARK    1  A    between atoms: C_5  and  O_6
REMARK    2  A    between atoms: O_6  and  C_7
REMARK    3  A    between atoms: C_7  and  C_9
REMARK    4  A    between atoms: C_9  and  C_10
REMARK    5  A    between atoms: C_10  and  C_11
REMARK    6  A    between atoms: C_11  and  C_12
REMARK    7  A    between atoms: C_12  and  C_13
REMARK    8  A    between atoms: C_13  and  C_14
REMARK    9  A    between atoms: C_14  and  C_15
REMARK   10  A    between atoms: C_15  and  C_16
REMARK   11  A    between atoms: C_16  and  C_17
REMARK   12  A    between atoms: C_18  and  C_19
REMARK                            x       y       z     vdW  Elec       q    Type
REMARK                         _______ _______ _______ _____ _____    ______ ____
ROOT
ATOM      1  C   UNL     1      -8.456  -2.415 123.474  0.00  0.00    +0.000 C 
ATOM      2  C   UNL     1      -7.824  -2.519 122.199  0.00  0.00    +0.000 C 
ATOM      3  C   UNL     1      -6.966  -1.718 123.130  0.00  0.00    +0.000 C 
ATOM      4  C   UNL     1      -7.560  -1.865 125.126  0.00  0.00    +0.000 C 
ATOM      5  C   UNL     1      -6.890  -2.792 124.395  0.00  0.00    +0.000 C 
ATOM      6  C   UNL     1      -6.524  -4.187 124.498  0.00  0.00    +0.000 C 
ATOM      7  C   UNL     1      -5.621  -1.534 124.767  0.00  0.00    +0.000 C 
ATOM      8  C   UNL     1      -6.378  -0.039 124.843  0.00  0.00    +0.000 C 
ATOM      9  C   UNL     1      -7.757   0.306 123.924  0.00  0.00    +0.000 C 
ATOM     10  C   UNL     1      -8.331   1.602 124.280  0.00  0.00    +0.000 C 
ATOM     11  C   UNL     1      -7.177   2.380 124.414  0.00  0.00    +0.000 C 
ATOM     12  C   UNL     1      -6.038   2.938 124.991  0.00  0.00    +0.000 C 
ATOM     13  C   UNL     1      -6.317   3.900 123.619  0.00  0.00    +0.000 C 
ATOM     14  O   UNL     1      -5.406   4.568 123.275  0.00  0.00    +0.000 OA
ATOM     15  C   UNL     1      -7.927   3.467 122.626  0.00  0.00    +0.000 C 
ATOM     16  C   UNL     1      -8.782   2.341 122.994  0.00  0.00    +0.000 C 
ATOM     17  C   UNL     1     -10.070   1.420 122.645  0.00  0.00    +0.000 C 
ATOM     18  C   UNL     1      -9.831  -0.158 122.562  0.00  0.00    +0.000 C 
ATOM     19  C   UNL     1      -8.970  -0.693 123.708  0.00  0.00    +0.000 C 
ENDROOT
BRANCH   4  20
ATOM     20  O   UNL     1      -6.816  -2.282 126.636  0.00  0.00    +0.000 OA
BRANCH  20  21
ATOM     21  C   UNL     1      -7.268  -2.152 127.981  0.00  0.00    +0.000 C 
ATOM     22  O   UNL     1      -8.175  -2.847 128.436  0.00  0.00    +0.000 OA
BRANCH  21  23
ATOM     23  C   UNL     1      -6.559  -1.035 128.952  0.00  0.00    +0.000 C 
BRANCH  23  24
ATOM     24  C   UNL     1      -6.654   0.494 128.480  0.00  0.00    +0.000 C 
BRANCH  24  25
ATOM     25  C   UNL     1      -8.061   0.972 128.004  0.00  0.00    +0.000 C 
BRANCH  25  26
ATOM     26  C   UNL     1      -8.223   2.508 128.048  0.00  0.00    +0.000 C 
BRANCH  26  27
ATOM     27  C   UNL     1      -8.192   3.038 129.486  0.00  0.00    +0.000 C 
BRANCH  27  28
ATOM     28  C   UNL     1      -9.511   2.757 130.202  0.00  0.00    +0.000 C 
BRANCH  28  29
ATOM     29  C   UNL     1      -9.282   2.599 131.700  0.00  0.00    +0.000 C 
BRANCH  29  30
ATOM     30  C   UNL     1      -8.359   1.421 131.981  0.00  0.00    +0.000 C 
ATOM     31  C   UNL     1      -9.043   0.116 131.618  0.00  0.00    +0.000 C 
ENDBRANCH  29  30
ENDBRANCH  28  29
ENDBRANCH  27  28
ENDBRANCH  26  27
ENDBRANCH  25  26
ENDBRANCH  24  25
ENDBRANCH  23  24
ENDBRANCH  21  23
ENDBRANCH  20  21
ENDBRANCH   4  20
TORSDOF 10
ENDMDL
MODEL 9
REMARK VINA RESULT:      -6.8      3.924      4.770
REMARK  Name = Nandrolone decanoate
REMARK  12 active torsions:
REMARK  status: ('A' for Active; 'I' for Inactive)
REMARK    1  A    between atoms: C_5  and  O_6
REMARK    2  A    between atoms: O_6  and  C_7
REMARK    3  A    between atoms: C_7  and  C_9
REMARK    4  A    between atoms: C_9  and  C_10
REMARK    5  A    between atoms: C_10  and  C_11
REMARK    6  A    between atoms: C_11  and  C_12
REMARK    7  A    between atoms: C_12  and  C_13
REMARK    8  A    between atoms: C_13  and  C_14
REMARK    9  A    between atoms: C_14  and  C_15
REMARK   10  A    between atoms: C_15  and  C_16
REMARK   11  A    between atoms: C_16  and  C_17
REMARK   12  A    between atoms: C_18  and  C_19
REMARK                            x       y       z     vdW  Elec       q    Type
REMARK                         _______ _______ _______ _____ _____    ______ ____
ROOT
ATOM      1  C   UNL     1      -6.641  -1.637 130.101  0.00  0.00    +0.000 C 
ATOM      2  C   UNL     1      -5.463  -2.399 129.844  0.00  0.00    +0.000 C 
ATOM      3  C   UNL     1      -5.677  -1.404 128.745  0.00  0.00    +0.000 C 
ATOM      4  C   UNL     1      -7.098   0.051 129.218  0.00  0.00    +0.000 C 
ATOM      5  C   UNL     1      -5.820  -0.031 129.668  0.00  0.00    +0.000 C 
ATOM      6  C   UNL     1      -4.999   0.571 130.695  0.00  0.00    +0.000 C 
ATOM      7  C   UNL     1      -5.639   0.570 127.954  0.00  0.00    +0.000 C 
ATOM      8  C   UNL     1      -6.883  -0.086 127.040  0.00  0.00    +0.000 C 
ATOM      9  C   UNL     1      -7.555  -1.595 127.407  0.00  0.00    +0.000 C 
ATOM     10  C   UNL     1      -8.726  -1.878 126.580  0.00  0.00    +0.000 C 
ATOM     11  C   UNL     1      -8.295  -1.417 125.334  0.00  0.00    +0.000 C 
ATOM     12  C   UNL     1      -8.011  -0.531 124.296  0.00  0.00    +0.000 C 
ATOM     13  C   UNL     1      -7.912  -2.063 123.568  0.00  0.00    +0.000 C 
ATOM     14  O   UNL     1      -7.357  -2.093 122.525  0.00  0.00    +0.000 OA
ATOM     15  C   UNL     1      -8.373  -3.552 124.722  0.00  0.00    +0.000 C 
ATOM     16  C   UNL     1      -8.700  -3.363 126.134  0.00  0.00    +0.000 C 
ATOM     17  C   UNL     1      -9.054  -4.035 127.566  0.00  0.00    +0.000 C 
ATOM     18  C   UNL     1      -8.147  -3.608 128.811  0.00  0.00    +0.000 C 
ATOM     19  C   UNL     1      -7.890  -2.100 128.873  0.00  0.00    +0.000 C 
ENDROOT
BRANCH   4  20
ATOM     20  O   UNL     1      -7.169   1.783 129.245  0.00  0.00    +0.000 OA
BRANCH  20  21
ATOM     21  C   UNL     1      -8.271   2.685 129.194  0.00  0.00    +0.000 C 
ATOM     22  O   UNL     1      -8.599   3.256 128.156  0.00  0.00    +0.000 OA
BRANCH  21  23
ATOM     23  C   UNL     1      -9.123   2.976 130.565  0.00  0.00    +0.000 C 
BRANCH  23  24
ATOM     24  C   UNL     1     -10.480   3.815 130.407  0.00  0.00    +0.000 C 
BRANCH  24  25
ATOM     25  C   UNL     1     -10.355   5.356 130.622  0.00  0.00    +0.000 C 
BRANCH  25  26
ATOM     26  C   UNL     1     -10.147   6.132 129.303  0.00  0.00    +0.000 C 
BRANCH  26  27
ATOM     27  C   UNL     1     -10.067   7.644 129.544  0.00  0.00    +0.000 C 
BRANCH  27  28
ATOM     28  C   UNL     1     -10.644   8.420 128.363  0.00  0.00    +0.000 C 
BRANCH  28  29
ATOM     29  C   UNL     1     -12.153   8.227 128.283  0.00  0.00    +0.000 C 
BRANCH  29  30
ATOM     30  C   UNL     1     -12.821   8.678 129.576  0.00  0.00    +0.000 C 
ATOM     31  C   UNL     1     -13.158  10.155 129.510  0.00  0.00    +0.000 C 
ENDBRANCH  29  30
ENDBRANCH  28  29
ENDBRANCH  27  28
ENDBRANCH  26  27
ENDBRANCH  25  26
ENDBRANCH  24  25
ENDBRANCH  23  24
ENDBRANCH  21  23
ENDBRANCH  20  21
ENDBRANCH   4  20
TORSDOF 10
ENDMDL
