MODEL 1
REMARK VINA RESULT:      -7.0      0.000      0.000
REMARK  Name = Naphazoline
REMARK  2 active torsions:
REMARK  status: ('A' for Active; 'I' for Inactive)
REMARK    1  A    between atoms: C_1  and  C_2
REMARK    2  A    between atoms: C_1  and  C_7
REMARK                            x       y       z     vdW  Elec       q    Type
REMARK                         _______ _______ _______ _____ _____    ______ ____
ROOT
ATOM      1  C   UNL     1      -7.511   3.346 122.041  0.00  0.00    +0.000 A 
ATOM      2  C   UNL     1      -6.646   3.287 123.149  0.00  0.00    +0.000 A 
ATOM      3  C   UNL     1      -5.411   3.922 123.145  0.00  0.00    +0.000 A 
ATOM      4  C   UNL     1      -4.988   4.592 122.008  0.00  0.00    +0.000 A 
ATOM      5  C   UNL     1      -5.782   4.617 120.855  0.00  0.00    +0.000 A 
ATOM      6  C   UNL     1      -5.303   5.244 119.696  0.00  0.00    +0.000 A 
ATOM      7  C   UNL     1      -6.063   5.277 118.530  0.00  0.00    +0.000 A 
ATOM      8  C   UNL     1      -7.319   4.686 118.511  0.00  0.00    +0.000 A 
ATOM      9  C   UNL     1      -7.814   4.062 119.658  0.00  0.00    +0.000 A 
ATOM     10  C   UNL     1      -7.065   4.000 120.856  0.00  0.00    +0.000 A 
ENDROOT
BRANCH   1  11
ATOM     11  C   UNL     1      -8.897   2.714 122.107  0.00  0.00    +0.000 C 
BRANCH  11  12
ATOM     12  C   UNL     1      -9.122   1.749 123.252  0.00  0.00    +0.000 C 
ATOM     13  N   UNL     1      -8.672   0.517 123.204  0.00  0.00    +0.000 NA
ATOM     14  C   UNL     1      -9.051  -0.050 124.533  0.00  0.00    +0.000 C 
ATOM     15  C   UNL     1      -9.342   1.156 125.430  0.00  0.00    +0.000 C 
ATOM     16  N   UNL     1      -9.747   2.112 124.426  0.00  0.00    +0.000 N 
ATOM     17  H   UNL     1      -9.826   3.093 124.669  0.00  0.00    +0.000 HD
ENDBRANCH  11  12
ENDBRANCH   1  11
TORSDOF 2
ENDMDL
MODEL 2
REMARK VINA RESULT:      -6.7      8.913     10.588
REMARK  Name = Naphazoline
REMARK  2 active torsions:
REMARK  status: ('A' for Active; 'I' for Inactive)
REMARK    1  A    between atoms: C_1  and  C_2
REMARK    2  A    between atoms: C_1  and  C_7
REMARK                            x       y       z     vdW  Elec       q    Type
REMARK                         _______ _______ _______ _____ _____    ______ ____
ROOT
ATOM      1  C   UNL     1      -9.766   7.128 130.432  0.00  0.00    +0.000 A 
ATOM      2  C   UNL     1     -10.953   6.669 131.031  0.00  0.00    +0.000 A 
ATOM      3  C   UNL     1     -10.947   6.009 132.252  0.00  0.00    +0.000 A 
ATOM      4  C   UNL     1      -9.741   5.745 132.883  0.00  0.00    +0.000 A 
ATOM      5  C   UNL     1      -8.529   6.117 132.292  0.00  0.00    +0.000 A 
ATOM      6  C   UNL     1      -7.320   5.779 132.918  0.00  0.00    +0.000 A 
ATOM      7  C   UNL     1      -6.096   6.124 132.351  0.00  0.00    +0.000 A 
ATOM      8  C   UNL     1      -6.066   6.820 131.150  0.00  0.00    +0.000 A 
ATOM      9  C   UNL     1      -7.261   7.169 130.515  0.00  0.00    +0.000 A 
ATOM     10  C   UNL     1      -8.521   6.825 131.057  0.00  0.00    +0.000 A 
ENDROOT
BRANCH   1  11
ATOM     11  C   UNL     1      -9.811   7.928 129.135  0.00  0.00    +0.000 C 
BRANCH  11  12
ATOM     12  C   UNL     1     -11.134   7.903 128.398  0.00  0.00    +0.000 C 
ATOM     13  N   UNL     1     -11.504   6.859 127.695  0.00  0.00    +0.000 NA
ATOM     14  C   UNL     1     -12.866   7.228 127.203  0.00  0.00    +0.000 C 
ATOM     15  C   UNL     1     -13.332   8.379 128.098  0.00  0.00    +0.000 C 
ATOM     16  N   UNL     1     -12.049   8.932 128.467  0.00  0.00    +0.000 N 
ATOM     17  H   UNL     1     -11.990   9.604 129.224  0.00  0.00    +0.000 HD
ENDBRANCH  11  12
ENDBRANCH   1  11
TORSDOF 2
ENDMDL
MODEL 3
REMARK VINA RESULT:      -6.5      8.043     10.195
REMARK  Name = Naphazoline
REMARK  2 active torsions:
REMARK  status: ('A' for Active; 'I' for Inactive)
REMARK    1  A    between atoms: C_1  and  C_2
REMARK    2  A    between atoms: C_1  and  C_7
REMARK                            x       y       z     vdW  Elec       q    Type
REMARK                         _______ _______ _______ _____ _____    ______ ____
ROOT
ATOM      1  C   UNL     1     -10.725   6.752 130.792  0.00  0.00    +0.000 A 
ATOM      2  C   UNL     1     -11.742   6.961 131.740  0.00  0.00    +0.000 A 
ATOM      3  C   UNL     1     -13.045   7.254 131.362  0.00  0.00    +0.000 A 
ATOM      4  C   UNL     1     -13.352   7.395 130.017  0.00  0.00    +0.000 A 
ATOM      5  C   UNL     1     -12.360   7.269 129.039  0.00  0.00    +0.000 A 
ATOM      6  C   UNL     1     -12.683   7.483 127.691  0.00  0.00    +0.000 A 
ATOM      7  C   UNL     1     -11.716   7.376 126.695  0.00  0.00    +0.000 A 
ATOM      8  C   UNL     1     -10.411   7.045 127.035  0.00  0.00    +0.000 A 
ATOM      9  C   UNL     1     -10.074   6.823 128.372  0.00  0.00    +0.000 A 
ATOM     10  C   UNL     1     -11.027   6.935 129.411  0.00  0.00    +0.000 A 
ENDROOT
BRANCH   1  11
ATOM     11  C   UNL     1      -9.324   6.344 131.235  0.00  0.00    +0.000 C 
BRANCH  11  12
ATOM     12  C   UNL     1      -9.262   5.272 132.303  0.00  0.00    +0.000 C 
ATOM     13  N   UNL     1      -9.379   4.001 132.001  0.00  0.00    +0.000 NA
ATOM     14  C   UNL     1      -9.202   3.308 133.313  0.00  0.00    +0.000 C 
ATOM     15  C   UNL     1      -8.537   4.333 134.236  0.00  0.00    +0.000 C 
ATOM     16  N   UNL     1      -9.021   5.552 133.632  0.00  0.00    +0.000 N 
ATOM     17  H   UNL     1      -8.606   6.441 133.889  0.00  0.00    +0.000 HD
ENDBRANCH  11  12
ENDBRANCH   1  11
TORSDOF 2
ENDMDL
MODEL 4
REMARK VINA RESULT:      -6.4      1.440      2.215
REMARK  Name = Naphazoline
REMARK  2 active torsions:
REMARK  status: ('A' for Active; 'I' for Inactive)
REMARK    1  A    between atoms: C_1  and  C_2
REMARK    2  A    between atoms: C_1  and  C_7
REMARK                            x       y       z     vdW  Elec       q    Type
REMARK                         _______ _______ _______ _____ _____    ______ ____
ROOT
ATOM      1  C   UNL     1      -7.636   2.836 123.672  0.00  0.00    +0.000 A 
ATOM      2  C   UNL     1      -7.141   2.921 124.986  0.00  0.00    +0.000 A 
ATOM      3  C   UNL     1      -5.983   3.624 125.286  0.00  0.00    +0.000 A 
ATOM      4  C   UNL     1      -5.260   4.221 124.265  0.00  0.00    +0.000 A 
ATOM      5  C   UNL     1      -5.672   4.104 122.933  0.00  0.00    +0.000 A 
ATOM      6  C   UNL     1      -4.887   4.660 121.912  0.00  0.00    +0.000 A 
ATOM      7  C   UNL     1      -5.262   4.551 120.576  0.00  0.00    +0.000 A 
ATOM      8  C   UNL     1      -6.437   3.888 120.244  0.00  0.00    +0.000 A 
ATOM      9  C   UNL     1      -7.233   3.333 121.248  0.00  0.00    +0.000 A 
ATOM     10  C   UNL     1      -6.875   3.415 122.614  0.00  0.00    +0.000 A 
ENDROOT
BRANCH   1  11
ATOM     11  C   UNL     1      -8.958   2.132 123.385  0.00  0.00    +0.000 C 
BRANCH  11  12
ATOM     12  C   UNL     1      -8.884   0.623 123.282  0.00  0.00    +0.000 C 
ATOM     13  N   UNL     1      -9.902  -0.082 122.846  0.00  0.00    +0.000 NA
ATOM     14  C   UNL     1      -9.388  -1.484 122.848  0.00  0.00    +0.000 C 
ATOM     15  C   UNL     1      -7.862  -1.366 122.902  0.00  0.00    +0.000 C 
ATOM     16  N   UNL     1      -7.743  -0.093 123.574  0.00  0.00    +0.000 N 
ATOM     17  H   UNL     1      -6.847   0.380 123.598  0.00  0.00    +0.000 HD
ENDBRANCH  11  12
ENDBRANCH   1  11
TORSDOF 2
ENDMDL
MODEL 5
REMARK VINA RESULT:      -6.3      2.948      7.696
REMARK  Name = Naphazoline
REMARK  2 active torsions:
REMARK  status: ('A' for Active; 'I' for Inactive)
REMARK    1  A    between atoms: C_1  and  C_2
REMARK    2  A    between atoms: C_1  and  C_7
REMARK                            x       y       z     vdW  Elec       q    Type
REMARK                         _______ _______ _______ _____ _____    ______ ____
ROOT
ATOM      1  C   UNL     1      -7.643  -1.436 124.301  0.00  0.00    +0.000 A 
ATOM      2  C   UNL     1      -8.257  -2.040 123.190  0.00  0.00    +0.000 A 
ATOM      3  C   UNL     1      -9.154  -3.091 123.332  0.00  0.00    +0.000 A 
ATOM      4  C   UNL     1      -9.420  -3.598 124.594  0.00  0.00    +0.000 A 
ATOM      5  C   UNL     1      -8.778  -3.079 125.724  0.00  0.00    +0.000 A 
ATOM      6  C   UNL     1      -9.014  -3.654 126.982  0.00  0.00    +0.000 A 
ATOM      7  C   UNL     1      -8.383  -3.168 128.124  0.00  0.00    +0.000 A 
ATOM      8  C   UNL     1      -7.510  -2.092 128.023  0.00  0.00    +0.000 A 
ATOM      9  C   UNL     1      -7.268  -1.504 126.779  0.00  0.00    +0.000 A 
ATOM     10  C   UNL     1      -7.883  -1.980 125.597  0.00  0.00    +0.000 A 
ENDROOT
BRANCH   1  11
ATOM     11  C   UNL     1      -6.731  -0.227 124.121  0.00  0.00    +0.000 C 
BRANCH  11  12
ATOM     12  C   UNL     1      -7.423   1.059 123.720  0.00  0.00    +0.000 C 
ATOM     13  N   UNL     1      -6.863   1.905 122.887  0.00  0.00    +0.000 NA
ATOM     14  C   UNL     1      -7.892   2.975 122.726  0.00  0.00    +0.000 C 
ATOM     15  C   UNL     1      -9.209   2.362 123.210  0.00  0.00    +0.000 C 
ATOM     16  N   UNL     1      -8.692   1.391 124.147  0.00  0.00    +0.000 N 
ATOM     17  H   UNL     1      -9.303   0.668 124.510  0.00  0.00    +0.000 HD
ENDBRANCH  11  12
ENDBRANCH   1  11
TORSDOF 2
ENDMDL
MODEL 6
REMARK VINA RESULT:      -6.2      7.024      9.049
REMARK  Name = Naphazoline
REMARK  2 active torsions:
REMARK  status: ('A' for Active; 'I' for Inactive)
REMARK    1  A    between atoms: C_1  and  C_2
REMARK    2  A    between atoms: C_1  and  C_7
REMARK                            x       y       z     vdW  Elec       q    Type
REMARK                         _______ _______ _______ _____ _____    ______ ____
ROOT
ATOM      1  C   UNL     1      -6.678  -2.382 127.528  0.00  0.00    +0.000 A 
ATOM      2  C   UNL     1      -7.401  -2.819 128.652  0.00  0.00    +0.000 A 
ATOM      3  C   UNL     1      -8.594  -3.519 128.526  0.00  0.00    +0.000 A 
ATOM      4  C   UNL     1      -9.120  -3.755 127.266  0.00  0.00    +0.000 A 
ATOM      5  C   UNL     1      -8.475  -3.277 126.120  0.00  0.00    +0.000 A 
ATOM      6  C   UNL     1      -9.062  -3.472 124.861  0.00  0.00    +0.000 A 
ATOM      7  C   UNL     1      -8.452  -2.999 123.702  0.00  0.00    +0.000 A 
ATOM      8  C   UNL     1      -7.238  -2.329 123.789  0.00  0.00    +0.000 A 
ATOM      9  C   UNL     1      -6.637  -2.132 125.034  0.00  0.00    +0.000 A 
ATOM     10  C   UNL     1      -7.235  -2.588 126.232  0.00  0.00    +0.000 A 
ENDROOT
BRANCH   1  11
ATOM     11  C   UNL     1      -5.328  -1.693 127.695  0.00  0.00    +0.000 C 
BRANCH  11  12
ATOM     12  C   UNL     1      -4.536  -2.097 128.921  0.00  0.00    +0.000 C 
ATOM     13  N   UNL     1      -4.428  -1.300 129.957  0.00  0.00    +0.000 NA
ATOM     14  C   UNL     1      -3.635  -2.100 130.938  0.00  0.00    +0.000 C 
ATOM     15  C   UNL     1      -3.735  -3.553 130.465  0.00  0.00    +0.000 C 
ATOM     16  N   UNL     1      -3.938  -3.333 129.052  0.00  0.00    +0.000 N 
ATOM     17  H   UNL     1      -4.239  -4.101 128.462  0.00  0.00    +0.000 HD
ENDBRANCH  11  12
ENDBRANCH   1  11
TORSDOF 2
ENDMDL
MODEL 7
REMARK VINA RESULT:      -6.2      7.635      9.447
REMARK  Name = Naphazoline
REMARK  2 active torsions:
REMARK  status: ('A' for Active; 'I' for Inactive)
REMARK    1  A    between atoms: C_1  and  C_2
REMARK    2  A    between atoms: C_1  and  C_7
REMARK                            x       y       z     vdW  Elec       q    Type
REMARK                         _______ _______ _______ _____ _____    ______ ____
ROOT
ATOM      1  C   UNL     1     -10.182   6.446 130.417  0.00  0.00    +0.000 A 
ATOM      2  C   UNL     1     -10.703   6.413 131.722  0.00  0.00    +0.000 A 
ATOM      3  C   UNL     1     -12.015   6.776 131.995  0.00  0.00    +0.000 A 
ATOM      4  C   UNL     1     -12.827   7.232 130.968  0.00  0.00    +0.000 A 
ATOM      5  C   UNL     1     -12.332   7.352 129.664  0.00  0.00    +0.000 A 
ATOM      6  C   UNL     1     -13.153   7.880 128.656  0.00  0.00    +0.000 A 
ATOM      7  C   UNL     1     -12.687   8.023 127.352  0.00  0.00    +0.000 A 
ATOM      8  C   UNL     1     -11.393   7.632 127.037  0.00  0.00    +0.000 A 
ATOM      9  C   UNL     1     -10.564   7.100 128.027  0.00  0.00    +0.000 A 
ATOM     10  C   UNL     1     -11.000   6.951 129.364  0.00  0.00    +0.000 A 
ENDROOT
BRANCH   1  11
ATOM     11  C   UNL     1      -8.765   5.957 130.135  0.00  0.00    +0.000 C 
BRANCH  11  12
ATOM     12  C   UNL     1      -8.610   4.458 129.983  0.00  0.00    +0.000 C 
ATOM     13  N   UNL     1      -8.924   3.850 128.863  0.00  0.00    +0.000 NA
ATOM     14  C   UNL     1      -8.564   2.424 129.123  0.00  0.00    +0.000 C 
ATOM     15  C   UNL     1      -7.620   2.447 130.327  0.00  0.00    +0.000 C 
ATOM     16  N   UNL     1      -8.078   3.656 130.971  0.00  0.00    +0.000 N 
ATOM     17  H   UNL     1      -7.525   4.073 131.711  0.00  0.00    +0.000 HD
ENDBRANCH  11  12
ENDBRANCH   1  11
TORSDOF 2
ENDMDL
MODEL 8
REMARK VINA RESULT:      -6.1      5.161      8.448
REMARK  Name = Naphazoline
REMARK  2 active torsions:
REMARK  status: ('A' for Active; 'I' for Inactive)
REMARK    1  A    between atoms: C_1  and  C_2
REMARK    2  A    between atoms: C_1  and  C_7
REMARK                            x       y       z     vdW  Elec       q    Type
REMARK                         _______ _______ _______ _____ _____    ______ ____
ROOT
ATOM      1  C   UNL     1      -6.541  -1.999 125.318  0.00  0.00    +0.000 A 
ATOM      2  C   UNL     1      -7.048  -2.311 124.043  0.00  0.00    +0.000 A 
ATOM      3  C   UNL     1      -8.234  -3.013 123.881  0.00  0.00    +0.000 A 
ATOM      4  C   UNL     1      -8.920  -3.467 124.996  0.00  0.00    +0.000 A 
ATOM      5  C   UNL     1      -8.419  -3.245 126.284  0.00  0.00    +0.000 A 
ATOM      6  C   UNL     1      -9.097  -3.773 127.393  0.00  0.00    +0.000 A 
ATOM      7  C   UNL     1      -8.618  -3.580 128.686  0.00  0.00    +0.000 A 
ATOM      8  C   UNL     1      -7.456  -2.848 128.887  0.00  0.00    +0.000 A 
ATOM      9  C   UNL     1      -6.771  -2.311 127.794  0.00  0.00    +0.000 A 
ATOM     10  C   UNL     1      -7.222  -2.497 126.467  0.00  0.00    +0.000 A 
ENDROOT
BRANCH   1  11
ATOM     11  C   UNL     1      -5.283  -1.150 125.465  0.00  0.00    +0.000 C 
BRANCH  11  12
ATOM     12  C   UNL     1      -5.515   0.310 125.793  0.00  0.00    +0.000 C 
ATOM     13  N   UNL     1      -6.633   0.913 125.466  0.00  0.00    +0.000 NA
ATOM     14  C   UNL     1      -6.467   2.291 126.020  0.00  0.00    +0.000 C 
ATOM     15  C   UNL     1      -5.339   2.190 127.050  0.00  0.00    +0.000 C 
ATOM     16  N   UNL     1      -4.608   1.072 126.499  0.00  0.00    +0.000 N 
ATOM     17  H   UNL     1      -3.895   0.614 127.056  0.00  0.00    +0.000 HD
ENDBRANCH  11  12
ENDBRANCH   1  11
TORSDOF 2
ENDMDL
MODEL 9
REMARK VINA RESULT:      -6.1      6.387      7.961
REMARK  Name = Naphazoline
REMARK  2 active torsions:
REMARK  status: ('A' for Active; 'I' for Inactive)
REMARK    1  A    between atoms: C_1  and  C_2
REMARK    2  A    between atoms: C_1  and  C_7
REMARK                            x       y       z     vdW  Elec       q    Type
REMARK                         _______ _______ _______ _____ _____    ______ ____
ROOT
ATOM      1  C   UNL     1      -7.429  -2.515 126.938  0.00  0.00    +0.000 A 
ATOM      2  C   UNL     1      -6.219  -1.859 127.223  0.00  0.00    +0.000 A 
ATOM      3  C   UNL     1      -5.507  -1.180 126.243  0.00  0.00    +0.000 A 
ATOM      4  C   UNL     1      -5.966  -1.185 124.935  0.00  0.00    +0.000 A 
ATOM      5  C   UNL     1      -7.126  -1.885 124.587  0.00  0.00    +0.000 A 
ATOM      6  C   UNL     1      -7.533  -1.931 123.246  0.00  0.00    +0.000 A 
ATOM      7  C   UNL     1      -8.677  -2.628 122.864  0.00  0.00    +0.000 A 
ATOM      8  C   UNL     1      -9.434  -3.284 123.825  0.00  0.00    +0.000 A 
ATOM      9  C   UNL     1      -9.046  -3.245 125.167  0.00  0.00    +0.000 A 
ATOM     10  C   UNL     1      -7.885  -2.557 125.587  0.00  0.00    +0.000 A 
ENDROOT
BRANCH   1  11
ATOM     11  C   UNL     1      -8.234  -3.176 128.051  0.00  0.00    +0.000 C 
BRANCH  11  12
ATOM     12  C   UNL     1      -7.633  -3.078 129.438  0.00  0.00    +0.000 C 
ATOM     13  N   UNL     1      -6.765  -3.962 129.870  0.00  0.00    +0.000 NA
ATOM     14  C   UNL     1      -6.395  -3.460 131.227  0.00  0.00    +0.000 C 
ATOM     15  C   UNL     1      -6.826  -1.991 131.258  0.00  0.00    +0.000 C 
ATOM     16  N   UNL     1      -7.906  -2.037 130.300  0.00  0.00    +0.000 N 
ATOM     17  H   UNL     1      -8.292  -1.173 129.936  0.00  0.00    +0.000 HD
ENDBRANCH  11  12
ENDBRANCH   1  11
TORSDOF 2
ENDMDL
