MODEL 1
REMARK VINA RESULT:      -7.1      0.000      0.000
REMARK  Name = Naratriptan
REMARK  7 active torsions:
REMARK  status: ('A' for Active; 'I' for Inactive)
REMARK    1  A    between atoms: C_1  and  N_2
REMARK    2  A    between atoms: N_2  and  S_3
REMARK    3  A    between atoms: S_3  and  C_6
REMARK    4  A    between atoms: C_6  and  C_7
REMARK    5  A    between atoms: C_7  and  C_8
REMARK    6  A    between atoms: C_14  and  C_15
REMARK    7  A    between atoms: N_18  and  C_19
REMARK                            x       y       z     vdW  Elec       q    Type
REMARK                         _______ _______ _______ _____ _____    ______ ____
ROOT
ATOM      1  C   UNL     1      -8.937   6.750 131.188  0.00  0.00    +0.000 A 
ATOM      2  C   UNL     1      -7.556   6.900 131.240  0.00  0.00    +0.000 A 
ATOM      3  C   UNL     1      -6.667   6.169 132.057  0.00  0.00    +0.000 A 
ATOM      4  C   UNL     1      -7.278   5.491 133.101  0.00  0.00    +0.000 A 
ATOM      5  N   UNL     1      -6.261   4.895 133.809  0.00  0.00    +0.000 N 
ATOM      6  C   UNL     1      -5.065   5.015 133.135  0.00  0.00    +0.000 A 
ATOM      7  C   UNL     1      -5.256   5.791 132.000  0.00  0.00    +0.000 A 
ATOM      8  C   UNL     1      -8.683   5.512 133.268  0.00  0.00    +0.000 A 
ATOM      9  C   UNL     1      -9.498   6.101 132.266  0.00  0.00    +0.000 A 
ATOM     10  H   UNL     1      -6.392   4.345 134.645  0.00  0.00    +0.000 HD
ENDROOT
BRANCH   7  11
ATOM     11  C   UNL     1      -4.234   5.855 130.832  0.00  0.00    +0.000 C 
ATOM     12  C   UNL     1      -2.871   5.170 130.959  0.00  0.00    +0.000 C 
ATOM     13  C   UNL     1      -2.029   5.787 132.051  0.00  0.00    +0.000 C 
ATOM     14  N   UNL     1      -1.858   7.242 131.865  0.00  0.00    +0.000 NA
ATOM     15  C   UNL     1      -1.111   7.776 133.013  0.00  0.00    +0.000 C 
ATOM     16  C   UNL     1      -3.081   7.994 131.502  0.00  0.00    +0.000 C 
ATOM     17  C   UNL     1      -3.980   7.329 130.453  0.00  0.00    +0.000 C 
ENDBRANCH   7  11
BRANCH   1  18
ATOM     18  C   UNL     1      -9.700   7.292 129.990  0.00  0.00    +0.000 C 
BRANCH  18  19
ATOM     19  C   UNL     1     -10.001   6.291 128.846  0.00  0.00    +0.000 C 
BRANCH  19  20
ATOM     20  S   UNL     1     -10.771   7.202 127.482  0.00  0.00    +0.000 S 
ATOM     21  O   UNL     1     -10.280   6.647 126.228  0.00  0.00    +0.000 OA
ATOM     22  O   UNL     1     -10.681   8.608 127.763  0.00  0.00    +0.000 OA
BRANCH  20  24
ATOM     23  C   UNL     1     -13.255   7.911 128.039  0.00  0.00    +0.000 C 
ATOM     24  N   UNL     1     -12.416   6.788 127.530  0.00  0.00    +0.000 NA
ATOM     25  H   UNL     1     -12.761   6.491 126.615  0.00  0.00    +0.000 HD
ENDBRANCH  20  24
ENDBRANCH  19  20
ENDBRANCH  18  19
ENDBRANCH   1  18
TORSDOF 5
ENDMDL
MODEL 2
REMARK VINA RESULT:      -7.1      1.378      2.097
REMARK  Name = Naratriptan
REMARK  7 active torsions:
REMARK  status: ('A' for Active; 'I' for Inactive)
REMARK    1  A    between atoms: C_1  and  N_2
REMARK    2  A    between atoms: N_2  and  S_3
REMARK    3  A    between atoms: S_3  and  C_6
REMARK    4  A    between atoms: C_6  and  C_7
REMARK    5  A    between atoms: C_7  and  C_8
REMARK    6  A    between atoms: C_14  and  C_15
REMARK    7  A    between atoms: N_18  and  C_19
REMARK                            x       y       z     vdW  Elec       q    Type
REMARK                         _______ _______ _______ _____ _____    ______ ____
ROOT
ATOM      1  C   UNL     1      -8.233   6.296 131.044  0.00  0.00    +0.000 A 
ATOM      2  C   UNL     1      -7.065   6.846 131.558  0.00  0.00    +0.000 A 
ATOM      3  C   UNL     1      -5.939   6.132 132.023  0.00  0.00    +0.000 A 
ATOM      4  C   UNL     1      -6.178   4.789 132.272  0.00  0.00    +0.000 A 
ATOM      5  N   UNL     1      -4.998   4.283 132.764  0.00  0.00    +0.000 N 
ATOM      6  C   UNL     1      -3.986   5.210 132.648  0.00  0.00    +0.000 A 
ATOM      7  C   UNL     1      -4.508   6.399 132.160  0.00  0.00    +0.000 A 
ATOM      8  C   UNL     1      -7.443   4.209 132.018  0.00  0.00    +0.000 A 
ATOM      9  C   UNL     1      -8.440   4.968 131.350  0.00  0.00    +0.000 A 
ATOM     10  H   UNL     1      -4.866   3.327 133.060  0.00  0.00    +0.000 HD
ENDROOT
BRANCH   7  11
ATOM     11  C   UNL     1      -3.628   7.540 131.581  0.00  0.00    +0.000 C 
ATOM     12  C   UNL     1      -3.958   8.158 130.220  0.00  0.00    +0.000 C 
ATOM     13  C   UNL     1      -3.823   7.155 129.098  0.00  0.00    +0.000 C 
ATOM     14  N   UNL     1      -2.485   6.533 129.069  0.00  0.00    +0.000 NA
ATOM     15  C   UNL     1      -2.468   5.509 128.014  0.00  0.00    +0.000 C 
ATOM     16  C   UNL     1      -1.946   6.100 130.378  0.00  0.00    +0.000 C 
ATOM     17  C   UNL     1      -2.156   7.080 131.538  0.00  0.00    +0.000 C 
ENDBRANCH   7  11
BRANCH   1  18
ATOM     18  C   UNL     1      -9.163   7.164 130.214  0.00  0.00    +0.000 C 
BRANCH  18  19
ATOM     19  C   UNL     1     -10.367   6.454 129.546  0.00  0.00    +0.000 C 
BRANCH  19  20
ATOM     20  S   UNL     1     -10.626   7.190 127.911  0.00  0.00    +0.000 S 
ATOM     21  O   UNL     1      -9.800   6.471 126.951  0.00  0.00    +0.000 OA
ATOM     22  O   UNL     1     -10.554   8.620 128.036  0.00  0.00    +0.000 OA
BRANCH  20  24
ATOM     23  C   UNL     1     -13.105   6.704 128.686  0.00  0.00    +0.000 C 
ATOM     24  N   UNL     1     -12.224   6.807 127.486  0.00  0.00    +0.000 NA
ATOM     25  H   UNL     1     -12.617   7.484 126.830  0.00  0.00    +0.000 HD
ENDBRANCH  20  24
ENDBRANCH  19  20
ENDBRANCH  18  19
ENDBRANCH   1  18
TORSDOF 5
ENDMDL
MODEL 3
REMARK VINA RESULT:      -6.9      8.069      9.439
REMARK  Name = Naratriptan
REMARK  7 active torsions:
REMARK  status: ('A' for Active; 'I' for Inactive)
REMARK    1  A    between atoms: C_1  and  N_2
REMARK    2  A    between atoms: N_2  and  S_3
REMARK    3  A    between atoms: S_3  and  C_6
REMARK    4  A    between atoms: C_6  and  C_7
REMARK    5  A    between atoms: C_7  and  C_8
REMARK    6  A    between atoms: C_14  and  C_15
REMARK    7  A    between atoms: N_18  and  C_19
REMARK                            x       y       z     vdW  Elec       q    Type
REMARK                         _______ _______ _______ _____ _____    ______ ____
ROOT
ATOM      1  C   UNL     1      -8.263  -1.307 124.285  0.00  0.00    +0.000 A 
ATOM      2  C   UNL     1      -8.139  -1.056 125.646  0.00  0.00    +0.000 A 
ATOM      3  C   UNL     1      -8.313  -1.993 126.688  0.00  0.00    +0.000 A 
ATOM      4  C   UNL     1      -8.971  -3.153 126.307  0.00  0.00    +0.000 A 
ATOM      5  N   UNL     1      -9.096  -3.907 127.451  0.00  0.00    +0.000 N 
ATOM      6  C   UNL     1      -8.373  -3.348 128.482  0.00  0.00    +0.000 A 
ATOM      7  C   UNL     1      -7.828  -2.144 128.059  0.00  0.00    +0.000 A 
ATOM      8  C   UNL     1      -9.370  -3.365 124.966  0.00  0.00    +0.000 A 
ATOM      9  C   UNL     1      -8.955  -2.453 123.960  0.00  0.00    +0.000 A 
ATOM     10  H   UNL     1      -9.556  -4.804 127.497  0.00  0.00    +0.000 HD
ENDROOT
BRANCH   7  11
ATOM     11  C   UNL     1      -6.688  -1.413 128.819  0.00  0.00    +0.000 C 
ATOM     12  C   UNL     1      -6.439  -1.699 130.301  0.00  0.00    +0.000 C 
ATOM     13  C   UNL     1      -7.609  -1.282 131.161  0.00  0.00    +0.000 C 
ATOM     14  N   UNL     1      -7.963   0.138 130.964  0.00  0.00    +0.000 NA
ATOM     15  C   UNL     1      -9.161   0.436 131.761  0.00  0.00    +0.000 C 
ATOM     16  C   UNL     1      -8.006   0.603 129.559  0.00  0.00    +0.000 C 
ATOM     17  C   UNL     1      -6.864   0.112 128.663  0.00  0.00    +0.000 C 
ENDBRANCH   7  11
BRANCH   1  18
ATOM     18  C   UNL     1      -7.649  -0.336 123.290  0.00  0.00    +0.000 C 
BRANCH  18  19
ATOM     19  C   UNL     1      -7.361   1.097 123.803  0.00  0.00    +0.000 C 
BRANCH  19  20
ATOM     20  S   UNL     1      -8.853   2.097 123.565  0.00  0.00    +0.000 S 
ATOM     21  O   UNL     1      -9.316   2.545 124.872  0.00  0.00    +0.000 OA
ATOM     22  O   UNL     1      -9.728   1.405 122.659  0.00  0.00    +0.000 OA
BRANCH  20  24
ATOM     23  C   UNL     1      -6.976   3.343 122.185  0.00  0.00    +0.000 C 
ATOM     24  N   UNL     1      -8.335   3.509 122.777  0.00  0.00    +0.000 NA
ATOM     25  H   UNL     1      -8.991   3.803 122.052  0.00  0.00    +0.000 HD
ENDBRANCH  20  24
ENDBRANCH  19  20
ENDBRANCH  18  19
ENDBRANCH   1  18
TORSDOF 5
ENDMDL
MODEL 4
REMARK VINA RESULT:      -6.8      3.137      7.448
REMARK  Name = Naratriptan
REMARK  7 active torsions:
REMARK  status: ('A' for Active; 'I' for Inactive)
REMARK    1  A    between atoms: C_1  and  N_2
REMARK    2  A    between atoms: N_2  and  S_3
REMARK    3  A    between atoms: S_3  and  C_6
REMARK    4  A    between atoms: C_6  and  C_7
REMARK    5  A    between atoms: C_7  and  C_8
REMARK    6  A    between atoms: C_14  and  C_15
REMARK    7  A    between atoms: N_18  and  C_19
REMARK                            x       y       z     vdW  Elec       q    Type
REMARK                         _______ _______ _______ _____ _____    ______ ____
ROOT
ATOM      1  C   UNL     1      -7.058   5.086 131.700  0.00  0.00    +0.000 A 
ATOM      2  C   UNL     1      -8.040   5.647 130.894  0.00  0.00    +0.000 A 
ATOM      3  C   UNL     1      -9.344   5.144 130.692  0.00  0.00    +0.000 A 
ATOM      4  C   UNL     1      -9.512   3.824 131.083  0.00  0.00    +0.000 A 
ATOM      5  N   UNL     1     -10.809   3.499 130.760  0.00  0.00    +0.000 N 
ATOM      6  C   UNL     1     -11.506   4.619 130.364  0.00  0.00    +0.000 A 
ATOM      7  C   UNL     1     -10.642   5.705 130.323  0.00  0.00    +0.000 A 
ATOM      8  C   UNL     1      -8.457   3.094 131.679  0.00  0.00    +0.000 A 
ATOM      9  C   UNL     1      -7.255   3.763 132.031  0.00  0.00    +0.000 A 
ATOM     10  H   UNL     1     -11.223   2.590 130.905  0.00  0.00    +0.000 HD
ENDROOT
BRANCH   7  11
ATOM     11  C   UNL     1     -11.131   7.178 130.258  0.00  0.00    +0.000 C 
ATOM     12  C   UNL     1     -12.600   7.493 129.970  0.00  0.00    +0.000 C 
ATOM     13  C   UNL     1     -13.015   7.040 128.590  0.00  0.00    +0.000 C 
ATOM     14  N   UNL     1     -12.151   7.609 127.537  0.00  0.00    +0.000 NA
ATOM     15  C   UNL     1     -12.561   7.047 126.241  0.00  0.00    +0.000 C 
ATOM     16  C   UNL     1     -10.696   7.576 127.808  0.00  0.00    +0.000 C 
ATOM     17  C   UNL     1     -10.279   7.955 129.233  0.00  0.00    +0.000 C 
ENDBRANCH   7  11
BRANCH   1  18
ATOM     18  C   UNL     1      -5.881   5.939 132.143  0.00  0.00    +0.000 C 
BRANCH  18  19
ATOM     19  C   UNL     1      -4.508   5.619 131.499  0.00  0.00    +0.000 C 
BRANCH  19  20
ATOM     20  S   UNL     1      -4.395   6.515 129.927  0.00  0.00    +0.000 S 
ATOM     21  O   UNL     1      -4.990   7.832 130.110  0.00  0.00    +0.000 OA
ATOM     22  O   UNL     1      -4.825   5.641 128.871  0.00  0.00    +0.000 OA
BRANCH  20  24
ATOM     23  C   UNL     1      -2.365   6.715 128.249  0.00  0.00    +0.000 C 
ATOM     24  N   UNL     1      -2.741   6.810 129.689  0.00  0.00    +0.000 NA
ATOM     25  H   UNL     1      -2.460   7.721 130.057  0.00  0.00    +0.000 HD
ENDBRANCH  20  24
ENDBRANCH  19  20
ENDBRANCH  18  19
ENDBRANCH   1  18
TORSDOF 5
ENDMDL
MODEL 5
REMARK VINA RESULT:      -6.8      9.354     11.284
REMARK  Name = Naratriptan
REMARK  7 active torsions:
REMARK  status: ('A' for Active; 'I' for Inactive)
REMARK    1  A    between atoms: C_1  and  N_2
REMARK    2  A    between atoms: N_2  and  S_3
REMARK    3  A    between atoms: S_3  and  C_6
REMARK    4  A    between atoms: C_6  and  C_7
REMARK    5  A    between atoms: C_7  and  C_8
REMARK    6  A    between atoms: C_14  and  C_15
REMARK    7  A    between atoms: N_18  and  C_19
REMARK                            x       y       z     vdW  Elec       q    Type
REMARK                         _______ _______ _______ _____ _____    ______ ____
ROOT
ATOM      1  C   UNL     1      -7.023  -2.649 129.128  0.00  0.00    +0.000 A 
ATOM      2  C   UNL     1      -6.514  -2.491 127.844  0.00  0.00    +0.000 A 
ATOM      3  C   UNL     1      -7.231  -2.640 126.637  0.00  0.00    +0.000 A 
ATOM      4  C   UNL     1      -8.439  -3.308 126.771  0.00  0.00    +0.000 A 
ATOM      5  N   UNL     1      -8.956  -3.406 125.500  0.00  0.00    +0.000 N 
ATOM      6  C   UNL     1      -8.213  -2.657 124.614  0.00  0.00    +0.000 A 
ATOM      7  C   UNL     1      -7.116  -2.121 125.275  0.00  0.00    +0.000 A 
ATOM      8  C   UNL     1      -8.903  -3.741 128.035  0.00  0.00    +0.000 A 
ATOM      9  C   UNL     1      -8.206  -3.350 129.208  0.00  0.00    +0.000 A 
ATOM     10  H   UNL     1      -9.824  -3.866 125.270  0.00  0.00    +0.000 HD
ENDROOT
BRANCH   7  11
ATOM     11  C   UNL     1      -6.259  -0.962 124.699  0.00  0.00    +0.000 C 
ATOM     12  C   UNL     1      -6.082   0.336 125.490  0.00  0.00    +0.000 C 
ATOM     13  C   UNL     1      -7.391   1.070 125.671  0.00  0.00    +0.000 C 
ATOM     14  N   UNL     1      -8.057   1.341 124.382  0.00  0.00    +0.000 NA
ATOM     15  C   UNL     1      -9.359   1.968 124.651  0.00  0.00    +0.000 C 
ATOM     16  C   UNL     1      -8.086   0.214 123.421  0.00  0.00    +0.000 C 
ATOM     17  C   UNL     1      -6.783  -0.584 123.298  0.00  0.00    +0.000 C 
ENDBRANCH   7  11
BRANCH   1  18
ATOM     18  C   UNL     1      -6.266  -2.059 130.307  0.00  0.00    +0.000 C 
BRANCH  18  19
ATOM     19  C   UNL     1      -5.041  -2.859 130.818  0.00  0.00    +0.000 C 
BRANCH  19  20
ATOM     20  S   UNL     1      -3.585  -1.783 130.735  0.00  0.00    +0.000 S 
ATOM     21  O   UNL     1      -2.865  -1.894 131.997  0.00  0.00    +0.000 OA
ATOM     22  O   UNL     1      -3.988  -0.507 130.215  0.00  0.00    +0.000 OA
BRANCH  20  24
ATOM     23  C   UNL     1      -3.123  -3.767 129.052  0.00  0.00    +0.000 C 
ATOM     24  N   UNL     1      -2.560  -2.492 129.582  0.00  0.00    +0.000 NA
ATOM     25  H   UNL     1      -2.362  -1.857 128.807  0.00  0.00    +0.000 HD
ENDBRANCH  20  24
ENDBRANCH  19  20
ENDBRANCH  18  19
ENDBRANCH   1  18
TORSDOF 5
ENDMDL
MODEL 6
REMARK VINA RESULT:      -6.7      7.712     10.346
REMARK  Name = Naratriptan
REMARK  7 active torsions:
REMARK  status: ('A' for Active; 'I' for Inactive)
REMARK    1  A    between atoms: C_1  and  N_2
REMARK    2  A    between atoms: N_2  and  S_3
REMARK    3  A    between atoms: S_3  and  C_6
REMARK    4  A    between atoms: C_6  and  C_7
REMARK    5  A    between atoms: C_7  and  C_8
REMARK    6  A    between atoms: C_14  and  C_15
REMARK    7  A    between atoms: N_18  and  C_19
REMARK                            x       y       z     vdW  Elec       q    Type
REMARK                         _______ _______ _______ _____ _____    ______ ____
ROOT
ATOM      1  C   UNL     1      -6.036   2.535 125.617  0.00  0.00    +0.000 A 
ATOM      2  C   UNL     1      -6.657   1.315 125.381  0.00  0.00    +0.000 A 
ATOM      3  C   UNL     1      -7.775   1.094 124.549  0.00  0.00    +0.000 A 
ATOM      4  C   UNL     1      -8.476   2.244 124.218  0.00  0.00    +0.000 A 
ATOM      5  N   UNL     1      -9.547   1.828 123.463  0.00  0.00    +0.000 N 
ATOM      6  C   UNL     1      -9.431   0.491 123.151  0.00  0.00    +0.000 A 
ATOM      7  C   UNL     1      -8.314  -0.032 123.787  0.00  0.00    +0.000 A 
ATOM      8  C   UNL     1      -8.043   3.519 124.653  0.00  0.00    +0.000 A 
ATOM      9  C   UNL     1      -6.788   3.647 125.305  0.00  0.00    +0.000 A 
ATOM     10  H   UNL     1     -10.257   2.441 123.091  0.00  0.00    +0.000 HD
ENDROOT
BRANCH   7  11
ATOM     11  C   UNL     1      -7.676  -1.395 123.403  0.00  0.00    +0.000 C 
ATOM     12  C   UNL     1      -8.554  -2.637 123.227  0.00  0.00    +0.000 C 
ATOM     13  C   UNL     1      -9.227  -3.040 124.519  0.00  0.00    +0.000 C 
ATOM     14  N   UNL     1      -8.254  -3.248 125.609  0.00  0.00    +0.000 NA
ATOM     15  C   UNL     1      -8.993  -3.544 126.845  0.00  0.00    +0.000 C 
ATOM     16  C   UNL     1      -7.197  -2.220 125.736  0.00  0.00    +0.000 C 
ATOM     17  C   UNL     1      -6.570  -1.748 124.419  0.00  0.00    +0.000 C 
ENDBRANCH   7  11
BRANCH   1  18
ATOM     18  C   UNL     1      -4.625   2.556 126.183  0.00  0.00    +0.000 C 
BRANCH  18  19
ATOM     19  C   UNL     1      -3.813   3.860 125.979  0.00  0.00    +0.000 C 
BRANCH  19  20
ATOM     20  S   UNL     1      -3.892   4.825 127.511  0.00  0.00    +0.000 S 
ATOM     21  O   UNL     1      -4.217   3.918 128.604  0.00  0.00    +0.000 OA
ATOM     22  O   UNL     1      -4.668   6.008 127.266  0.00  0.00    +0.000 OA
BRANCH  20  24
ATOM     23  C   UNL     1      -2.254   6.473 128.768  0.00  0.00    +0.000 C 
ATOM     24  N   UNL     1      -2.300   5.326 127.816  0.00  0.00    +0.000 NA
ATOM     25  H   UNL     1      -1.722   4.563 128.173  0.00  0.00    +0.000 HD
ENDBRANCH  20  24
ENDBRANCH  19  20
ENDBRANCH  18  19
ENDBRANCH   1  18
TORSDOF 5
ENDMDL
MODEL 7
REMARK VINA RESULT:      -6.6      8.273      9.531
REMARK  Name = Naratriptan
REMARK  7 active torsions:
REMARK  status: ('A' for Active; 'I' for Inactive)
REMARK    1  A    between atoms: C_1  and  N_2
REMARK    2  A    between atoms: N_2  and  S_3
REMARK    3  A    between atoms: S_3  and  C_6
REMARK    4  A    between atoms: C_6  and  C_7
REMARK    5  A    between atoms: C_7  and  C_8
REMARK    6  A    between atoms: C_14  and  C_15
REMARK    7  A    between atoms: N_18  and  C_19
REMARK                            x       y       z     vdW  Elec       q    Type
REMARK                         _______ _______ _______ _____ _____    ______ ____
ROOT
ATOM      1  C   UNL     1      -7.923  -1.114 124.580  0.00  0.00    +0.000 A 
ATOM      2  C   UNL     1      -8.127  -0.958 125.945  0.00  0.00    +0.000 A 
ATOM      3  C   UNL     1      -8.343  -1.993 126.881  0.00  0.00    +0.000 A 
ATOM      4  C   UNL     1      -8.694  -3.210 126.315  0.00  0.00    +0.000 A 
ATOM      5  N   UNL     1      -8.917  -4.064 127.370  0.00  0.00    +0.000 N 
ATOM      6  C   UNL     1      -8.530  -3.481 128.557  0.00  0.00    +0.000 A 
ATOM      7  C   UNL     1      -8.131  -2.174 128.316  0.00  0.00    +0.000 A 
ATOM      8  C   UNL     1      -8.767  -3.373 124.912  0.00  0.00    +0.000 A 
ATOM      9  C   UNL     1      -8.321  -2.327 124.061  0.00  0.00    +0.000 A 
ATOM     10  H   UNL     1      -9.212  -5.025 127.274  0.00  0.00    +0.000 HD
ENDROOT
BRANCH   7  11
ATOM     11  C   UNL     1      -7.318  -1.332 129.336  0.00  0.00    +0.000 C 
ATOM     12  C   UNL     1      -6.023  -0.637 128.908  0.00  0.00    +0.000 C 
ATOM     13  C   UNL     1      -4.956  -1.628 128.507  0.00  0.00    +0.000 C 
ATOM     14  N   UNL     1      -4.682  -2.610 129.575  0.00  0.00    +0.000 NA
ATOM     15  C   UNL     1      -3.707  -3.588 129.072  0.00  0.00    +0.000 C 
ATOM     16  C   UNL     1      -5.872  -3.189 130.239  0.00  0.00    +0.000 C 
ATOM     17  C   UNL     1      -6.993  -2.197 130.572  0.00  0.00    +0.000 C 
ENDBRANCH   7  11
BRANCH   1  18
ATOM     18  C   UNL     1      -7.300   0.021 123.785  0.00  0.00    +0.000 C 
BRANCH  18  19
ATOM     19  C   UNL     1      -7.206   1.397 124.493  0.00  0.00    +0.000 C 
BRANCH  19  20
ATOM     20  S   UNL     1      -8.646   2.384 124.009  0.00  0.00    +0.000 S 
ATOM     21  O   UNL     1      -9.743   2.064 124.913  0.00  0.00    +0.000 OA
ATOM     22  O   UNL     1      -8.803   2.296 122.584  0.00  0.00    +0.000 OA
BRANCH  20  24
ATOM     23  C   UNL     1      -6.847   4.104 124.895  0.00  0.00    +0.000 C 
ATOM     24  N   UNL     1      -8.238   3.992 124.368  0.00  0.00    +0.000 NA
ATOM     25  H   UNL     1      -8.347   4.603 123.557  0.00  0.00    +0.000 HD
ENDBRANCH  20  24
ENDBRANCH  19  20
ENDBRANCH  18  19
ENDBRANCH   1  18
TORSDOF 5
ENDMDL
MODEL 8
REMARK VINA RESULT:      -6.6      8.633     10.372
REMARK  Name = Naratriptan
REMARK  7 active torsions:
REMARK  status: ('A' for Active; 'I' for Inactive)
REMARK    1  A    between atoms: C_1  and  N_2
REMARK    2  A    between atoms: N_2  and  S_3
REMARK    3  A    between atoms: S_3  and  C_6
REMARK    4  A    between atoms: C_6  and  C_7
REMARK    5  A    between atoms: C_7  and  C_8
REMARK    6  A    between atoms: C_14  and  C_15
REMARK    7  A    between atoms: N_18  and  C_19
REMARK                            x       y       z     vdW  Elec       q    Type
REMARK                         _______ _______ _______ _____ _____    ______ ____
ROOT
ATOM      1  C   UNL     1      -7.518  -2.365 129.079  0.00  0.00    +0.000 A 
ATOM      2  C   UNL     1      -6.825  -2.197 127.886  0.00  0.00    +0.000 A 
ATOM      3  C   UNL     1      -7.268  -2.583 126.602  0.00  0.00    +0.000 A 
ATOM      4  C   UNL     1      -8.325  -3.480 126.609  0.00  0.00    +0.000 A 
ATOM      5  N   UNL     1      -8.574  -3.777 125.290  0.00  0.00    +0.000 N 
ATOM      6  C   UNL     1      -7.843  -2.955 124.460  0.00  0.00    +0.000 A 
ATOM      7  C   UNL     1      -7.011  -2.153 125.229  0.00  0.00    +0.000 A 
ATOM      8  C   UNL     1      -8.919  -3.907 127.820  0.00  0.00    +0.000 A 
ATOM      9  C   UNL     1      -8.536  -3.292 129.042  0.00  0.00    +0.000 A 
ATOM     10  H   UNL     1      -9.279  -4.426 124.973  0.00  0.00    +0.000 HD
ENDROOT
BRANCH   7  11
ATOM     11  C   UNL     1      -6.306  -0.884 124.677  0.00  0.00    +0.000 C 
ATOM     12  C   UNL     1      -6.335   0.424 125.472  0.00  0.00    +0.000 C 
ATOM     13  C   UNL     1      -7.738   0.968 125.613  0.00  0.00    +0.000 C 
ATOM     14  N   UNL     1      -8.397   1.148 124.305  0.00  0.00    +0.000 NA
ATOM     15  C   UNL     1      -9.781   1.587 124.535  0.00  0.00    +0.000 C 
ATOM     16  C   UNL     1      -8.241   0.031 123.345  0.00  0.00    +0.000 C 
ATOM     17  C   UNL     1      -6.836  -0.578 123.260  0.00  0.00    +0.000 C 
ENDBRANCH   7  11
BRANCH   1  18
ATOM     18  C   UNL     1      -7.119  -1.544 130.294  0.00  0.00    +0.000 C 
BRANCH  18  19
ATOM     19  C   UNL     1      -7.764  -0.141 130.429  0.00  0.00    +0.000 C 
BRANCH  19  20
ATOM     20  S   UNL     1      -8.540  -0.027 132.063  0.00  0.00    +0.000 S 
ATOM     21  O   UNL     1      -8.232  -1.246 132.799  0.00  0.00    +0.000 OA
ATOM     22  O   UNL     1      -9.894   0.423 131.896  0.00  0.00    +0.000 OA
BRANCH  20  24
ATOM     23  C   UNL     1      -6.866   2.014 131.950  0.00  0.00    +0.000 C 
ATOM     24  N   UNL     1      -7.702   1.201 132.881  0.00  0.00    +0.000 NA
ATOM     25  H   UNL     1      -8.334   1.815 133.397  0.00  0.00    +0.000 HD
ENDBRANCH  20  24
ENDBRANCH  19  20
ENDBRANCH  18  19
ENDBRANCH   1  18
TORSDOF 5
ENDMDL
MODEL 9
REMARK VINA RESULT:      -6.6      6.735      9.968
REMARK  Name = Naratriptan
REMARK  7 active torsions:
REMARK  status: ('A' for Active; 'I' for Inactive)
REMARK    1  A    between atoms: C_1  and  N_2
REMARK    2  A    between atoms: N_2  and  S_3
REMARK    3  A    between atoms: S_3  and  C_6
REMARK    4  A    between atoms: C_6  and  C_7
REMARK    5  A    between atoms: C_7  and  C_8
REMARK    6  A    between atoms: C_14  and  C_15
REMARK    7  A    between atoms: N_18  and  C_19
REMARK                            x       y       z     vdW  Elec       q    Type
REMARK                         _______ _______ _______ _____ _____    ______ ____
ROOT
ATOM      1  C   UNL     1      -5.886   3.382 125.944  0.00  0.00    +0.000 A 
ATOM      2  C   UNL     1      -7.221   3.232 125.592  0.00  0.00    +0.000 A 
ATOM      3  C   UNL     1      -7.737   3.168 124.279  0.00  0.00    +0.000 A 
ATOM      4  C   UNL     1      -6.862   3.617 123.301  0.00  0.00    +0.000 A 
ATOM      5  N   UNL     1      -7.552   3.535 122.114  0.00  0.00    +0.000 N 
ATOM      6  C   UNL     1      -8.747   2.873 122.292  0.00  0.00    +0.000 A 
ATOM      7  C   UNL     1      -8.917   2.588 123.640  0.00  0.00    +0.000 A 
ATOM      8  C   UNL     1      -5.553   4.043 123.625  0.00  0.00    +0.000 A 
ATOM      9  C   UNL     1      -5.066   3.863 124.947  0.00  0.00    +0.000 A 
ATOM     10  H   UNL     1      -7.183   3.815 121.217  0.00  0.00    +0.000 HD
ENDROOT
BRANCH   7  11
ATOM     11  C   UNL     1      -9.958   1.565 124.168  0.00  0.00    +0.000 C 
ATOM     12  C   UNL     1      -9.645   0.708 125.397  0.00  0.00    +0.000 C 
ATOM     13  C   UNL     1      -8.488  -0.232 125.150  0.00  0.00    +0.000 C 
ATOM     14  N   UNL     1      -8.711  -1.088 123.969  0.00  0.00    +0.000 NA
ATOM     15  C   UNL     1      -7.506  -1.900 123.744  0.00  0.00    +0.000 C 
ATOM     16  C   UNL     1      -9.245  -0.405 122.768  0.00  0.00    +0.000 C 
ATOM     17  C   UNL     1     -10.364   0.610 123.026  0.00  0.00    +0.000 C 
ENDBRANCH   7  11
BRANCH   1  18
ATOM     18  C   UNL     1      -5.441   3.018 127.351  0.00  0.00    +0.000 C 
BRANCH  18  19
ATOM     19  C   UNL     1      -4.110   3.641 127.844  0.00  0.00    +0.000 C 
BRANCH  19  20
ATOM     20  S   UNL     1      -4.465   5.290 128.506  0.00  0.00    +0.000 S 
ATOM     21  O   UNL     1      -5.741   5.234 129.207  0.00  0.00    +0.000 OA
ATOM     22  O   UNL     1      -4.220   6.259 127.475  0.00  0.00    +0.000 OA
BRANCH  20  24
ATOM     23  C   UNL     1      -2.152   6.347 129.221  0.00  0.00    +0.000 C 
ATOM     24  N   UNL     1      -3.309   5.551 129.721  0.00  0.00    +0.000 NA
ATOM     25  H   UNL     1      -3.713   6.010 130.539  0.00  0.00    +0.000 HD
ENDBRANCH  20  24
ENDBRANCH  19  20
ENDBRANCH  18  19
ENDBRANCH   1  18
TORSDOF 5
ENDMDL
