MODEL 1
REMARK VINA RESULT:      -9.3      0.000      0.000
REMARK  Name = Natamycin
REMARK  12 active torsions:
REMARK  status: ('A' for Active; 'I' for Inactive)
REMARK    1  A    between atoms: C_4  and  O_5
REMARK    2  A    between atoms: C_7  and  O_8
REMARK    3  A    between atoms: C_10  and  O_11
REMARK    4  A    between atoms: C_12  and  C_13
REMARK    5  A    between atoms: C_13  and  O_14
REMARK    6  A    between atoms: C_19  and  O_20
REMARK    7  A    between atoms: O_20  and  C_21
REMARK    8  A    between atoms: C_24  and  C_25
REMARK    9  A    between atoms: C_26  and  O_27
REMARK   10  A    between atoms: C_28  and  N_29
REMARK   11  A    between atoms: C_30  and  O_31
REMARK   12  A    between atoms: C_41  and  C_42
REMARK                            x       y       z     vdW  Elec       q    Type
REMARK                         _______ _______ _______ _____ _____    ______ ____
ROOT
ATOM      1  C   UNL     1      -5.703   1.747 128.603  0.00  0.00    +0.000 C 
ATOM      2  C   UNL     1      -7.031  -0.348 128.351  0.00  0.00    +0.000 C 
ATOM      3  C   UNL     1      -6.825  -1.525 129.328  0.00  0.00    +0.000 C 
ATOM      4  C   UNL     1      -8.065  -2.570 130.529  0.00  0.00    +0.000 C 
ATOM      5  C   UNL     1      -6.799  -2.542 132.162  0.00  0.00    +0.000 C 
ATOM      6  C   UNL     1      -6.190  -3.945 132.047  0.00  0.00    +0.000 C 
ATOM      7  C   UNL     1      -5.487  -3.676 130.922  0.00  0.00    +0.000 C 
ATOM      8  C   UNL     1      -4.665  -2.614 131.226  0.00  0.00    +0.000 C 
ATOM      9  C   UNL     1      -5.166  -1.279 131.337  0.00  0.00    +0.000 C 
ATOM     10  C   UNL     1      -4.260  -0.249 131.723  0.00  0.00    +0.000 C 
ATOM     11  C   UNL     1      -4.858   1.134 131.858  0.00  0.00    +0.000 C 
ATOM     12  C   UNL     1      -3.799   2.124 132.231  0.00  0.00    +0.000 C 
ATOM     13  C   UNL     1      -4.042   3.430 132.400  0.00  0.00    +0.000 C 
ATOM     14  C   UNL     1      -3.004   4.405 132.781  0.00  0.00    +0.000 C 
ATOM     15  C   UNL     1      -3.242   5.714 132.976  0.00  0.00    +0.000 C 
ATOM     16  C   UNL     1      -2.196   6.680 133.333  0.00  0.00    +0.000 C 
ATOM     17  C   UNL     1      -2.459   7.956 133.644  0.00  0.00    +0.000 C 
ATOM     18  C   UNL     1      -1.383   8.911 133.974  0.00  0.00    +0.000 C 
ATOM     19  C   UNL     1      -1.695  10.114 134.363  0.00  0.00    +0.000 C 
ATOM     20  C   UNL     1      -0.471  11.120 134.539  0.00  0.00    +0.000 C 
ATOM     21  C   UNL     1      -1.503  12.092 134.699  0.00  0.00    +0.000 C 
ATOM     22  C   UNL     1      -2.282  12.707 135.613  0.00  0.00    +0.000 C 
ATOM     23  O   UNL     1      -0.609  12.481 133.998  0.00  0.00    +0.000 OA
ATOM     24  C   UNL     1      -1.689  10.920 132.733  0.00  0.00    +0.000 C 
ATOM     25  O   UNL     1      -1.254  12.764 133.472  0.00  0.00    +0.000 OA
ATOM     26  C   UNL     1      -2.475   8.527 131.685  0.00  0.00    +0.000 C 
ATOM     27  C   UNL     1      -3.274   6.285 130.667  0.00  0.00    +0.000 C 
ATOM     28  C   UNL     1      -4.275   3.990 129.557  0.00  0.00    +0.000 C 
ATOM     29  O   UNL     1      -4.405   1.877 128.681  0.00  0.00    +0.000 OA
ATOM     30  O   UNL     1      -5.678  -1.354 132.495  0.00  0.00    +0.000 OA
ENDROOT
BRANCH   3  31
ATOM     31  O   UNL     1      -6.151  -2.513 129.120  0.00  0.00    +0.000 OA
ATOM     32  H   UNL     1      -6.578  -3.027 128.321  0.00  0.00    +0.000 HD
ENDBRANCH   3  31
BRANCH   5  33
ATOM     33  O   UNL     1      -8.439  -2.675 133.484  0.00  0.00    +0.000 OA
ATOM     34  H   UNL     1      -8.421  -3.693 133.896  0.00  0.00    +0.000 HD
ENDBRANCH   5  33
BRANCH   7  35
ATOM     35  O   UNL     1      -5.208  -4.947 130.778  0.00  0.00    +0.000 OA
ATOM     36  H   UNL     1      -5.795  -5.188 130.047  0.00  0.00    +0.000 HD
ENDBRANCH   7  35
BRANCH   8  37
ATOM     37  C   UNL     1      -3.709  -2.689 130.131  0.00  0.00    +0.000 C 
ATOM     38  O   UNL     1      -2.961  -3.657 130.120  0.00  0.00    +0.000 OA
BRANCH  37  39
ATOM     39  O   UNL     1      -3.608  -1.703 129.171  0.00  0.00    +0.000 OA
ATOM     40  H   UNL     1      -2.840  -1.692 128.547  0.00  0.00    +0.000 HD
ENDBRANCH  37  39
ENDBRANCH   8  37
BRANCH  11  41
ATOM     41  O   UNL     1      -5.896   1.137 132.848  0.00  0.00    +0.000 OA
BRANCH  41  42
ATOM     42  C   UNL     1      -7.121   1.678 132.423  0.00  0.00    +0.000 C 
ATOM     43  O   UNL     1      -7.529   2.219 131.298  0.00  0.00    +0.000 OA
ATOM     44  C   UNL     1      -8.648   2.856 131.100  0.00  0.00    +0.000 C 
ATOM     45  C   UNL     1      -8.680   3.969 129.361  0.00  0.00    +0.000 C 
ATOM     46  C   UNL     1      -8.561   3.509 132.156  0.00  0.00    +0.000 C 
ATOM     47  C   UNL     1      -8.996   2.904 133.251  0.00  0.00    +0.000 C 
ATOM     48  C   UNL     1      -7.689   2.465 133.536  0.00  0.00    +0.000 C 
BRANCH  47  49
ATOM     49  N   UNL     1      -9.696   3.828 134.114  0.00  0.00    +0.000 NA
ATOM     50  H   UNL     1     -10.221   4.379 133.527  0.00  0.00    +0.000 HD
ATOM     51  H   UNL     1      -9.046   4.532 134.248  0.00  0.00    +0.000 HD
ENDBRANCH  47  49
BRANCH  46  52
ATOM     52  O   UNL     1     -10.340   4.357 131.290  0.00  0.00    +0.000 OA
ATOM     53  H   UNL     1      -9.970   4.789 130.634  0.00  0.00    +0.000 HD
ENDBRANCH  46  52
BRANCH  48  54
ATOM     54  O   UNL     1      -6.913   3.467 134.048  0.00  0.00    +0.000 OA
ATOM     55  H   UNL     1      -6.096   3.314 134.484  0.00  0.00    +0.000 HD
ENDBRANCH  48  54
ENDBRANCH  41  42
ENDBRANCH  11  41
TORSDOF 10
ENDMDL
MODEL 2
REMARK VINA RESULT:      -9.3      5.053      6.907
REMARK  Name = Natamycin
REMARK  12 active torsions:
REMARK  status: ('A' for Active; 'I' for Inactive)
REMARK    1  A    between atoms: C_4  and  O_5
REMARK    2  A    between atoms: C_7  and  O_8
REMARK    3  A    between atoms: C_10  and  O_11
REMARK    4  A    between atoms: C_12  and  C_13
REMARK    5  A    between atoms: C_13  and  O_14
REMARK    6  A    between atoms: C_19  and  O_20
REMARK    7  A    between atoms: O_20  and  C_21
REMARK    8  A    between atoms: C_24  and  C_25
REMARK    9  A    between atoms: C_26  and  O_27
REMARK   10  A    between atoms: C_28  and  N_29
REMARK   11  A    between atoms: C_30  and  O_31
REMARK   12  A    between atoms: C_41  and  C_42
REMARK                            x       y       z     vdW  Elec       q    Type
REMARK                         _______ _______ _______ _____ _____    ______ ____
ROOT
ATOM      1  C   UNL     1      -4.008   2.779 135.013  0.00  0.00    +0.000 C 
ATOM      2  C   UNL     1      -3.284   1.417 133.055  0.00  0.00    +0.000 C 
ATOM      3  C   UNL     1      -4.319   0.920 132.024  0.00  0.00    +0.000 C 
ATOM      4  C   UNL     1      -4.493   1.110 130.023  0.00  0.00    +0.000 C 
ATOM      5  C   UNL     1      -6.507   1.565 130.060  0.00  0.00    +0.000 C 
ATOM      6  C   UNL     1      -7.094   0.196 129.693  0.00  0.00    +0.000 C 
ATOM      7  C   UNL     1      -6.740  -0.398 130.857  0.00  0.00    +0.000 C 
ATOM      8  C   UNL     1      -7.333   0.336 131.860  0.00  0.00    +0.000 C 
ATOM      9  C   UNL     1      -6.832   1.614 132.258  0.00  0.00    +0.000 C 
ATOM     10  C   UNL     1      -7.546   2.337 133.257  0.00  0.00    +0.000 C 
ATOM     11  C   UNL     1      -6.986   3.698 133.608  0.00  0.00    +0.000 C 
ATOM     12  C   UNL     1      -7.804   4.334 134.689  0.00  0.00    +0.000 C 
ATOM     13  C   UNL     1      -7.525   5.535 135.210  0.00  0.00    +0.000 C 
ATOM     14  C   UNL     1      -8.337   6.170 136.264  0.00  0.00    +0.000 C 
ATOM     15  C   UNL     1      -8.080   7.386 136.777  0.00  0.00    +0.000 C 
ATOM     16  C   UNL     1      -8.882   8.000 137.842  0.00  0.00    +0.000 C 
ATOM     17  C   UNL     1      -8.695   9.256 138.263  0.00  0.00    +0.000 C 
ATOM     18  C   UNL     1      -9.501   9.837 139.355  0.00  0.00    +0.000 C 
ATOM     19  C   UNL     1      -9.347  11.093 139.663  0.00  0.00    +0.000 C 
ATOM     20  C   UNL     1     -10.137  11.586 140.956  0.00  0.00    +0.000 C 
ATOM     21  C   UNL     1      -9.368  12.774 140.775  0.00  0.00    +0.000 C 
ATOM     22  C   UNL     1      -9.366  13.985 140.181  0.00  0.00    +0.000 C 
ATOM     23  O   UNL     1      -9.423  12.432 141.925  0.00  0.00    +0.000 OA
ATOM     24  C   UNL     1      -8.064  10.890 140.935  0.00  0.00    +0.000 C 
ATOM     25  O   UNL     1      -8.559  12.593 141.930  0.00  0.00    +0.000 OA
ATOM     26  C   UNL     1      -7.206   8.705 139.545  0.00  0.00    +0.000 C 
ATOM     27  C   UNL     1      -6.334   6.660 138.220  0.00  0.00    +0.000 C 
ATOM     28  C   UNL     1      -5.269   4.590 136.778  0.00  0.00    +0.000 C 
ATOM     29  O   UNL     1      -4.935   2.503 135.892  0.00  0.00    +0.000 OA
ATOM     30  O   UNL     1      -7.305   2.317 131.315  0.00  0.00    +0.000 OA
ENDROOT
BRANCH   3  31
ATOM     31  O   UNL     1      -4.812  -0.190 131.987  0.00  0.00    +0.000 OA
ATOM     32  H   UNL     1      -4.627  -0.650 132.903  0.00  0.00    +0.000 HD
ENDBRANCH   3  31
BRANCH   5  33
ATOM     33  O   UNL     1      -6.330   2.671 128.271  0.00  0.00    +0.000 OA
ATOM     34  H   UNL     1      -7.334   2.702 127.827  0.00  0.00    +0.000 HD
ENDBRANCH   5  33
BRANCH   7  35
ATOM     35  O   UNL     1      -7.055  -1.571 130.368  0.00  0.00    +0.000 OA
ATOM     36  H   UNL     1      -7.260  -2.064 131.174  0.00  0.00    +0.000 HD
ENDBRANCH   7  35
BRANCH   8  37
ATOM     37  C   UNL     1      -7.236  -0.598 132.973  0.00  0.00    +0.000 C 
ATOM     38  O   UNL     1      -7.888  -1.629 132.883  0.00  0.00    +0.000 OA
BRANCH  37  39
ATOM     39  O   UNL     1      -6.486  -0.326 134.099  0.00  0.00    +0.000 OA
ATOM     40  H   UNL     1      -6.674  -0.800 134.948  0.00  0.00    +0.000 HD
ENDBRANCH  37  39
ENDBRANCH   8  37
BRANCH  11  41
ATOM     41  O   UNL     1      -6.965   4.546 132.453  0.00  0.00    +0.000 OA
BRANCH  41  42
ATOM     42  C   UNL     1      -5.726   5.149 132.179  0.00  0.00    +0.000 C 
ATOM     43  O   UNL     1      -4.822   5.739 132.928  0.00  0.00    +0.000 OA
ATOM     44  C   UNL     1      -3.796   6.427 132.515  0.00  0.00    +0.000 C 
ATOM     45  C   UNL     1      -2.924   7.587 133.984  0.00  0.00    +0.000 C 
ATOM     46  C   UNL     1      -4.451   7.047 131.657  0.00  0.00    +0.000 C 
ATOM     47  C   UNL     1      -4.617   6.431 130.497  0.00  0.00    +0.000 C 
ATOM     48  C   UNL     1      -5.858   5.929 130.931  0.00  0.00    +0.000 C 
BRANCH  47  49
ATOM     49  N   UNL     1      -4.512   7.359 129.394  0.00  0.00    +0.000 NA
ATOM     50  H   UNL     1      -4.149   6.851 128.664  0.00  0.00    +0.000 HD
ATOM     51  H   UNL     1      -3.664   7.794 129.558  0.00  0.00    +0.000 HD
ENDBRANCH  47  49
BRANCH  46  52
ATOM     52  O   UNL     1      -2.526   7.992 131.473  0.00  0.00    +0.000 OA
ATOM     53  H   UNL     1      -2.479   8.021 130.606  0.00  0.00    +0.000 HD
ENDBRANCH  46  52
BRANCH  48  54
ATOM     54  O   UNL     1      -6.836   6.884 130.895  0.00  0.00    +0.000 OA
ATOM     55  H   UNL     1      -7.489   6.977 131.564  0.00  0.00    +0.000 HD
ENDBRANCH  48  54
ENDBRANCH  41  42
ENDBRANCH  11  41
TORSDOF 10
ENDMDL
MODEL 3
REMARK VINA RESULT:      -9.0      4.979      6.535
REMARK  Name = Natamycin
REMARK  12 active torsions:
REMARK  status: ('A' for Active; 'I' for Inactive)
REMARK    1  A    between atoms: C_4  and  O_5
REMARK    2  A    between atoms: C_7  and  O_8
REMARK    3  A    between atoms: C_10  and  O_11
REMARK    4  A    between atoms: C_12  and  C_13
REMARK    5  A    between atoms: C_13  and  O_14
REMARK    6  A    between atoms: C_19  and  O_20
REMARK    7  A    between atoms: O_20  and  C_21
REMARK    8  A    between atoms: C_24  and  C_25
REMARK    9  A    between atoms: C_26  and  O_27
REMARK   10  A    between atoms: C_28  and  N_29
REMARK   11  A    between atoms: C_30  and  O_31
REMARK   12  A    between atoms: C_41  and  C_42
REMARK                            x       y       z     vdW  Elec       q    Type
REMARK                         _______ _______ _______ _____ _____    ______ ____
ROOT
ATOM      1  C   UNL     1      -3.952   2.739 135.115  0.00  0.00    +0.000 C 
ATOM      2  C   UNL     1      -3.191   1.378 133.170  0.00  0.00    +0.000 C 
ATOM      3  C   UNL     1      -4.205   0.898 132.110  0.00  0.00    +0.000 C 
ATOM      4  C   UNL     1      -4.323   1.100 130.106  0.00  0.00    +0.000 C 
ATOM      5  C   UNL     1      -6.332   1.578 130.091  0.00  0.00    +0.000 C 
ATOM      6  C   UNL     1      -6.924   0.217 129.703  0.00  0.00    +0.000 C 
ATOM      7  C   UNL     1      -6.608  -0.386 130.872  0.00  0.00    +0.000 C 
ATOM      8  C   UNL     1      -7.220   0.349 131.863  0.00  0.00    +0.000 C 
ATOM      9  C   UNL     1      -6.715   1.619 132.281  0.00  0.00    +0.000 C 
ATOM     10  C   UNL     1      -7.447   2.346 133.264  0.00  0.00    +0.000 C 
ATOM     11  C   UNL     1      -6.881   3.699 133.637  0.00  0.00    +0.000 C 
ATOM     12  C   UNL     1      -7.720   4.338 134.699  0.00  0.00    +0.000 C 
ATOM     13  C   UNL     1      -7.442   5.534 135.234  0.00  0.00    +0.000 C 
ATOM     14  C   UNL     1      -8.274   6.173 136.269  0.00  0.00    +0.000 C 
ATOM     15  C   UNL     1      -8.017   7.383 136.795  0.00  0.00    +0.000 C 
ATOM     16  C   UNL     1      -8.840   8.000 137.842  0.00  0.00    +0.000 C 
ATOM     17  C   UNL     1      -8.650   9.253 138.275  0.00  0.00    +0.000 C 
ATOM     18  C   UNL     1      -9.478   9.838 139.348  0.00  0.00    +0.000 C 
ATOM     19  C   UNL     1      -9.319  11.090 139.666  0.00  0.00    +0.000 C 
ATOM     20  C   UNL     1     -10.137  11.585 140.940  0.00  0.00    +0.000 C 
ATOM     21  C   UNL     1      -9.350  12.765 140.786  0.00  0.00    +0.000 C 
ATOM     22  C   UNL     1      -9.318  13.979 140.198  0.00  0.00    +0.000 C 
ATOM     23  O   UNL     1      -9.439  12.418 141.932  0.00  0.00    +0.000 OA
ATOM     24  C   UNL     1      -8.072  10.865 140.971  0.00  0.00    +0.000 C 
ATOM     25  O   UNL     1      -8.574  12.569 141.961  0.00  0.00    +0.000 OA
ATOM     26  C   UNL     1      -7.203   8.678 139.593  0.00  0.00    +0.000 C 
ATOM     27  C   UNL     1      -6.319   6.629 138.280  0.00  0.00    +0.000 C 
ATOM     28  C   UNL     1      -5.239   4.555 136.857  0.00  0.00    +0.000 C 
ATOM     29  O   UNL     1      -4.905   2.469 135.969  0.00  0.00    +0.000 OA
ATOM     30  O   UNL     1      -7.155   2.333 131.329  0.00  0.00    +0.000 OA
ENDROOT
BRANCH   3  31
ATOM     31  O   UNL     1      -4.709  -0.206 132.054  0.00  0.00    +0.000 OA
ATOM     32  H   UNL     1      -3.967  -0.905 132.266  0.00  0.00    +0.000 HD
ENDBRANCH   3  31
BRANCH   5  33
ATOM     33  O   UNL     1      -6.095   2.691 128.314  0.00  0.00    +0.000 OA
ATOM     34  H   UNL     1      -6.318   3.735 128.572  0.00  0.00    +0.000 HD
ENDBRANCH   5  33
BRANCH   7  35
ATOM     35  O   UNL     1      -6.923  -1.553 130.368  0.00  0.00    +0.000 OA
ATOM     36  H   UNL     1      -6.255  -2.122 130.777  0.00  0.00    +0.000 HD
ENDBRANCH   7  35
BRANCH   8  37
ATOM     37  C   UNL     1      -7.162  -0.591 132.973  0.00  0.00    +0.000 C 
ATOM     38  O   UNL     1      -7.824  -1.613 132.862  0.00  0.00    +0.000 OA
BRANCH  37  39
ATOM     39  O   UNL     1      -6.439  -0.335 134.119  0.00  0.00    +0.000 OA
ATOM     40  H   UNL     1      -5.469  -0.144 134.063  0.00  0.00    +0.000 HD
ENDBRANCH  37  39
ENDBRANCH   8  37
BRANCH  11  41
ATOM     41  O   UNL     1      -6.820   4.552 132.487  0.00  0.00    +0.000 OA
BRANCH  41  42
ATOM     42  C   UNL     1      -8.057   5.060 132.057  0.00  0.00    +0.000 C 
ATOM     43  O   UNL     1      -9.197   4.500 131.721  0.00  0.00    +0.000 OA
ATOM     44  C   UNL     1     -10.215   5.083 131.155  0.00  0.00    +0.000 C 
ATOM     45  C   UNL     1     -11.588   3.769 130.347  0.00  0.00    +0.000 C 
ATOM     46  C   UNL     1      -9.513   5.700 130.333  0.00  0.00    +0.000 C 
ATOM     47  C   UNL     1      -8.985   6.837 130.760  0.00  0.00    +0.000 C 
ATOM     48  C   UNL     1      -7.800   6.165 131.111  0.00  0.00    +0.000 C 
BRANCH  47  49
ATOM     49  N   UNL     1      -9.012   7.845 129.724  0.00  0.00    +0.000 NA
ATOM     50  H   UNL     1      -8.108   7.909 129.405  0.00  0.00    +0.000 HD
ATOM     51  H   UNL     1      -8.930   8.669 130.223  0.00  0.00    +0.000 HD
ENDBRANCH  47  49
BRANCH  46  52
ATOM     52  O   UNL     1     -11.490   6.255 129.688  0.00  0.00    +0.000 OA
ATOM     53  H   UNL     1     -11.917   5.552 129.964  0.00  0.00    +0.000 HD
ENDBRANCH  46  52
BRANCH  48  54
ATOM     54  O   UNL     1      -7.030   5.880 130.018  0.00  0.00    +0.000 OA
ATOM     55  H   UNL     1      -6.958   6.450 129.276  0.00  0.00    +0.000 HD
ENDBRANCH  48  54
ENDBRANCH  41  42
ENDBRANCH  11  41
TORSDOF 10
ENDMDL
MODEL 4
REMARK VINA RESULT:      -8.9      4.730      7.679
REMARK  Name = Natamycin
REMARK  12 active torsions:
REMARK  status: ('A' for Active; 'I' for Inactive)
REMARK    1  A    between atoms: C_4  and  O_5
REMARK    2  A    between atoms: C_7  and  O_8
REMARK    3  A    between atoms: C_10  and  O_11
REMARK    4  A    between atoms: C_12  and  C_13
REMARK    5  A    between atoms: C_13  and  O_14
REMARK    6  A    between atoms: C_19  and  O_20
REMARK    7  A    between atoms: O_20  and  C_21
REMARK    8  A    between atoms: C_24  and  C_25
REMARK    9  A    between atoms: C_26  and  O_27
REMARK   10  A    between atoms: C_28  and  N_29
REMARK   11  A    between atoms: C_30  and  O_31
REMARK   12  A    between atoms: C_41  and  C_42
REMARK                            x       y       z     vdW  Elec       q    Type
REMARK                         _______ _______ _______ _____ _____    ______ ____
ROOT
ATOM      1  C   UNL     1      -2.742   1.421 133.254  0.00  0.00    +0.000 C 
ATOM      2  C   UNL     1      -1.391  -0.612 133.759  0.00  0.00    +0.000 C 
ATOM      3  C   UNL     1      -1.967  -1.730 134.654  0.00  0.00    +0.000 C 
ATOM      4  C   UNL     1      -2.241  -3.713 134.401  0.00  0.00    +0.000 C 
ATOM      5  C   UNL     1      -4.153  -3.732 135.182  0.00  0.00    +0.000 C 
ATOM      6  C   UNL     1      -3.855  -4.243 136.597  0.00  0.00    +0.000 C 
ATOM      7  C   UNL     1      -3.212  -3.120 136.994  0.00  0.00    +0.000 C 
ATOM      8  C   UNL     1      -4.107  -2.086 136.833  0.00  0.00    +0.000 C 
ATOM      9  C   UNL     1      -4.422  -1.555 135.544  0.00  0.00    +0.000 C 
ATOM     10  C   UNL     1      -5.411  -0.532 135.459  0.00  0.00    +0.000 C 
ATOM     11  C   UNL     1      -5.726  -0.037 134.064  0.00  0.00    +0.000 C 
ATOM     12  C   UNL     1      -6.748   1.055 134.119  0.00  0.00    +0.000 C 
ATOM     13  C   UNL     1      -7.202   1.691 133.031  0.00  0.00    +0.000 C 
ATOM     14  C   UNL     1      -8.219   2.757 133.080  0.00  0.00    +0.000 C 
ATOM     15  C   UNL     1      -8.698   3.385 131.992  0.00  0.00    +0.000 C 
ATOM     16  C   UNL     1      -9.695   4.461 132.054  0.00  0.00    +0.000 C 
ATOM     17  C   UNL     1     -10.256   4.998 130.964  0.00  0.00    +0.000 C 
ATOM     18  C   UNL     1     -11.237   6.097 131.057  0.00  0.00    +0.000 C 
ATOM     19  C   UNL     1     -11.826   6.520 129.976  0.00  0.00    +0.000 C 
ATOM     20  C   UNL     1     -12.741   7.812 130.152  0.00  0.00    +0.000 C 
ATOM     21  C   UNL     1     -12.792   7.772 128.726  0.00  0.00    +0.000 C 
ATOM     22  C   UNL     1     -13.489   7.286 127.679  0.00  0.00    +0.000 C 
ATOM     23  O   UNL     1     -12.628   8.884 129.150  0.00  0.00    +0.000 OA
ATOM     24  C   UNL     1     -10.643   7.829 129.535  0.00  0.00    +0.000 C 
ATOM     25  O   UNL     1     -12.012   8.943 128.526  0.00  0.00    +0.000 OA
ATOM     26  C   UNL     1      -8.705   6.296 130.691  0.00  0.00    +0.000 C 
ATOM     27  C   UNL     1      -6.835   4.840 131.731  0.00  0.00    +0.000 C 
ATOM     28  C   UNL     1      -4.792   3.276 132.670  0.00  0.00    +0.000 C 
ATOM     29  O   UNL     1      -3.335   2.228 134.094  0.00  0.00    +0.000 OA
ATOM     30  O   UNL     1      -5.224  -2.455 135.147  0.00  0.00    +0.000 OA
ENDROOT
BRANCH   3  31
ATOM     31  O   UNL     1      -1.737  -1.886 135.836  0.00  0.00    +0.000 OA
ATOM     32  H   UNL     1      -0.919  -1.291 136.082  0.00  0.00    +0.000 HD
ENDBRANCH   3  31
BRANCH   5  33
ATOM     33  O   UNL     1      -4.660  -5.407 134.003  0.00  0.00    +0.000 OA
ATOM     34  H   UNL     1      -4.872  -5.022 132.996  0.00  0.00    +0.000 HD
ENDBRANCH   5  33
BRANCH   7  35
ATOM     35  O   UNL     1      -2.804  -3.724 138.082  0.00  0.00    +0.000 OA
ATOM     36  H   UNL     1      -3.421  -4.467 138.129  0.00  0.00    +0.000 HD
ENDBRANCH   7  35
BRANCH   8  37
ATOM     37  C   UNL     1      -3.481  -1.056 137.648  0.00  0.00    +0.000 C 
ATOM     38  O   UNL     1      -3.483  -1.235 138.858  0.00  0.00    +0.000 OA
BRANCH  37  39
ATOM     39  O   UNL     1      -2.948   0.094 137.102  0.00  0.00    +0.000 OA
ATOM     40  H   UNL     1      -1.966   0.196 137.017  0.00  0.00    +0.000 HD
ENDBRANCH  37  39
ENDBRANCH   8  37
BRANCH  11  41
ATOM     41  O   UNL     1      -6.207  -1.113 133.247  0.00  0.00    +0.000 OA
BRANCH  41  42
ATOM     42  C   UNL     1      -5.858  -1.030 131.889  0.00  0.00    +0.000 C 
ATOM     43  O   UNL     1      -6.537  -1.155 130.771  0.00  0.00    +0.000 OA
ATOM     44  C   UNL     1      -6.048  -1.243 129.567  0.00  0.00    +0.000 C 
ATOM     45  C   UNL     1      -7.400  -1.925 128.164  0.00  0.00    +0.000 C 
ATOM     46  C   UNL     1      -5.159  -2.049 129.896  0.00  0.00    +0.000 C 
ATOM     47  C   UNL     1      -4.055  -1.522 130.402  0.00  0.00    +0.000 C 
ATOM     48  C   UNL     1      -4.556  -1.704 131.705  0.00  0.00    +0.000 C 
BRANCH  47  49
ATOM     49  N   UNL     1      -2.881  -2.222 129.933  0.00  0.00    +0.000 NA
ATOM     50  H   UNL     1      -2.784  -1.969 129.010  0.00  0.00    +0.000 HD
ATOM     51  H   UNL     1      -3.229  -3.091 129.692  0.00  0.00    +0.000 HD
ENDBRANCH  47  49
BRANCH  46  52
ATOM     52  O   UNL     1      -4.856  -1.943 127.767  0.00  0.00    +0.000 OA
ATOM     53  H   UNL     1      -5.284  -2.663 127.541  0.00  0.00    +0.000 HD
ENDBRANCH  46  52
BRANCH  48  54
ATOM     54  O   UNL     1      -4.468  -3.007 132.110  0.00  0.00    +0.000 OA
ATOM     55  H   UNL     1      -3.906  -3.637 131.700  0.00  0.00    +0.000 HD
ENDBRANCH  48  54
ENDBRANCH  41  42
ENDBRANCH  11  41
TORSDOF 10
ENDMDL
MODEL 5
REMARK VINA RESULT:      -8.9      4.961      6.286
REMARK  Name = Natamycin
REMARK  12 active torsions:
REMARK  status: ('A' for Active; 'I' for Inactive)
REMARK    1  A    between atoms: C_4  and  O_5
REMARK    2  A    between atoms: C_7  and  O_8
REMARK    3  A    between atoms: C_10  and  O_11
REMARK    4  A    between atoms: C_12  and  C_13
REMARK    5  A    between atoms: C_13  and  O_14
REMARK    6  A    between atoms: C_19  and  O_20
REMARK    7  A    between atoms: O_20  and  C_21
REMARK    8  A    between atoms: C_24  and  C_25
REMARK    9  A    between atoms: C_26  and  O_27
REMARK   10  A    between atoms: C_28  and  N_29
REMARK   11  A    between atoms: C_30  and  O_31
REMARK   12  A    between atoms: C_41  and  C_42
REMARK                            x       y       z     vdW  Elec       q    Type
REMARK                         _______ _______ _______ _____ _____    ______ ____
ROOT
ATOM      1  C   UNL     1      -3.808   5.101 133.191  0.00  0.00    +0.000 C 
ATOM      2  C   UNL     1      -3.686   3.351 131.420  0.00  0.00    +0.000 C 
ATOM      3  C   UNL     1      -4.375   1.985 131.624  0.00  0.00    +0.000 C 
ATOM      4  C   UNL     1      -5.740   0.942 130.566  0.00  0.00    +0.000 C 
ATOM      5  C   UNL     1      -6.887   0.432 132.206  0.00  0.00    +0.000 C 
ATOM      6  C   UNL     1      -6.393  -1.001 132.438  0.00  0.00    +0.000 C 
ATOM      7  C   UNL     1      -5.156  -0.634 132.845  0.00  0.00    +0.000 C 
ATOM      8  C   UNL     1      -5.337   0.193 133.930  0.00  0.00    +0.000 C 
ATOM      9  C   UNL     1      -5.785   1.543 133.784  0.00  0.00    +0.000 C 
ATOM     10  C   UNL     1      -6.013   2.309 134.964  0.00  0.00    +0.000 C 
ATOM     11  C   UNL     1      -6.521   3.718 134.743  0.00  0.00    +0.000 C 
ATOM     12  C   UNL     1      -6.684   4.423 136.054  0.00  0.00    +0.000 C 
ATOM     13  C   UNL     1      -7.102   5.690 136.159  0.00  0.00    +0.000 C 
ATOM     14  C   UNL     1      -7.277   6.382 137.449  0.00  0.00    +0.000 C 
ATOM     15  C   UNL     1      -7.719   7.647 137.566  0.00  0.00    +0.000 C 
ATOM     16  C   UNL     1      -7.868   8.334 138.855  0.00  0.00    +0.000 C 
ATOM     17  C   UNL     1      -8.421   9.547 138.974  0.00  0.00    +0.000 C 
ATOM     18  C   UNL     1      -8.534  10.224 140.281  0.00  0.00    +0.000 C 
ATOM     19  C   UNL     1      -9.167  11.360 140.359  0.00  0.00    +0.000 C 
ATOM     20  C   UNL     1      -9.095  12.091 141.773  0.00  0.00    +0.000 C 
ATOM     21  C   UNL     1      -9.702  13.170 141.064  0.00  0.00    +0.000 C 
ATOM     22  C   UNL     1     -10.890  13.711 140.721  0.00  0.00    +0.000 C 
ATOM     23  O   UNL     1      -8.821  13.536 141.792  0.00  0.00    +0.000 OA
ATOM     24  C   UNL     1      -7.745  12.462 140.092  0.00  0.00    +0.000 C 
ATOM     25  O   UNL     1      -8.566  14.022 141.106  0.00  0.00    +0.000 OA
ATOM     26  C   UNL     1      -6.665  10.493 138.544  0.00  0.00    +0.000 C 
ATOM     27  C   UNL     1      -5.638   8.665 137.026  0.00  0.00    +0.000 C 
ATOM     28  C   UNL     1      -4.580   6.838 135.282  0.00  0.00    +0.000 C 
ATOM     29  O   UNL     1      -3.498   4.995 134.457  0.00  0.00    +0.000 OA
ATOM     30  O   UNL     1      -7.022   1.325 133.606  0.00  0.00    +0.000 OA
ENDROOT
BRANCH   3  31
ATOM     31  O   UNL     1      -3.831   0.959 131.982  0.00  0.00    +0.000 OA
ATOM     32  H   UNL     1      -4.566   0.228 132.081  0.00  0.00    +0.000 HD
ENDBRANCH   3  31
BRANCH   5  33
ATOM     33  O   UNL     1      -8.619   0.313 131.005  0.00  0.00    +0.000 OA
ATOM     34  H   UNL     1      -8.370  -0.355 130.170  0.00  0.00    +0.000 HD
ENDBRANCH   5  33
BRANCH   7  35
ATOM     35  O   UNL     1      -4.754  -1.879 132.788  0.00  0.00    +0.000 OA
ATOM     36  H   UNL     1      -4.589  -1.982 131.840  0.00  0.00    +0.000 HD
ENDBRANCH   7  35
BRANCH   8  37
ATOM     37  C   UNL     1      -4.001   0.180 134.507  0.00  0.00    +0.000 C 
ATOM     38  O   UNL     1      -3.623  -0.877 134.994  0.00  0.00    +0.000 OA
BRANCH  37  39
ATOM     39  O   UNL     1      -3.206   1.307 134.553  0.00  0.00    +0.000 OA
ATOM     40  H   UNL     1      -2.266   1.266 134.246  0.00  0.00    +0.000 HD
ENDBRANCH  37  39
ENDBRANCH   8  37
BRANCH  11  41
ATOM     41  O   UNL     1      -7.773   3.696 134.045  0.00  0.00    +0.000 OA
BRANCH  41  42
ATOM     42  C   UNL     1      -7.808   4.455 132.863  0.00  0.00    +0.000 C 
ATOM     43  O   UNL     1      -6.905   5.147 132.206  0.00  0.00    +0.000 OA
ATOM     44  C   UNL     1      -7.119   5.965 131.215  0.00  0.00    +0.000 C 
ATOM     45  C   UNL     1      -5.527   7.213 130.802  0.00  0.00    +0.000 C 
ATOM     46  C   UNL     1      -8.099   6.505 131.761  0.00  0.00    +0.000 C 
ATOM     47  C   UNL     1      -9.259   5.884 131.616  0.00  0.00    +0.000 C 
ATOM     48  C   UNL     1      -9.069   5.224 132.845  0.00  0.00    +0.000 C 
BRANCH  47  49
ATOM     49  N   UNL     1     -10.334   6.829 131.417  0.00  0.00    +0.000 NA
ATOM     50  H   UNL     1     -10.469   6.866 130.465  0.00  0.00    +0.000 HD
ATOM     51  H   UNL     1      -9.876   7.681 131.418  0.00  0.00    +0.000 HD
ENDBRANCH  47  49
BRANCH  46  52
ATOM     52  O   UNL     1      -7.917   7.689 129.973  0.00  0.00    +0.000 OA
ATOM     53  H   UNL     1      -8.497   8.305 130.168  0.00  0.00    +0.000 HD
ENDBRANCH  46  52
BRANCH  48  54
ATOM     54  O   UNL     1      -9.311   6.046 133.910  0.00  0.00    +0.000 OA
ATOM     55  H   UNL     1      -9.830   6.826 133.851  0.00  0.00    +0.000 HD
ENDBRANCH  48  54
ENDBRANCH  41  42
ENDBRANCH  11  41
TORSDOF 10
ENDMDL
MODEL 6
REMARK VINA RESULT:      -8.7      5.231      7.582
REMARK  Name = Natamycin
REMARK  12 active torsions:
REMARK  status: ('A' for Active; 'I' for Inactive)
REMARK    1  A    between atoms: C_4  and  O_5
REMARK    2  A    between atoms: C_7  and  O_8
REMARK    3  A    between atoms: C_10  and  O_11
REMARK    4  A    between atoms: C_12  and  C_13
REMARK    5  A    between atoms: C_13  and  O_14
REMARK    6  A    between atoms: C_19  and  O_20
REMARK    7  A    between atoms: O_20  and  C_21
REMARK    8  A    between atoms: C_24  and  C_25
REMARK    9  A    between atoms: C_26  and  O_27
REMARK   10  A    between atoms: C_28  and  N_29
REMARK   11  A    between atoms: C_30  and  O_31
REMARK   12  A    between atoms: C_41  and  C_42
REMARK                            x       y       z     vdW  Elec       q    Type
REMARK                         _______ _______ _______ _____ _____    ______ ____
ROOT
ATOM      1  C   UNL     1      -3.944   0.696 132.799  0.00  0.00    +0.000 C 
ATOM      2  C   UNL     1      -2.607  -1.404 132.935  0.00  0.00    +0.000 C 
ATOM      3  C   UNL     1      -3.292  -2.745 133.273  0.00  0.00    +0.000 C 
ATOM      4  C   UNL     1      -3.372  -4.538 132.351  0.00  0.00    +0.000 C 
ATOM      5  C   UNL     1      -5.404  -4.790 132.625  0.00  0.00    +0.000 C 
ATOM      6  C   UNL     1      -5.393  -5.732 133.835  0.00  0.00    +0.000 C 
ATOM      7  C   UNL     1      -4.928  -4.803 134.703  0.00  0.00    +0.000 C 
ATOM      8  C   UNL     1      -5.832  -3.764 134.674  0.00  0.00    +0.000 C 
ATOM      9  C   UNL     1      -5.889  -2.843 133.582  0.00  0.00    +0.000 C 
ATOM     10  C   UNL     1      -6.900  -1.839 133.600  0.00  0.00    +0.000 C 
ATOM     11  C   UNL     1      -6.930  -0.918 132.399  0.00  0.00    +0.000 C 
ATOM     12  C   UNL     1      -8.009   0.108 132.559  0.00  0.00    +0.000 C 
ATOM     13  C   UNL     1      -8.252   1.064 131.654  0.00  0.00    +0.000 C 
ATOM     14  C   UNL     1      -9.323   2.067 131.801  0.00  0.00    +0.000 C 
ATOM     15  C   UNL     1      -9.590   3.016 130.887  0.00  0.00    +0.000 C 
ATOM     16  C   UNL     1     -10.645   4.024 131.055  0.00  0.00    +0.000 C 
ATOM     17  C   UNL     1     -10.985   4.889 130.091  0.00  0.00    +0.000 C 
ATOM     18  C   UNL     1     -12.033   5.908 130.298  0.00  0.00    +0.000 C 
ATOM     19  C   UNL     1     -12.395   6.662 129.300  0.00  0.00    +0.000 C 
ATOM     20  C   UNL     1     -13.410   7.837 129.659  0.00  0.00    +0.000 C 
ATOM     21  C   UNL     1     -13.142   8.259 128.322  0.00  0.00    +0.000 C 
ATOM     22  C   UNL     1     -13.557   8.142 127.044  0.00  0.00    +0.000 C 
ATOM     23  O   UNL     1     -13.149   9.173 129.101  0.00  0.00    +0.000 OA
ATOM     24  C   UNL     1     -11.232   8.032 129.579  0.00  0.00    +0.000 C 
ATOM     25  O   UNL     1     -12.416   9.425 128.687  0.00  0.00    +0.000 OA
ATOM     26  C   UNL     1      -9.501   6.191 130.606  0.00  0.00    +0.000 C 
ATOM     27  C   UNL     1      -7.815   4.461 131.535  0.00  0.00    +0.000 C 
ATOM     28  C   UNL     1      -5.932   2.659 132.376  0.00  0.00    +0.000 C 
ATOM     29  O   UNL     1      -4.759   1.195 133.692  0.00  0.00    +0.000 OA
ATOM     30  O   UNL     1      -6.522  -3.560 132.749  0.00  0.00    +0.000 OA
ENDROOT
BRANCH   3  31
ATOM     31  O   UNL     1      -3.319  -3.276 134.365  0.00  0.00    +0.000 OA
ATOM     32  H   UNL     1      -4.269  -3.131 134.766  0.00  0.00    +0.000 HD
ENDBRANCH   3  31
BRANCH   5  33
ATOM     33  O   UNL     1      -5.527  -5.991 130.894  0.00  0.00    +0.000 OA
ATOM     34  H   UNL     1      -5.966  -5.359 130.111  0.00  0.00    +0.000 HD
ENDBRANCH   5  33
BRANCH   7  35
ATOM     35  O   UNL     1      -4.732  -5.729 135.608  0.00  0.00    +0.000 OA
ATOM     36  H   UNL     1      -3.819  -5.547 135.870  0.00  0.00    +0.000 HD
ENDBRANCH   7  35
BRANCH   8  37
ATOM     37  C   UNL     1      -5.470  -3.057 135.894  0.00  0.00    +0.000 C 
ATOM     38  O   UNL     1      -5.674  -3.641 136.949  0.00  0.00    +0.000 OA
BRANCH  37  39
ATOM     39  O   UNL     1      -4.964  -1.774 135.879  0.00  0.00    +0.000 OA
ATOM     40  H   UNL     1      -5.009  -1.230 135.053  0.00  0.00    +0.000 HD
ENDBRANCH  37  39
ENDBRANCH   8  37
BRANCH  11  41
ATOM     41  O   UNL     1      -7.148  -1.668 131.197  0.00  0.00    +0.000 OA
BRANCH  41  42
ATOM     42  C   UNL     1      -6.324  -1.313 130.116  0.00  0.00    +0.000 C 
ATOM     43  O   UNL     1      -5.829  -0.172 129.694  0.00  0.00    +0.000 OA
ATOM     44  C   UNL     1      -5.228   0.045 128.559  0.00  0.00    +0.000 C 
ATOM     45  C   UNL     1      -5.055   2.044 128.073  0.00  0.00    +0.000 C 
ATOM     46  C   UNL     1      -6.062  -0.600 127.897  0.00  0.00    +0.000 C 
ATOM     47  C   UNL     1      -5.876  -1.910 127.848  0.00  0.00    +0.000 C 
ATOM     48  C   UNL     1      -6.756  -2.084 128.933  0.00  0.00    +0.000 C 
BRANCH  47  49
ATOM     49  N   UNL     1      -6.175  -2.429 126.533  0.00  0.00    +0.000 NA
ATOM     50  H   UNL     1      -6.949  -1.942 126.235  0.00  0.00    +0.000 HD
ATOM     51  H   UNL     1      -6.703  -3.216 126.726  0.00  0.00    +0.000 HD
ENDBRANCH  47  49
BRANCH  46  52
ATOM     52  O   UNL     1      -4.795   0.164 126.334  0.00  0.00    +0.000 OA
ATOM     53  H   UNL     1      -5.202   0.918 126.196  0.00  0.00    +0.000 HD
ENDBRANCH  46  52
BRANCH  48  54
ATOM     54  O   UNL     1      -8.064  -1.962 128.555  0.00  0.00    +0.000 OA
ATOM     55  H   UNL     1      -8.704  -2.636 128.690  0.00  0.00    +0.000 HD
ENDBRANCH  48  54
ENDBRANCH  41  42
ENDBRANCH  11  41
TORSDOF 10
ENDMDL
MODEL 7
REMARK VINA RESULT:      -8.7      4.131      4.762
REMARK  Name = Natamycin
REMARK  12 active torsions:
REMARK  status: ('A' for Active; 'I' for Inactive)
REMARK    1  A    between atoms: C_4  and  O_5
REMARK    2  A    between atoms: C_7  and  O_8
REMARK    3  A    between atoms: C_10  and  O_11
REMARK    4  A    between atoms: C_12  and  C_13
REMARK    5  A    between atoms: C_13  and  O_14
REMARK    6  A    between atoms: C_19  and  O_20
REMARK    7  A    between atoms: O_20  and  C_21
REMARK    8  A    between atoms: C_24  and  C_25
REMARK    9  A    between atoms: C_26  and  O_27
REMARK   10  A    between atoms: C_28  and  N_29
REMARK   11  A    between atoms: C_30  and  O_31
REMARK   12  A    between atoms: C_41  and  C_42
REMARK                            x       y       z     vdW  Elec       q    Type
REMARK                         _______ _______ _______ _____ _____    ______ ____
ROOT
ATOM      1  C   UNL     1      -3.755   3.386 131.277  0.00  0.00    +0.000 C 
ATOM      2  C   UNL     1      -3.888   1.651 129.492  0.00  0.00    +0.000 C 
ATOM      3  C   UNL     1      -4.436   0.244 129.810  0.00  0.00    +0.000 C 
ATOM      4  C   UNL     1      -5.921  -0.881 129.035  0.00  0.00    +0.000 C 
ATOM      5  C   UNL     1      -6.677  -1.467 130.865  0.00  0.00    +0.000 C 
ATOM      6  C   UNL     1      -6.059  -2.867 130.971  0.00  0.00    +0.000 C 
ATOM      7  C   UNL     1      -4.789  -2.422 131.124  0.00  0.00    +0.000 C 
ATOM      8  C   UNL     1      -4.797  -1.611 132.236  0.00  0.00    +0.000 C 
ATOM      9  C   UNL     1      -5.348  -0.292 132.204  0.00  0.00    +0.000 C 
ATOM     10  C   UNL     1      -5.378   0.456 133.417  0.00  0.00    +0.000 C 
ATOM     11  C   UNL     1      -6.006   1.830 133.326  0.00  0.00    +0.000 C 
ATOM     12  C   UNL     1      -5.942   2.520 134.653  0.00  0.00    +0.000 C 
ATOM     13  C   UNL     1      -6.407   3.758 134.860  0.00  0.00    +0.000 C 
ATOM     14  C   UNL     1      -6.359   4.434 136.169  0.00  0.00    +0.000 C 
ATOM     15  C   UNL     1      -6.845   5.668 136.392  0.00  0.00    +0.000 C 
ATOM     16  C   UNL     1      -6.771   6.341 137.695  0.00  0.00    +0.000 C 
ATOM     17  C   UNL     1      -7.362   7.516 137.942  0.00  0.00    +0.000 C 
ATOM     18  C   UNL     1      -7.249   8.182 139.255  0.00  0.00    +0.000 C 
ATOM     19  C   UNL     1      -7.921   9.275 139.476  0.00  0.00    +0.000 C 
ATOM     20  C   UNL     1      -7.609  10.006 140.857  0.00  0.00    +0.000 C 
ATOM     21  C   UNL     1      -8.413  11.046 140.303  0.00  0.00    +0.000 C 
ATOM     22  C   UNL     1      -9.676  11.511 140.216  0.00  0.00    +0.000 C 
ATOM     23  O   UNL     1      -7.426  11.465 140.843  0.00  0.00    +0.000 OA
ATOM     24  C   UNL     1      -6.654  10.466 138.944  0.00  0.00    +0.000 C 
ATOM     25  O   UNL     1      -7.346  11.968 140.127  0.00  0.00    +0.000 OA
ATOM     26  C   UNL     1      -5.792   8.573 137.179  0.00  0.00    +0.000 C 
ATOM     27  C   UNL     1      -4.984   6.817 135.457  0.00  0.00    +0.000 C 
ATOM     28  C   UNL     1      -4.192   5.065 133.507  0.00  0.00    +0.000 C 
ATOM     29  O   UNL     1      -3.189   3.296 132.452  0.00  0.00    +0.000 OA
ATOM     30  O   UNL     1      -6.579  -0.588 132.278  0.00  0.00    +0.000 OA
ENDROOT
BRANCH   3  31
ATOM     31  O   UNL     1      -3.769  -0.746 130.035  0.00  0.00    +0.000 OA
ATOM     32  H   UNL     1      -3.901  -0.998 131.037  0.00  0.00    +0.000 HD
ENDBRANCH   3  31
BRANCH   5  33
ATOM     33  O   UNL     1      -8.606  -1.693 130.039  0.00  0.00    +0.000 OA
ATOM     34  H   UNL     1      -8.501  -1.521 128.960  0.00  0.00    +0.000 HD
ENDBRANCH   5  33
BRANCH   7  35
ATOM     35  O   UNL     1      -4.332  -3.640 130.968  0.00  0.00    +0.000 OA
ATOM     36  H   UNL     1      -3.495  -3.591 131.450  0.00  0.00    +0.000 HD
ENDBRANCH   7  35
BRANCH   8  37
ATOM     37  C   UNL     1      -3.373  -1.541 132.530  0.00  0.00    +0.000 C 
ATOM     38  O   UNL     1      -2.821  -2.591 132.824  0.00  0.00    +0.000 OA
BRANCH  37  39
ATOM     39  O   UNL     1      -2.678  -0.349 132.527  0.00  0.00    +0.000 OA
ATOM     40  H   UNL     1      -2.092  -0.112 133.289  0.00  0.00    +0.000 HD
ENDBRANCH  37  39
ENDBRANCH   8  37
BRANCH  11  41
ATOM     41  O   UNL     1      -7.370   1.730 132.895  0.00  0.00    +0.000 OA
BRANCH  41  42
ATOM     42  C   UNL     1      -7.759   2.674 131.929  0.00  0.00    +0.000 C 
ATOM     43  O   UNL     1      -7.395   3.910 131.675  0.00  0.00    +0.000 OA
ATOM     44  C   UNL     1      -7.977   4.742 130.859  0.00  0.00    +0.000 C 
ATOM     45  C   UNL     1      -7.406   6.708 131.122  0.00  0.00    +0.000 C 
ATOM     46  C   UNL     1      -9.123   4.456 131.251  0.00  0.00    +0.000 C 
ATOM     47  C   UNL     1      -9.677   3.388 130.699  0.00  0.00    +0.000 C 
ATOM     48  C   UNL     1      -9.225   2.591 131.768  0.00  0.00    +0.000 C 
BRANCH  47  49
ATOM     49  N   UNL     1     -11.084   3.601 130.449  0.00  0.00    +0.000 NA
ATOM     50  H   UNL     1     -11.308   4.411 130.916  0.00  0.00    +0.000 HD
ATOM     51  H   UNL     1     -11.509   3.054 131.124  0.00  0.00    +0.000 HD
ENDBRANCH  47  49
BRANCH  46  52
ATOM     52  O   UNL     1      -9.545   6.040 129.855  0.00  0.00    +0.000 OA
ATOM     53  H   UNL     1     -10.371   5.839 129.679  0.00  0.00    +0.000 HD
ENDBRANCH  46  52
BRANCH  48  54
ATOM     54  O   UNL     1      -9.985   2.764 132.892  0.00  0.00    +0.000 OA
ATOM     55  H   UNL     1      -9.685   3.232 133.648  0.00  0.00    +0.000 HD
ENDBRANCH  48  54
ENDBRANCH  41  42
ENDBRANCH  11  41
TORSDOF 10
ENDMDL
MODEL 8
REMARK VINA RESULT:      -8.7      2.861      5.253
REMARK  Name = Natamycin
REMARK  12 active torsions:
REMARK  status: ('A' for Active; 'I' for Inactive)
REMARK    1  A    between atoms: C_4  and  O_5
REMARK    2  A    between atoms: C_7  and  O_8
REMARK    3  A    between atoms: C_10  and  O_11
REMARK    4  A    between atoms: C_12  and  C_13
REMARK    5  A    between atoms: C_13  and  O_14
REMARK    6  A    between atoms: C_19  and  O_20
REMARK    7  A    between atoms: O_20  and  C_21
REMARK    8  A    between atoms: C_24  and  C_25
REMARK    9  A    between atoms: C_26  and  O_27
REMARK   10  A    between atoms: C_28  and  N_29
REMARK   11  A    between atoms: C_30  and  O_31
REMARK   12  A    between atoms: C_41  and  C_42
REMARK                            x       y       z     vdW  Elec       q    Type
REMARK                         _______ _______ _______ _____ _____    ______ ____
ROOT
ATOM      1  C   UNL     1      -7.860   3.701 129.363  0.00  0.00    +0.000 C 
ATOM      2  C   UNL     1      -8.945   1.756 128.244  0.00  0.00    +0.000 C 
ATOM      3  C   UNL     1      -8.205   0.984 127.131  0.00  0.00    +0.000 C 
ATOM      4  C   UNL     1      -7.715  -0.956 126.872  0.00  0.00    +0.000 C 
ATOM      5  C   UNL     1      -5.782  -0.572 126.252  0.00  0.00    +0.000 C 
ATOM      6  C   UNL     1      -5.959  -0.710 124.735  0.00  0.00    +0.000 C 
ATOM      7  C   UNL     1      -6.711   0.409 124.603  0.00  0.00    +0.000 C 
ATOM      8  C   UNL     1      -5.949   1.445 125.094  0.00  0.00    +0.000 C 
ATOM      9  C   UNL     1      -5.752   1.638 126.497  0.00  0.00    +0.000 C 
ATOM     10  C   UNL     1      -4.893   2.693 126.918  0.00  0.00    +0.000 C 
ATOM     11  C   UNL     1      -4.697   2.823 128.413  0.00  0.00    +0.000 C 
ATOM     12  C   UNL     1      -3.806   3.986 128.722  0.00  0.00    +0.000 C 
ATOM     13  C   UNL     1      -3.476   4.347 129.968  0.00  0.00    +0.000 C 
ATOM     14  C   UNL     1      -2.587   5.483 130.275  0.00  0.00    +0.000 C 
ATOM     15  C   UNL     1      -2.231   5.839 131.521  0.00  0.00    +0.000 C 
ATOM     16  C   UNL     1      -1.364   6.987 131.816  0.00  0.00    +0.000 C 
ATOM     17  C   UNL     1      -0.916   7.263 133.047  0.00  0.00    +0.000 C 
ATOM     18  C   UNL     1      -0.065   8.440 133.317  0.00  0.00    +0.000 C 
ATOM     19  C   UNL     1       0.425   8.612 134.511  0.00  0.00    +0.000 C 
ATOM     20  C   UNL     1       1.191   9.989 134.748  0.00  0.00    +0.000 C 
ATOM     21  C   UNL     1       1.186   9.571 136.112  0.00  0.00    +0.000 C 
ATOM     22  C   UNL     1       1.890   8.893 137.042  0.00  0.00    +0.000 C 
ATOM     23  O   UNL     1       0.913  10.733 135.986  0.00  0.00    +0.000 OA
ATOM     24  C   UNL     1      -0.920   9.628 135.195  0.00  0.00    +0.000 C 
ATOM     25  O   UNL     1       0.268  10.561 136.557  0.00  0.00    +0.000 OA
ATOM     26  C   UNL     1      -2.616   8.277 133.540  0.00  0.00    +0.000 C 
ATOM     27  C   UNL     1      -4.260   6.976 132.022  0.00  0.00    +0.000 C 
ATOM     28  C   UNL     1      -6.066   5.526 130.560  0.00  0.00    +0.000 C 
ATOM     29  O   UNL     1      -7.330   4.761 128.810  0.00  0.00    +0.000 OA
ATOM     30  O   UNL     1      -4.869   0.749 126.699  0.00  0.00    +0.000 OA
ENDROOT
BRANCH   3  31
ATOM     31  O   UNL     1      -8.366   1.130 125.936  0.00  0.00    +0.000 OA
ATOM     32  H   UNL     1      -9.162   1.788 125.800  0.00  0.00    +0.000 HD
ENDBRANCH   3  31
BRANCH   5  33
ATOM     33  O   UNL     1      -5.135  -2.443 126.982  0.00  0.00    +0.000 OA
ATOM     34  H   UNL     1      -4.152  -2.272 127.441  0.00  0.00    +0.000 HD
ENDBRANCH   5  33
BRANCH   7  35
ATOM     35  O   UNL     1      -6.999   0.082 123.367  0.00  0.00    +0.000 OA
ATOM     36  H   UNL     1      -7.785   0.625 123.207  0.00  0.00    +0.000 HD
ENDBRANCH   7  35
BRANCH   8  37
ATOM     37  C   UNL     1      -6.655   2.589 124.536  0.00  0.00    +0.000 C 
ATOM     38  O   UNL     1      -6.613   2.721 123.321  0.00  0.00    +0.000 OA
BRANCH  37  39
ATOM     39  O   UNL     1      -7.306   3.512 125.329  0.00  0.00    +0.000 OA
ATOM     40  H   UNL     1      -6.806   4.272 125.721  0.00  0.00    +0.000 HD
ENDBRANCH  37  39
ENDBRANCH   8  37
BRANCH  11  41
ATOM     41  O   UNL     1      -4.129   1.621 128.951  0.00  0.00    +0.000 OA
BRANCH  41  42
ATOM     42  C   UNL     1      -4.702   1.178 130.154  0.00  0.00    +0.000 C 
ATOM     43  O   UNL     1      -4.330   1.247 131.412  0.00  0.00    +0.000 OA
ATOM     44  C   UNL     1      -4.870   0.624 132.420  0.00  0.00    +0.000 C 
ATOM     45  C   UNL     1      -3.696   0.606 134.118  0.00  0.00    +0.000 C 
ATOM     46  C   UNL     1      -4.956  -0.460 131.814  0.00  0.00    +0.000 C 
ATOM     47  C   UNL     1      -6.018  -0.608 131.037  0.00  0.00    +0.000 C 
ATOM     48  C   UNL     1      -5.279  -0.163 129.926  0.00  0.00    +0.000 C 
BRANCH  47  49
ATOM     49  N   UNL     1      -6.538  -1.954 131.118  0.00  0.00    +0.000 NA
ATOM     50  H   UNL     1      -7.341  -1.951 130.588  0.00  0.00    +0.000 HD
ATOM     51  H   UNL     1      -7.043  -1.941 131.943  0.00  0.00    +0.000 HD
ENDBRANCH  47  49
BRANCH  46  52
ATOM     52  O   UNL     1      -5.658  -1.023 133.769  0.00  0.00    +0.000 OA
ATOM     53  H   UNL     1      -6.125  -0.314 133.946  0.00  0.00    +0.000 HD
ENDBRANCH  46  52
BRANCH  48  54
ATOM     54  O   UNL     1      -4.436  -1.129 129.451  0.00  0.00    +0.000 OA
ATOM     55  H   UNL     1      -3.817  -0.978 128.762  0.00  0.00    +0.000 HD
ENDBRANCH  48  54
ENDBRANCH  41  42
ENDBRANCH  11  41
TORSDOF 10
ENDMDL
MODEL 9
REMARK VINA RESULT:      -8.1      4.627     10.090
REMARK  Name = Natamycin
REMARK  12 active torsions:
REMARK  status: ('A' for Active; 'I' for Inactive)
REMARK    1  A    between atoms: C_4  and  O_5
REMARK    2  A    between atoms: C_7  and  O_8
REMARK    3  A    between atoms: C_10  and  O_11
REMARK    4  A    between atoms: C_12  and  C_13
REMARK    5  A    between atoms: C_13  and  O_14
REMARK    6  A    between atoms: C_19  and  O_20
REMARK    7  A    between atoms: O_20  and  C_21
REMARK    8  A    between atoms: C_24  and  C_25
REMARK    9  A    between atoms: C_26  and  O_27
REMARK   10  A    between atoms: C_28  and  N_29
REMARK   11  A    between atoms: C_30  and  O_31
REMARK   12  A    between atoms: C_41  and  C_42
REMARK                            x       y       z     vdW  Elec       q    Type
REMARK                         _______ _______ _______ _____ _____    ______ ____
ROOT
ATOM      1  C   UNL     1      -3.995   1.032 129.294  0.00  0.00    +0.000 C 
ATOM      2  C   UNL     1      -3.896   2.879 127.624  0.00  0.00    +0.000 C 
ATOM      3  C   UNL     1      -5.079   3.127 126.663  0.00  0.00    +0.000 C 
ATOM      4  C   UNL     1      -6.229   4.734 126.258  0.00  0.00    +0.000 C 
ATOM      5  C   UNL     1      -8.012   3.691 126.285  0.00  0.00    +0.000 C 
ATOM      6  C   UNL     1      -8.234   3.508 124.778  0.00  0.00    +0.000 C 
ATOM      7  C   UNL     1      -7.204   2.646 124.612  0.00  0.00    +0.000 C 
ATOM      8  C   UNL     1      -7.449   1.586 125.456  0.00  0.00    +0.000 C 
ATOM      9  C   UNL     1      -7.252   1.684 126.868  0.00  0.00    +0.000 C 
ATOM     10  C   UNL     1      -7.596   0.562 127.677  0.00  0.00    +0.000 C 
ATOM     11  C   UNL     1      -7.399   0.742 129.166  0.00  0.00    +0.000 C 
ATOM     12  C   UNL     1      -7.761  -0.516 129.894  0.00  0.00    +0.000 C 
ATOM     13  C   UNL     1      -7.665  -0.648 131.222  0.00  0.00    +0.000 C 
ATOM     14  C   UNL     1      -8.035  -1.881 131.943  0.00  0.00    +0.000 C 
ATOM     15  C   UNL     1      -7.965  -2.016 133.279  0.00  0.00    +0.000 C 
ATOM     16  C   UNL     1      -8.314  -3.255 133.984  0.00  0.00    +0.000 C 
ATOM     17  C   UNL     1      -8.358  -3.346 135.319  0.00  0.00    +0.000 C 
ATOM     18  C   UNL     1      -8.687  -4.613 136.001  0.00  0.00    +0.000 C 
ATOM     19  C   UNL     1      -8.813  -4.627 137.297  0.00  0.00    +0.000 C 
ATOM     20  C   UNL     1      -9.006  -6.066 137.954  0.00  0.00    +0.000 C 
ATOM     21  C   UNL     1      -8.835  -5.352 139.177  0.00  0.00    +0.000 C 
ATOM     22  C   UNL     1      -9.498  -4.697 140.152  0.00  0.00    +0.000 C 
ATOM     23  O   UNL     1      -8.227  -6.387 139.160  0.00  0.00    +0.000 OA
ATOM     24  C   UNL     1      -7.091  -5.035 137.716  0.00  0.00    +0.000 C 
ATOM     25  O   UNL     1      -7.566  -5.911 139.489  0.00  0.00    +0.000 OA
ATOM     26  C   UNL     1      -6.353  -3.698 135.456  0.00  0.00    +0.000 C 
ATOM     27  C   UNL     1      -5.617  -2.389 133.347  0.00  0.00    +0.000 C 
ATOM     28  C   UNL     1      -4.768  -0.883 131.224  0.00  0.00    +0.000 C 
ATOM     29  O   UNL     1      -4.254  -0.233 129.087  0.00  0.00    +0.000 OA
ATOM     30  O   UNL     1      -8.311   2.313 127.174  0.00  0.00    +0.000 OA
ENDROOT
BRANCH   3  31
ATOM     31  O   UNL     1      -5.150   2.753 125.510  0.00  0.00    +0.000 OA
ATOM     32  H   UNL     1      -4.182   2.554 125.180  0.00  0.00    +0.000 HD
ENDBRANCH   3  31
BRANCH   5  33
ATOM     33  O   UNL     1      -9.063   5.425 126.870  0.00  0.00    +0.000 OA
ATOM     34  H   UNL     1      -9.685   5.713 126.012  0.00  0.00    +0.000 HD
ENDBRANCH   5  33
BRANCH   7  35
ATOM     35  O   UNL     1      -7.323   2.737 123.311  0.00  0.00    +0.000 OA
ATOM     36  H   UNL     1      -7.105   3.668 123.165  0.00  0.00    +0.000 HD
ENDBRANCH   7  35
BRANCH   8  37
ATOM     37  C   UNL     1      -6.547   0.586 124.903  0.00  0.00    +0.000 C 
ATOM     38  O   UNL     1      -6.800   0.178 123.779  0.00  0.00    +0.000 OA
BRANCH  37  39
ATOM     39  O   UNL     1      -5.481   0.080 125.618  0.00  0.00    +0.000 OA
ATOM     40  H   UNL     1      -4.951   0.673 126.209  0.00  0.00    +0.000 HD
ENDBRANCH  37  39
ENDBRANCH   8  37
BRANCH  11  41
ATOM     41  O   UNL     1      -8.198   1.829 129.650  0.00  0.00    +0.000 OA
BRANCH  41  42
ATOM     42  C   UNL     1      -7.560   2.669 130.579  0.00  0.00    +0.000 C 
ATOM     43  O   UNL     1      -7.723   2.884 131.865  0.00  0.00    +0.000 OA
ATOM     44  C   UNL     1      -7.184   3.836 132.570  0.00  0.00    +0.000 C 
ATOM     45  C   UNL     1      -8.076   4.121 134.410  0.00  0.00    +0.000 C 
ATOM     46  C   UNL     1      -7.414   4.714 131.718  0.00  0.00    +0.000 C 
ATOM     47  C   UNL     1      -6.530   4.818 130.738  0.00  0.00    +0.000 C 
ATOM     48  C   UNL     1      -7.315   3.973 129.930  0.00  0.00    +0.000 C 
BRANCH  47  49
ATOM     49  N   UNL     1      -6.296   6.201 130.393  0.00  0.00    +0.000 NA
ATOM     50  H   UNL     1      -5.353   6.341 130.520  0.00  0.00    +0.000 HD
ATOM     51  H   UNL     1      -6.510   6.667 131.213  0.00  0.00    +0.000 HD
ENDBRANCH  47  49
BRANCH  46  52
ATOM     52  O   UNL     1      -6.568   5.893 133.308  0.00  0.00    +0.000 OA
ATOM     53  H   UNL     1      -7.307   6.168 133.671  0.00  0.00    +0.000 HD
ENDBRANCH  46  52
BRANCH  48  54
ATOM     54  O   UNL     1      -8.400   4.623 129.412  0.00  0.00    +0.000 OA
ATOM     55  H   UNL     1      -9.084   4.986 129.943  0.00  0.00    +0.000 HD
ENDBRANCH  48  54
ENDBRANCH  41  42
ENDBRANCH  11  41
TORSDOF 10
ENDMDL
