MODEL 1
REMARK VINA RESULT:      -8.3      0.000      0.000
REMARK  Name = Nateglinide
REMARK  9 active torsions:
REMARK  status: ('A' for Active; 'I' for Inactive)
REMARK    1  A    between atoms: C_1  and  C_2
REMARK    2  A    between atoms: C_2  and  C_3
REMARK    3  A    between atoms: C_2  and  C_4
REMARK    4  A    between atoms: C_7  and  C_10
REMARK    5  A    between atoms: N_12  and  CA_13
REMARK    6  A    between atoms: CA_13  and  CB_14
REMARK    7  A    between atoms: CA_13  and  C_21
REMARK    8  A    between atoms: CB_14  and  CG_15
REMARK    9  A    between atoms: C_21  and  O_22
REMARK                            x       y       z     vdW  Elec       q    Type
REMARK                         _______ _______ _______ _____ _____    ______ ____
ROOT
ATOM      1  C   UNK A   0      -7.101   0.082 124.262  0.00  0.00    +0.000 C 
ATOM      2  O   UNK A   0      -6.719  -1.013 123.883  0.00  0.00    +0.000 OA
ATOM      3  N   PHE A   1      -7.104   1.222 123.402  0.00  0.00    +0.000 N 
ATOM      4  H   PHE A   1      -6.673   1.116 122.512  0.00  0.00    +0.000 HD
ENDROOT
BRANCH   1   8
ATOM      5  C   UNK A   0      -7.571  -2.811 127.598  0.00  0.00    +0.000 C 
ATOM      6  C   UNK A   0      -9.183  -2.631 126.259  0.00  0.00    +0.000 C 
ATOM      7  C   UNK A   0      -8.881  -0.706 125.380  0.00  0.00    +0.000 C 
ATOM      8  C   UNK A   0      -7.415   0.248 125.727  0.00  0.00    +0.000 C 
ATOM      9  C   UNK A   0      -6.245  -0.095 126.882  0.00  0.00    +0.000 C 
ATOM     10  C   UNK A   0      -5.959  -1.701 127.230  0.00  0.00    +0.000 C 
BRANCH   5  12
ATOM     11  C   UNK A   0      -7.960  -1.431 129.914  0.00  0.00    +0.000 C 
ATOM     12  C   UNK A   0      -7.939  -2.780 129.126  0.00  0.00    +0.000 C 
ATOM     13  C   UNK A   0      -6.923  -3.733 129.796  0.00  0.00    +0.000 C 
ENDBRANCH   5  12
ENDBRANCH   1   8
BRANCH   3  14
ATOM     14  CA  PHE A   1      -7.361   2.629 123.764  0.00  0.00    +0.000 C 
BRANCH  14  15
ATOM     15  C   PHE A   1      -6.285   3.625 124.384  0.00  0.00    +0.000 C 
ATOM     16  OXT PHE A   1      -5.511   3.203 125.237  0.00  0.00    +0.000 OA
BRANCH  15  17
ATOM     17  O   PHE A   1      -6.262   4.954 124.092  0.00  0.00    +0.000 OA
ATOM     18  H   PHE A   1      -5.474   5.534 124.088  0.00  0.00    +0.000 HD
ENDBRANCH  15  17
ENDBRANCH  14  15
BRANCH  14  19
ATOM     19  CB  PHE A   1      -7.975   3.199 122.412  0.00  0.00    +0.000 C 
BRANCH  19  20
ATOM     20  CG  PHE A   1      -7.227   3.735 120.545  0.00  0.00    +0.000 A 
ATOM     21  CD1 PHE A   1      -5.534   4.319 120.567  0.00  0.00    +0.000 A 
ATOM     22  CE1 PHE A   1      -5.168   5.435 119.887  0.00  0.00    +0.000 A 
ATOM     23  CZ  PHE A   1      -5.899   5.550 118.748  0.00  0.00    +0.000 A 
ATOM     24  CE2 PHE A   1      -7.122   4.868 118.514  0.00  0.00    +0.000 A 
ATOM     25  CD2 PHE A   1      -7.899   4.180 119.447  0.00  0.00    +0.000 A 
ENDBRANCH  19  20
ENDBRANCH  14  19
ENDBRANCH   3  14
TORSDOF 7
ENDMDL
MODEL 2
REMARK VINA RESULT:      -8.2      2.207      3.056
REMARK  Name = Nateglinide
REMARK  9 active torsions:
REMARK  status: ('A' for Active; 'I' for Inactive)
REMARK    1  A    between atoms: C_1  and  C_2
REMARK    2  A    between atoms: C_2  and  C_3
REMARK    3  A    between atoms: C_2  and  C_4
REMARK    4  A    between atoms: C_7  and  C_10
REMARK    5  A    between atoms: N_12  and  CA_13
REMARK    6  A    between atoms: CA_13  and  CB_14
REMARK    7  A    between atoms: CA_13  and  C_21
REMARK    8  A    between atoms: CB_14  and  CG_15
REMARK    9  A    between atoms: C_21  and  O_22
REMARK                            x       y       z     vdW  Elec       q    Type
REMARK                         _______ _______ _______ _____ _____    ______ ____
ROOT
ATOM      1  C   UNK A   0      -8.100   2.773 124.579  0.00  0.00    +0.000 C 
ATOM      2  O   UNK A   0      -9.256   2.439 124.374  0.00  0.00    +0.000 OA
ATOM      3  N   PHE A   1      -7.719   4.144 124.695  0.00  0.00    +0.000 N 
ATOM      4  H   PHE A   1      -8.414   4.824 124.488  0.00  0.00    +0.000 HD
ENDROOT
BRANCH   1   8
ATOM      5  C   UNK A   0      -8.208  -1.611 125.275  0.00  0.00    +0.000 C 
ATOM      6  C   UNK A   0      -8.238  -0.376 126.977  0.00  0.00    +0.000 C 
ATOM      7  C   UNK A   0      -7.410   1.462 126.266  0.00  0.00    +0.000 C 
ATOM      8  C   UNK A   0      -7.041   1.702 124.537  0.00  0.00    +0.000 C 
ATOM      9  C   UNK A   0      -7.075   0.531 123.333  0.00  0.00    +0.000 C 
ATOM     10  C   UNK A   0      -8.178  -0.709 123.501  0.00  0.00    +0.000 C 
BRANCH   5  12
ATOM     11  C   UNK A   0      -5.759  -2.663 124.716  0.00  0.00    +0.000 C 
ATOM     12  C   UNK A   0      -7.195  -2.812 125.314  0.00  0.00    +0.000 C 
ATOM     13  C   UNK A   0      -7.921  -3.966 124.585  0.00  0.00    +0.000 C 
ENDBRANCH   5  12
ENDBRANCH   1   8
BRANCH   3  14
ATOM     14  CA  PHE A   1      -6.354   4.702 124.760  0.00  0.00    +0.000 C 
BRANCH  14  15
ATOM     15  C   PHE A   1      -5.372   4.577 126.006  0.00  0.00    +0.000 C 
ATOM     16  OXT PHE A   1      -5.645   5.182 127.037  0.00  0.00    +0.000 OA
BRANCH  15  17
ATOM     17  O   PHE A   1      -4.183   3.918 125.939  0.00  0.00    +0.000 OA
ATOM     18  H   PHE A   1      -3.462   4.088 125.300  0.00  0.00    +0.000 HD
ENDBRANCH  15  17
ENDBRANCH  14  15
BRANCH  14  19
ATOM     19  CB  PHE A   1      -5.701   4.103 123.438  0.00  0.00    +0.000 C 
BRANCH  19  20
ATOM     20  CG  PHE A   1      -6.277   3.914 121.447  0.00  0.00    +0.000 A 
ATOM     21  CD1 PHE A   1      -5.150   4.670 120.277  0.00  0.00    +0.000 A 
ATOM     22  CE1 PHE A   1      -5.610   5.444 119.261  0.00  0.00    +0.000 A 
ATOM     23  CZ  PHE A   1      -6.812   4.982 118.827  0.00  0.00    +0.000 A 
ATOM     24  CE2 PHE A   1      -7.648   4.112 119.576  0.00  0.00    +0.000 A 
ATOM     25  CD2 PHE A   1      -7.527   3.775 120.924  0.00  0.00    +0.000 A 
ENDBRANCH  19  20
ENDBRANCH  14  19
ENDBRANCH   3  14
TORSDOF 7
ENDMDL
MODEL 3
REMARK VINA RESULT:      -8.1      1.719      2.336
REMARK  Name = Nateglinide
REMARK  9 active torsions:
REMARK  status: ('A' for Active; 'I' for Inactive)
REMARK    1  A    between atoms: C_1  and  C_2
REMARK    2  A    between atoms: C_2  and  C_3
REMARK    3  A    between atoms: C_2  and  C_4
REMARK    4  A    between atoms: C_7  and  C_10
REMARK    5  A    between atoms: N_12  and  CA_13
REMARK    6  A    between atoms: CA_13  and  CB_14
REMARK    7  A    between atoms: CA_13  and  C_21
REMARK    8  A    between atoms: CB_14  and  CG_15
REMARK    9  A    between atoms: C_21  and  O_22
REMARK                            x       y       z     vdW  Elec       q    Type
REMARK                         _______ _______ _______ _____ _____    ______ ____
ROOT
ATOM      1  C   UNK A   0      -7.628  -1.210 124.450  0.00  0.00    +0.000 C 
ATOM      2  O   UNK A   0      -6.993  -2.250 124.370  0.00  0.00    +0.000 OA
ATOM      3  N   PHE A   1      -7.933  -0.420 123.302  0.00  0.00    +0.000 N 
ATOM      4  H   PHE A   1      -7.508  -0.689 122.443  0.00  0.00    +0.000 HD
ENDROOT
BRANCH   1   8
ATOM      5  C   UNK A   0      -7.460  -3.035 128.495  0.00  0.00    +0.000 C 
ATOM      6  C   UNK A   0      -9.100  -3.553 127.284  0.00  0.00    +0.000 C 
ATOM      7  C   UNK A   0      -9.198  -1.948 125.875  0.00  0.00    +0.000 C 
ATOM      8  C   UNK A   0      -7.941  -0.683 125.827  0.00  0.00    +0.000 C 
ATOM      9  C   UNK A   0      -6.706  -0.453 126.942  0.00  0.00    +0.000 C 
ATOM     10  C   UNK A   0      -6.105  -1.807 127.709  0.00  0.00    +0.000 C 
BRANCH   5  12
ATOM     11  C   UNK A   0      -7.865  -1.122 130.392  0.00  0.00    +0.000 C 
ATOM     12  C   UNK A   0      -7.799  -2.627 129.974  0.00  0.00    +0.000 C 
ATOM     13  C   UNK A   0      -6.729  -3.336 130.836  0.00  0.00    +0.000 C 
ENDBRANCH   5  12
ENDBRANCH   1   8
BRANCH   3  14
ATOM     14  CA  PHE A   1      -8.524   0.932 123.263  0.00  0.00    +0.000 C 
BRANCH  14  15
ATOM     15  C   PHE A   1      -9.612   1.484 124.285  0.00  0.00    +0.000 C 
ATOM     16  OXT PHE A   1     -10.679   0.889 124.391  0.00  0.00    +0.000 OA
BRANCH  15  17
ATOM     17  O   PHE A   1      -9.454   2.654 124.962  0.00  0.00    +0.000 OA
ATOM     18  H   PHE A   1      -8.731   2.870 125.586  0.00  0.00    +0.000 HD
ENDBRANCH  15  17
ENDBRANCH  14  15
BRANCH  14  19
ATOM     19  CB  PHE A   1      -7.223   1.849 123.240  0.00  0.00    +0.000 C 
BRANCH  19  20
ATOM     20  CG  PHE A   1      -6.586   3.503 122.151  0.00  0.00    +0.000 A 
ATOM     21  CD1 PHE A   1      -7.583   3.866 120.707  0.00  0.00    +0.000 A 
ATOM     22  CE1 PHE A   1      -7.007   4.152 119.511  0.00  0.00    +0.000 A 
ATOM     23  CZ  PHE A   1      -5.839   4.819 119.701  0.00  0.00    +0.000 A 
ATOM     24  CE2 PHE A   1      -5.125   4.842 120.928  0.00  0.00    +0.000 A 
ATOM     25  CD2 PHE A   1      -5.335   4.031 122.045  0.00  0.00    +0.000 A 
ENDBRANCH  19  20
ENDBRANCH  14  19
ENDBRANCH   3  14
TORSDOF 7
ENDMDL
MODEL 4
REMARK VINA RESULT:      -7.8      4.465      6.095
REMARK  Name = Nateglinide
REMARK  9 active torsions:
REMARK  status: ('A' for Active; 'I' for Inactive)
REMARK    1  A    between atoms: C_1  and  C_2
REMARK    2  A    between atoms: C_2  and  C_3
REMARK    3  A    between atoms: C_2  and  C_4
REMARK    4  A    between atoms: C_7  and  C_10
REMARK    5  A    between atoms: N_12  and  CA_13
REMARK    6  A    between atoms: CA_13  and  CB_14
REMARK    7  A    between atoms: CA_13  and  C_21
REMARK    8  A    between atoms: CB_14  and  CG_15
REMARK    9  A    between atoms: C_21  and  O_22
REMARK                            x       y       z     vdW  Elec       q    Type
REMARK                         _______ _______ _______ _____ _____    ______ ____
ROOT
ATOM      1  C   UNK A   0      -4.143   3.820 126.532  0.00  0.00    +0.000 C 
ATOM      2  O   UNK A   0      -2.957   3.532 126.519  0.00  0.00    +0.000 OA
ATOM      3  N   PHE A   1      -5.059   3.298 125.570  0.00  0.00    +0.000 N 
ATOM      4  H   PHE A   1      -4.671   2.778 124.815  0.00  0.00    +0.000 HD
ENDROOT
BRANCH   1   8
ATOM      5  C   UNK A   0      -2.624   5.170 130.481  0.00  0.00    +0.000 C 
ATOM      6  C   UNK A   0      -3.741   3.388 130.449  0.00  0.00    +0.000 C 
ATOM      7  C   UNK A   0      -4.868   3.546 128.639  0.00  0.00    +0.000 C 
ATOM      8  C   UNK A   0      -4.596   4.887 127.495  0.00  0.00    +0.000 C 
ATOM      9  C   UNK A   0      -3.645   6.248 127.753  0.00  0.00    +0.000 C 
ATOM     10  C   UNK A   0      -2.308   6.073 128.735  0.00  0.00    +0.000 C 
BRANCH   5  12
ATOM     11  C   UNK A   0      -4.009   7.378 131.271  0.00  0.00    +0.000 C 
ATOM     12  C   UNK A   0      -3.020   6.211 131.589  0.00  0.00    +0.000 C 
ATOM     13  C   UNK A   0      -1.678   6.811 132.067  0.00  0.00    +0.000 C 
ENDBRANCH   5  12
ENDBRANCH   1   8
BRANCH   3  14
ATOM     14  CA  PHE A   1      -6.464   3.691 125.350  0.00  0.00    +0.000 C 
BRANCH  14  15
ATOM     15  C   PHE A   1      -6.983   5.189 125.209  0.00  0.00    +0.000 C 
ATOM     16  OXT PHE A   1      -6.180   6.068 124.913  0.00  0.00    +0.000 OA
BRANCH  15  17
ATOM     17  O   PHE A   1      -8.257   5.554 125.517  0.00  0.00    +0.000 OA
ATOM     18  H   PHE A   1      -8.531   6.372 125.980  0.00  0.00    +0.000 HD
ENDBRANCH  15  17
ENDBRANCH  14  15
BRANCH  14  19
ATOM     19  CB  PHE A   1      -6.844   2.817 124.075  0.00  0.00    +0.000 C 
BRANCH  19  20
ATOM     20  CG  PHE A   1      -6.909   3.133 122.019  0.00  0.00    +0.000 A 
ATOM     21  CD1 PHE A   1      -5.353   3.657 121.302  0.00  0.00    +0.000 A 
ATOM     22  CE1 PHE A   1      -5.300   4.684 120.416  0.00  0.00    +0.000 A 
ATOM     23  CZ  PHE A   1      -6.427   4.707 119.657  0.00  0.00    +0.000 A 
ATOM     24  CE2 PHE A   1      -7.635   4.047 120.005  0.00  0.00    +0.000 A 
ATOM     25  CD2 PHE A   1      -7.968   3.486 121.239  0.00  0.00    +0.000 A 
ENDBRANCH  19  20
ENDBRANCH  14  19
ENDBRANCH   3  14
TORSDOF 7
ENDMDL
MODEL 5
REMARK VINA RESULT:      -7.7      3.311      5.204
REMARK  Name = Nateglinide
REMARK  9 active torsions:
REMARK  status: ('A' for Active; 'I' for Inactive)
REMARK    1  A    between atoms: C_1  and  C_2
REMARK    2  A    between atoms: C_2  and  C_3
REMARK    3  A    between atoms: C_2  and  C_4
REMARK    4  A    between atoms: C_7  and  C_10
REMARK    5  A    between atoms: N_12  and  CA_13
REMARK    6  A    between atoms: CA_13  and  CB_14
REMARK    7  A    between atoms: CA_13  and  C_21
REMARK    8  A    between atoms: CB_14  and  CG_15
REMARK    9  A    between atoms: C_21  and  O_22
REMARK                            x       y       z     vdW  Elec       q    Type
REMARK                         _______ _______ _______ _____ _____    ______ ____
ROOT
ATOM      1  C   UNK A   0      -6.022   1.153 126.795  0.00  0.00    +0.000 C 
ATOM      2  O   UNK A   0      -5.027   1.352 127.474  0.00  0.00    +0.000 OA
ATOM      3  N   PHE A   1      -6.340   1.964 125.664  0.00  0.00    +0.000 N 
ATOM      4  H   PHE A   1      -5.779   2.772 125.516  0.00  0.00    +0.000 HD
ENDROOT
BRANCH   1   8
ATOM      5  C   UNK A   0      -5.850  -1.933 129.984  0.00  0.00    +0.000 C 
ATOM      6  C   UNK A   0      -4.848  -2.364 128.185  0.00  0.00    +0.000 C 
ATOM      7  C   UNK A   0      -5.804  -1.081 126.768  0.00  0.00    +0.000 C 
ATOM      8  C   UNK A   0      -7.011   0.127 127.283  0.00  0.00    +0.000 C 
ATOM      9  C   UNK A   0      -7.694   0.274 128.810  0.00  0.00    +0.000 C 
ATOM     10  C   UNK A   0      -6.752  -0.163 130.116  0.00  0.00    +0.000 C 
BRANCH   5  12
ATOM     11  C   UNK A   0      -6.150  -4.424 131.044  0.00  0.00    +0.000 C 
ATOM     12  C   UNK A   0      -6.767  -3.076 130.551  0.00  0.00    +0.000 C 
ATOM     13  C   UNK A   0      -7.775  -3.373 129.418  0.00  0.00    +0.000 C 
ENDBRANCH   5  12
ENDBRANCH   1   8
BRANCH   3  14
ATOM     14  CA  PHE A   1      -7.582   1.961 124.867  0.00  0.00    +0.000 C 
BRANCH  14  15
ATOM     15  C   PHE A   1      -8.323   3.260 124.323  0.00  0.00    +0.000 C 
ATOM     16  OXT PHE A   1      -8.826   4.035 125.130  0.00  0.00    +0.000 OA
BRANCH  15  17
ATOM     17  O   PHE A   1      -8.523   3.488 122.997  0.00  0.00    +0.000 OA
ATOM     18  H   PHE A   1      -7.854   3.403 122.287  0.00  0.00    +0.000 HD
ENDBRANCH  15  17
ENDBRANCH  14  15
BRANCH  14  19
ATOM     19  CB  PHE A   1      -7.201   0.966 123.685  0.00  0.00    +0.000 C 
BRANCH  19  20
ATOM     20  CG  PHE A   1      -7.097  -1.099 123.452  0.00  0.00    +0.000 A 
ATOM     21  CD1 PHE A   1      -8.543  -1.983 124.033  0.00  0.00    +0.000 A 
ATOM     22  CE1 PHE A   1      -8.423  -3.100 124.795  0.00  0.00    +0.000 A 
ATOM     23  CZ  PHE A   1      -7.315  -3.798 124.433  0.00  0.00    +0.000 A 
ATOM     24  CE2 PHE A   1      -6.237  -3.250 123.688  0.00  0.00    +0.000 A 
ATOM     25  CD2 PHE A   1      -5.998  -1.904 123.410  0.00  0.00    +0.000 A 
ENDBRANCH  19  20
ENDBRANCH  14  19
ENDBRANCH   3  14
TORSDOF 7
ENDMDL
MODEL 6
REMARK VINA RESULT:      -7.6      2.143      8.728
REMARK  Name = Nateglinide
REMARK  9 active torsions:
REMARK  status: ('A' for Active; 'I' for Inactive)
REMARK    1  A    between atoms: C_1  and  C_2
REMARK    2  A    between atoms: C_2  and  C_3
REMARK    3  A    between atoms: C_2  and  C_4
REMARK    4  A    between atoms: C_7  and  C_10
REMARK    5  A    between atoms: N_12  and  CA_13
REMARK    6  A    between atoms: CA_13  and  CB_14
REMARK    7  A    between atoms: CA_13  and  C_21
REMARK    8  A    between atoms: CB_14  and  CG_15
REMARK    9  A    between atoms: C_21  and  O_22
REMARK                            x       y       z     vdW  Elec       q    Type
REMARK                         _______ _______ _______ _____ _____    ______ ____
ROOT
ATOM      1  C   UNK A   0      -8.912   0.389 125.439  0.00  0.00    +0.000 C 
ATOM      2  O   UNK A   0      -9.243   1.473 125.891  0.00  0.00    +0.000 OA
ATOM      3  N   PHE A   1      -9.457  -0.835 125.933  0.00  0.00    +0.000 N 
ATOM      4  H   PHE A   1     -10.034  -0.777 126.741  0.00  0.00    +0.000 HD
ENDROOT
BRANCH   1   8
ATOM      5  C   UNK A   0      -7.095   3.482 122.821  0.00  0.00    +0.000 C 
ATOM      6  C   UNK A   0      -8.921   2.650 122.188  0.00  0.00    +0.000 C 
ATOM      7  C   UNK A   0      -9.002   0.787 123.231  0.00  0.00    +0.000 C 
ATOM      8  C   UNK A   0      -7.774   0.357 124.452  0.00  0.00    +0.000 C 
ATOM      9  C   UNK A   0      -6.352   1.188 124.779  0.00  0.00    +0.000 C 
ATOM     10  C   UNK A   0      -6.362   2.842 124.558  0.00  0.00    +0.000 C 
BRANCH   5  12
ATOM     11  C   UNK A   0      -4.753   4.539 121.917  0.00  0.00    +0.000 C 
ATOM     12  C   UNK A   0      -5.966   3.571 121.732  0.00  0.00    +0.000 C 
ATOM     13  C   UNK A   0      -6.705   3.943 120.426  0.00  0.00    +0.000 C 
ENDBRANCH   5  12
ENDBRANCH   1   8
BRANCH   3  14
ATOM     14  CA  PHE A   1      -9.027  -2.211 125.618  0.00  0.00    +0.000 C 
BRANCH  14  15
ATOM     15  C   PHE A   1      -8.979  -2.843 124.158  0.00  0.00    +0.000 C 
ATOM     16  OXT PHE A   1      -7.892  -2.969 123.604  0.00  0.00    +0.000 OA
BRANCH  15  17
ATOM     17  O   PHE A   1     -10.104  -3.142 123.452  0.00  0.00    +0.000 OA
ATOM     18  H   PHE A   1     -10.464  -2.638 122.694  0.00  0.00    +0.000 HD
ENDBRANCH  15  17
ENDBRANCH  14  15
BRANCH  14  19
ATOM     19  CB  PHE A   1      -7.605  -2.271 126.330  0.00  0.00    +0.000 C 
BRANCH  19  20
ATOM     20  CG  PHE A   1      -6.921  -2.611 128.265  0.00  0.00    +0.000 A 
ATOM     21  CD1 PHE A   1      -5.149  -2.442 128.463  0.00  0.00    +0.000 A 
ATOM     22  CE1 PHE A   1      -4.429  -3.363 129.154  0.00  0.00    +0.000 A 
ATOM     23  CZ  PHE A   1      -5.171  -3.867 130.175  0.00  0.00    +0.000 A 
ATOM     24  CE2 PHE A   1      -6.585  -3.771 130.255  0.00  0.00    +0.000 A 
ATOM     25  CD2 PHE A   1      -7.466  -3.386 129.244  0.00  0.00    +0.000 A 
ENDBRANCH  19  20
ENDBRANCH  14  19
ENDBRANCH   3  14
TORSDOF 7
ENDMDL
MODEL 7
REMARK VINA RESULT:      -7.6      2.693      5.177
REMARK  Name = Nateglinide
REMARK  9 active torsions:
REMARK  status: ('A' for Active; 'I' for Inactive)
REMARK    1  A    between atoms: C_1  and  C_2
REMARK    2  A    between atoms: C_2  and  C_3
REMARK    3  A    between atoms: C_2  and  C_4
REMARK    4  A    between atoms: C_7  and  C_10
REMARK    5  A    between atoms: N_12  and  CA_13
REMARK    6  A    between atoms: CA_13  and  CB_14
REMARK    7  A    between atoms: CA_13  and  C_21
REMARK    8  A    between atoms: CB_14  and  CG_15
REMARK    9  A    between atoms: C_21  and  O_22
REMARK                            x       y       z     vdW  Elec       q    Type
REMARK                         _______ _______ _______ _____ _____    ______ ____
ROOT
ATOM      1  C   UNK A   0      -7.962   2.424 123.684  0.00  0.00    +0.000 C 
ATOM      2  O   UNK A   0      -9.178   2.364 123.767  0.00  0.00    +0.000 OA
ATOM      3  N   PHE A   1      -7.294   3.579 123.176  0.00  0.00    +0.000 N 
ATOM      4  H   PHE A   1      -7.865   4.293 122.783  0.00  0.00    +0.000 HD
ENDROOT
BRANCH   1   8
ATOM      5  C   UNK A   0      -8.900  -1.276 125.955  0.00  0.00    +0.000 C 
ATOM      6  C   UNK A   0      -8.407   0.433 127.079  0.00  0.00    +0.000 C 
ATOM      7  C   UNK A   0      -7.321   1.641 125.688  0.00  0.00    +0.000 C 
ATOM      8  C   UNK A   0      -7.176   1.171 123.974  0.00  0.00    +0.000 C 
ATOM      9  C   UNK A   0      -7.640  -0.292 123.292  0.00  0.00    +0.000 C 
ATOM     10  C   UNK A   0      -8.945  -1.075 123.975  0.00  0.00    +0.000 C 
BRANCH   5  12
ATOM     11  C   UNK A   0      -8.522  -3.319 127.715  0.00  0.00    +0.000 C 
ATOM     12  C   UNK A   0      -8.173  -2.605 126.370  0.00  0.00    +0.000 C 
ATOM     13  C   UNK A   0      -6.669  -2.250 126.369  0.00  0.00    +0.000 C 
ENDBRANCH   5  12
ENDBRANCH   1   8
BRANCH   3  14
ATOM     14  CA  PHE A   1      -5.862   3.728 122.850  0.00  0.00    +0.000 C 
BRANCH  14  15
ATOM     15  C   PHE A   1      -5.291   4.409 121.530  0.00  0.00    +0.000 C 
ATOM     16  OXT PHE A   1      -4.472   5.315 121.639  0.00  0.00    +0.000 OA
BRANCH  15  17
ATOM     17  O   PHE A   1      -5.759   4.107 120.288  0.00  0.00    +0.000 OA
ATOM     18  H   PHE A   1      -5.288   4.244 119.441  0.00  0.00    +0.000 HD
ENDBRANCH  15  17
ENDBRANCH  14  15
BRANCH  14  19
ATOM     19  CB  PHE A   1      -5.308   4.437 124.162  0.00  0.00    +0.000 C 
BRANCH  19  20
ATOM     20  CG  PHE A   1      -4.328   3.817 125.890  0.00  0.00    +0.000 A 
ATOM     21  CD1 PHE A   1      -5.171   4.244 127.412  0.00  0.00    +0.000 A 
ATOM     22  CE1 PHE A   1      -4.496   4.779 128.460  0.00  0.00    +0.000 A 
ATOM     23  CZ  PHE A   1      -3.236   4.274 128.514  0.00  0.00    +0.000 A 
ATOM     24  CE2 PHE A   1      -2.590   3.629 127.427  0.00  0.00    +0.000 A 
ATOM     25  CD2 PHE A   1      -2.997   3.606 126.092  0.00  0.00    +0.000 A 
ENDBRANCH  19  20
ENDBRANCH  14  19
ENDBRANCH   3  14
TORSDOF 7
ENDMDL
MODEL 8
REMARK VINA RESULT:      -7.6      8.706     10.565
REMARK  Name = Nateglinide
REMARK  9 active torsions:
REMARK  status: ('A' for Active; 'I' for Inactive)
REMARK    1  A    between atoms: C_1  and  C_2
REMARK    2  A    between atoms: C_2  and  C_3
REMARK    3  A    between atoms: C_2  and  C_4
REMARK    4  A    between atoms: C_7  and  C_10
REMARK    5  A    between atoms: N_12  and  CA_13
REMARK    6  A    between atoms: CA_13  and  CB_14
REMARK    7  A    between atoms: CA_13  and  C_21
REMARK    8  A    between atoms: CB_14  and  CG_15
REMARK    9  A    between atoms: C_21  and  O_22
REMARK                            x       y       z     vdW  Elec       q    Type
REMARK                         _______ _______ _______ _____ _____    ______ ____
ROOT
ATOM      1  C   UNK A   0      -6.710   6.697 130.959  0.00  0.00    +0.000 C 
ATOM      2  O   UNK A   0      -6.305   7.756 130.507  0.00  0.00    +0.000 OA
ATOM      3  N   PHE A   1      -8.101   6.387 131.031  0.00  0.00    +0.000 N 
ATOM      4  H   PHE A   1      -8.738   7.117 130.803  0.00  0.00    +0.000 HD
ENDROOT
BRANCH   1   8
ATOM      5  C   UNK A   0      -2.284   6.826 131.300  0.00  0.00    +0.000 C 
ATOM      6  C   UNK A   0      -3.080   6.205 129.454  0.00  0.00    +0.000 C 
ATOM      7  C   UNK A   0      -5.053   5.557 129.962  0.00  0.00    +0.000 C 
ATOM      8  C   UNK A   0      -5.704   5.780 131.607  0.00  0.00    +0.000 C 
ATOM      9  C   UNK A   0      -4.851   6.288 132.962  0.00  0.00    +0.000 C 
ATOM     10  C   UNK A   0      -3.581   7.342 132.718  0.00  0.00    +0.000 C 
BRANCH   5  12
ATOM     11  C   UNK A   0      -1.459   4.593 132.624  0.00  0.00    +0.000 C 
ATOM     12  C   UNK A   0      -1.133   5.932 131.888  0.00  0.00    +0.000 C 
ATOM     13  C   UNK A   0      -0.369   6.861 132.859  0.00  0.00    +0.000 C 
ENDBRANCH   5  12
ENDBRANCH   1   8
BRANCH   3  14
ATOM     14  CA  PHE A   1      -8.741   5.243 131.710  0.00  0.00    +0.000 C 
BRANCH  14  15
ATOM     15  C   PHE A   1      -8.965   5.120 133.281  0.00  0.00    +0.000 C 
ATOM     16  OXT PHE A   1      -8.303   5.831 134.030  0.00  0.00    +0.000 OA
BRANCH  15  17
ATOM     17  O   PHE A   1      -9.777   4.178 133.834  0.00  0.00    +0.000 OA
ATOM     18  H   PHE A   1     -10.516   4.341 134.454  0.00  0.00    +0.000 HD
ENDBRANCH  15  17
ENDBRANCH  14  15
BRANCH  14  19
ATOM     19  CB  PHE A   1     -10.113   5.125 130.912  0.00  0.00    +0.000 C 
BRANCH  19  20
ATOM     20  CG  PHE A   1     -11.561   6.457 130.234  0.00  0.00    +0.000 A 
ATOM     21  CD1 PHE A   1     -11.256   7.108 128.593  0.00  0.00    +0.000 A 
ATOM     22  CE1 PHE A   1     -11.393   8.432 128.328  0.00  0.00    +0.000 A 
ATOM     23  CZ  PHE A   1     -12.393   8.961 129.081  0.00  0.00    +0.000 A 
ATOM     24  CE2 PHE A   1     -12.920   8.347 130.248  0.00  0.00    +0.000 A 
ATOM     25  CD2 PHE A   1     -12.383   7.270 130.954  0.00  0.00    +0.000 A 
ENDBRANCH  19  20
ENDBRANCH  14  19
ENDBRANCH   3  14
TORSDOF 7
ENDMDL
MODEL 9
REMARK VINA RESULT:      -7.6      7.990      9.880
REMARK  Name = Nateglinide
REMARK  9 active torsions:
REMARK  status: ('A' for Active; 'I' for Inactive)
REMARK    1  A    between atoms: C_1  and  C_2
REMARK    2  A    between atoms: C_2  and  C_3
REMARK    3  A    between atoms: C_2  and  C_4
REMARK    4  A    between atoms: C_7  and  C_10
REMARK    5  A    between atoms: N_12  and  CA_13
REMARK    6  A    between atoms: CA_13  and  CB_14
REMARK    7  A    between atoms: CA_13  and  C_21
REMARK    8  A    between atoms: CB_14  and  CG_15
REMARK    9  A    between atoms: C_21  and  O_22
REMARK                            x       y       z     vdW  Elec       q    Type
REMARK                         _______ _______ _______ _____ _____    ______ ____
ROOT
ATOM      1  C   UNK A   0      -7.606   4.767 130.083  0.00  0.00    +0.000 C 
ATOM      2  O   UNK A   0      -7.077   4.899 128.991  0.00  0.00    +0.000 OA
ATOM      3  N   PHE A   1      -8.915   4.217 130.229  0.00  0.00    +0.000 N 
ATOM      4  H   PHE A   1      -9.429   4.050 129.394  0.00  0.00    +0.000 HD
ENDROOT
BRANCH   1   8
ATOM      5  C   UNK A   0      -3.458   6.206 130.751  0.00  0.00    +0.000 C 
ATOM      6  C   UNK A   0      -3.759   4.124 130.772  0.00  0.00    +0.000 C 
ATOM      7  C   UNK A   0      -5.845   3.933 131.198  0.00  0.00    +0.000 C 
ATOM      8  C   UNK A   0      -6.907   5.364 131.278  0.00  0.00    +0.000 C 
ATOM      9  C   UNK A   0      -6.425   6.972 131.256  0.00  0.00    +0.000 C 
ATOM     10  C   UNK A   0      -5.049   7.348 130.392  0.00  0.00    +0.000 C 
BRANCH   5  12
ATOM     11  C   UNK A   0      -1.090   6.422 132.080  0.00  0.00    +0.000 C 
ATOM     12  C   UNK A   0      -2.602   6.789 131.933  0.00  0.00    +0.000 C 
ATOM     13  C   UNK A   0      -3.348   6.352 133.215  0.00  0.00    +0.000 C 
ENDBRANCH   5  12
ENDBRANCH   1   8
BRANCH   3  14
ATOM     14  CA  PHE A   1      -9.746   4.165 131.448  0.00  0.00    +0.000 C 
BRANCH  14  15
ATOM     15  C   PHE A   1      -9.296   3.527 132.835  0.00  0.00    +0.000 C 
ATOM     16  OXT PHE A   1      -8.607   2.512 132.823  0.00  0.00    +0.000 OA
BRANCH  15  17
ATOM     17  O   PHE A   1      -9.740   3.994 134.034  0.00  0.00    +0.000 OA
ATOM     18  H   PHE A   1      -9.184   4.266 134.792  0.00  0.00    +0.000 HD
ENDBRANCH  15  17
ENDBRANCH  14  15
BRANCH  14  19
ATOM     19  CB  PHE A   1     -10.166   5.691 131.613  0.00  0.00    +0.000 C 
BRANCH  19  20
ATOM     20  CG  PHE A   1     -10.616   7.260 130.323  0.00  0.00    +0.000 A 
ATOM     21  CD1 PHE A   1     -12.357   7.675 130.244  0.00  0.00    +0.000 A 
ATOM     22  CE1 PHE A   1     -12.975   7.884 129.054  0.00  0.00    +0.000 A 
ATOM     23  CZ  PHE A   1     -12.112   8.452 128.171  0.00  0.00    +0.000 A 
ATOM     24  CE2 PHE A   1     -10.700   8.440 128.318  0.00  0.00    +0.000 A 
ATOM     25  CD2 PHE A   1      -9.948   7.676 129.211  0.00  0.00    +0.000 A 
ENDBRANCH  19  20
ENDBRANCH  14  19
ENDBRANCH   3  14
TORSDOF 7
ENDMDL
