MODEL 1
REMARK VINA RESULT:      -9.7      0.000      0.000
REMARK  Name = Nebivolol
REMARK  8 active torsions:
REMARK  status: ('A' for Active; 'I' for Inactive)
REMARK    1  A    between atoms: O_1  and  C_2
REMARK    2  A    between atoms: C_2  and  C_3
REMARK    3  A    between atoms: C_2  and  C_19
REMARK    4  A    between atoms: C_3  and  N_4
REMARK    5  A    between atoms: N_4  and  C_5
REMARK    6  A    between atoms: C_5  and  C_6
REMARK    7  A    between atoms: C_6  and  O_7
REMARK    8  A    between atoms: C_6  and  C_8
REMARK                            x       y       z     vdW  Elec       q    Type
REMARK                         _______ _______ _______ _____ _____    ______ ____
ROOT
ATOM      1  N   UNL     1      -8.228   3.867 126.824  0.00  0.00    +0.000 NA
ATOM      2  H   UNL     1      -8.453   4.750 126.362  0.00  0.00    +0.000 HD
ENDROOT
BRANCH   1   3
ATOM      3  C   UNL     1      -7.481   4.110 128.061  0.00  0.00    +0.000 C 
BRANCH   3   4
ATOM      4  C   UNL     1      -8.341   3.716 129.259  0.00  0.00    +0.000 C 
BRANCH   4   5
ATOM      5  C   UNL     1      -9.151   4.920 129.760  0.00  0.00    +0.000 C 
ATOM      6  C   UNL     1     -10.371   4.432 130.530  0.00  0.00    +0.000 C 
ATOM      7  C   UNL     1     -11.131   5.625 131.074  0.00  0.00    +0.000 C 
ATOM      8  C   UNL     1     -11.258   6.696 130.032  0.00  0.00    +0.000 A 
ATOM      9  C   UNL     1     -10.461   6.685 128.882  0.00  0.00    +0.000 A 
ATOM     10  O   UNL     1      -9.530   5.721 128.627  0.00  0.00    +0.000 OA
ATOM     11  C   UNL     1     -10.609   7.663 127.896  0.00  0.00    +0.000 A 
ATOM     12  C   UNL     1     -11.539   8.687 128.072  0.00  0.00    +0.000 A 
ATOM     13  C   UNL     1     -12.308   8.714 129.228  0.00  0.00    +0.000 A 
ATOM     14  F   UNL     1     -13.198   9.701 129.403  0.00  0.00    +0.000 F 
ATOM     15  C   UNL     1     -12.180   7.734 130.205  0.00  0.00    +0.000 A 
ENDBRANCH   4   5
BRANCH   4  16
ATOM     16  O   UNL     1      -9.215   2.643 128.876  0.00  0.00    +0.000 OA
ATOM     17  H   UNL     1     -10.102   2.899 129.180  0.00  0.00    +0.000 HD
ENDBRANCH   4  16
ENDBRANCH   3   4
ENDBRANCH   1   3
BRANCH   1  18
ATOM     18  C   UNL     1      -7.363   3.138 125.905  0.00  0.00    +0.000 C 
BRANCH  18  19
ATOM     19  C   UNL     1      -8.192   2.495 124.787  0.00  0.00    +0.000 C 
BRANCH  19  20
ATOM     20  C   UNL     1      -7.535   2.714 123.408  0.00  0.00    +0.000 C 
ATOM     21  C   UNL     1      -6.334   3.660 123.490  0.00  0.00    +0.000 C 
ATOM     22  C   UNL     1      -5.673   3.774 122.134  0.00  0.00    +0.000 C 
ATOM     23  C   UNL     1      -6.712   3.927 121.064  0.00  0.00    +0.000 A 
ATOM     24  C   UNL     1      -8.064   3.654 121.311  0.00  0.00    +0.000 A 
ATOM     25  O   UNL     1      -8.540   3.264 122.534  0.00  0.00    +0.000 OA
ATOM     26  C   UNL     1      -9.021   3.819 120.310  0.00  0.00    +0.000 A 
ATOM     27  C   UNL     1      -8.626   4.237 119.038  0.00  0.00    +0.000 A 
ATOM     28  C   UNL     1      -7.284   4.492 118.791  0.00  0.00    +0.000 A 
ATOM     29  F   UNL     1      -6.903   4.893 117.570  0.00  0.00    +0.000 F 
ATOM     30  C   UNL     1      -6.326   4.344 119.785  0.00  0.00    +0.000 A 
ENDBRANCH  19  20
BRANCH  19  31
ATOM     31  O   UNL     1      -9.520   3.052 124.804  0.00  0.00    +0.000 OA
ATOM     32  H   UNL     1      -9.535   3.679 125.552  0.00  0.00    +0.000 HD
ENDBRANCH  19  31
ENDBRANCH  18  19
ENDBRANCH   1  18
TORSDOF 8
ENDMDL
MODEL 2
REMARK VINA RESULT:      -9.5      5.492      7.321
REMARK  Name = Nebivolol
REMARK  8 active torsions:
REMARK  status: ('A' for Active; 'I' for Inactive)
REMARK    1  A    between atoms: O_1  and  C_2
REMARK    2  A    between atoms: C_2  and  C_3
REMARK    3  A    between atoms: C_2  and  C_19
REMARK    4  A    between atoms: C_3  and  N_4
REMARK    5  A    between atoms: N_4  and  C_5
REMARK    6  A    between atoms: C_5  and  C_6
REMARK    7  A    between atoms: C_6  and  O_7
REMARK    8  A    between atoms: C_6  and  C_8
REMARK                            x       y       z     vdW  Elec       q    Type
REMARK                         _______ _______ _______ _____ _____    ______ ____
ROOT
ATOM      1  N   UNL     1      -9.347  -0.528 123.786  0.00  0.00    +0.000 NA
ATOM      2  H   UNL     1     -10.099  -1.042 124.248  0.00  0.00    +0.000 HD
ENDROOT
BRANCH   1   3
ATOM      3  C   UNL     1      -8.175  -1.387 123.598  0.00  0.00    +0.000 C 
BRANCH   3   4
ATOM      4  C   UNL     1      -8.566  -2.842 123.847  0.00  0.00    +0.000 C 
BRANCH   4   5
ATOM      5  C   UNL     1      -8.196  -3.262 125.277  0.00  0.00    +0.000 C 
ATOM      6  C   UNL     1      -9.452  -3.316 126.137  0.00  0.00    +0.000 C 
ATOM      7  C   UNL     1      -9.087  -3.792 127.529  0.00  0.00    +0.000 C 
ATOM      8  C   UNL     1      -7.849  -3.102 128.019  0.00  0.00    +0.000 A 
ATOM      9  C   UNL     1      -7.006  -2.415 127.139  0.00  0.00    +0.000 A 
ATOM     10  O   UNL     1      -7.242  -2.321 125.799  0.00  0.00    +0.000 OA
ATOM     11  C   UNL     1      -5.876  -1.742 127.606  0.00  0.00    +0.000 A 
ATOM     12  C   UNL     1      -5.557  -1.782 128.963  0.00  0.00    +0.000 A 
ATOM     13  C   UNL     1      -6.378  -2.490 129.831  0.00  0.00    +0.000 A 
ATOM     14  F   UNL     1      -6.072  -2.537 131.136  0.00  0.00    +0.000 F 
ATOM     15  C   UNL     1      -7.515  -3.147 129.377  0.00  0.00    +0.000 A 
ENDBRANCH   4   5
BRANCH   4  16
ATOM     16  O   UNL     1      -9.978  -2.992 123.627  0.00  0.00    +0.000 OA
ATOM     17  H   UNL     1     -10.372  -3.137 124.503  0.00  0.00    +0.000 HD
ENDBRANCH   4  16
ENDBRANCH   3   4
ENDBRANCH   1   3
BRANCH   1  18
ATOM     18  C   UNL     1      -8.979   0.553 124.692  0.00  0.00    +0.000 C 
BRANCH  18  19
ATOM     19  C   UNL     1      -9.331   1.911 124.075  0.00  0.00    +0.000 C 
BRANCH  19  20
ATOM     20  C   UNL     1      -8.345   2.286 122.949  0.00  0.00    +0.000 C 
ATOM     21  C   UNL     1      -7.166   3.110 123.471  0.00  0.00    +0.000 C 
ATOM     22  C   UNL     1      -6.187   3.378 122.350  0.00  0.00    +0.000 C 
ATOM     23  C   UNL     1      -6.922   3.775 121.105  0.00  0.00    +0.000 A 
ATOM     24  C   UNL     1      -8.303   3.574 120.974  0.00  0.00    +0.000 A 
ATOM     25  O   UNL     1      -9.081   3.040 121.966  0.00  0.00    +0.000 OA
ATOM     26  C   UNL     1      -8.975   3.965 119.816  0.00  0.00    +0.000 A 
ATOM     27  C   UNL     1      -8.262   4.540 118.764  0.00  0.00    +0.000 A 
ATOM     28  C   UNL     1      -6.892   4.723 118.888  0.00  0.00    +0.000 A 
ATOM     29  F   UNL     1      -6.205   5.275 117.878  0.00  0.00    +0.000 F 
ATOM     30  C   UNL     1      -6.216   4.350 120.043  0.00  0.00    +0.000 A 
ENDBRANCH  19  20
BRANCH  19  31
ATOM     31  O   UNL     1      -9.319   2.915 125.107  0.00  0.00    +0.000 OA
ATOM     32  H   UNL     1     -10.186   3.362 125.053  0.00  0.00    +0.000 HD
ENDBRANCH  19  31
ENDBRANCH  18  19
ENDBRANCH   1  18
TORSDOF 8
ENDMDL
MODEL 3
REMARK VINA RESULT:      -9.3      5.418      9.347
REMARK  Name = Nebivolol
REMARK  8 active torsions:
REMARK  status: ('A' for Active; 'I' for Inactive)
REMARK    1  A    between atoms: O_1  and  C_2
REMARK    2  A    between atoms: C_2  and  C_3
REMARK    3  A    between atoms: C_2  and  C_19
REMARK    4  A    between atoms: C_3  and  N_4
REMARK    5  A    between atoms: N_4  and  C_5
REMARK    6  A    between atoms: C_5  and  C_6
REMARK    7  A    between atoms: C_6  and  O_7
REMARK    8  A    between atoms: C_6  and  C_8
REMARK                            x       y       z     vdW  Elec       q    Type
REMARK                         _______ _______ _______ _____ _____    ______ ____
ROOT
ATOM      1  N   UNL     1      -7.984   0.192 123.343  0.00  0.00    +0.000 NA
ATOM      2  H   UNL     1      -7.192  -0.149 123.890  0.00  0.00    +0.000 HD
ENDROOT
BRANCH   1   3
ATOM      3  C   UNL     1      -8.815   1.094 124.145  0.00  0.00    +0.000 C 
BRANCH   3   4
ATOM      4  C   UNL     1      -8.065   2.404 124.376  0.00  0.00    +0.000 C 
BRANCH   4   5
ATOM      5  C   UNL     1      -7.223   2.767 123.144  0.00  0.00    +0.000 C 
ATOM      6  C   UNL     1      -6.206   3.838 123.517  0.00  0.00    +0.000 C 
ATOM      7  C   UNL     1      -5.337   4.145 122.313  0.00  0.00    +0.000 C 
ATOM      8  C   UNL     1      -6.172   4.276 121.074  0.00  0.00    +0.000 A 
ATOM      9  C   UNL     1      -7.491   3.811 121.037  0.00  0.00    +0.000 A 
ATOM     10  O   UNL     1      -8.105   3.219 122.102  0.00  0.00    +0.000 OA
ATOM     11  C   UNL     1      -8.277   3.969 119.894  0.00  0.00    +0.000 A 
ATOM     12  C   UNL     1      -7.732   4.565 118.757  0.00  0.00    +0.000 A 
ATOM     13  C   UNL     1      -6.413   4.998 118.785  0.00  0.00    +0.000 A 
ATOM     14  F   UNL     1      -5.883   5.567 117.691  0.00  0.00    +0.000 F 
ATOM     15  C   UNL     1      -5.630   4.862 119.925  0.00  0.00    +0.000 A 
ENDBRANCH   4   5
BRANCH   4  16
ATOM     16  O   UNL     1      -9.015   3.443 124.662  0.00  0.00    +0.000 OA
ATOM     17  H   UNL     1      -9.467   3.175 125.479  0.00  0.00    +0.000 HD
ENDBRANCH   4  16
ENDBRANCH   3   4
ENDBRANCH   1   3
BRANCH   1  18
ATOM     18  C   UNL     1      -8.780  -0.982 123.008  0.00  0.00    +0.000 C 
BRANCH  18  19
ATOM     19  C   UNL     1      -7.924  -2.251 123.091  0.00  0.00    +0.000 C 
BRANCH  19  20
ATOM     20  C   UNL     1      -7.950  -2.850 124.512  0.00  0.00    +0.000 C 
ATOM     21  C   UNL     1      -9.327  -2.713 125.167  0.00  0.00    +0.000 C 
ATOM     22  C   UNL     1      -9.326  -3.389 126.519  0.00  0.00    +0.000 C 
ATOM     23  C   UNL     1      -8.073  -3.049 127.267  0.00  0.00    +0.000 A 
ATOM     24  C   UNL     1      -6.969  -2.473 126.623  0.00  0.00    +0.000 A 
ATOM     25  O   UNL     1      -6.959  -2.153 125.292  0.00  0.00    +0.000 OA
ATOM     26  C   UNL     1      -5.816  -2.145 127.337  0.00  0.00    +0.000 A 
ATOM     27  C   UNL     1      -5.749  -2.416 128.704  0.00  0.00    +0.000 A 
ATOM     28  C   UNL     1      -6.837  -3.001 129.338  0.00  0.00    +0.000 A 
ATOM     29  F   UNL     1      -6.775  -3.261 130.651  0.00  0.00    +0.000 F 
ATOM     30  C   UNL     1      -7.994  -3.318 128.638  0.00  0.00    +0.000 A 
ENDBRANCH  19  20
BRANCH  19  31
ATOM     31  O   UNL     1      -6.573  -1.934 122.704  0.00  0.00    +0.000 OA
ATOM     32  H   UNL     1      -6.633  -1.580 121.797  0.00  0.00    +0.000 HD
ENDBRANCH  19  31
ENDBRANCH  18  19
ENDBRANCH   1  18
TORSDOF 8
ENDMDL
MODEL 4
REMARK VINA RESULT:      -9.1      0.762      9.088
REMARK  Name = Nebivolol
REMARK  8 active torsions:
REMARK  status: ('A' for Active; 'I' for Inactive)
REMARK    1  A    between atoms: O_1  and  C_2
REMARK    2  A    between atoms: C_2  and  C_3
REMARK    3  A    between atoms: C_2  and  C_19
REMARK    4  A    between atoms: C_3  and  N_4
REMARK    5  A    between atoms: N_4  and  C_5
REMARK    6  A    between atoms: C_5  and  C_6
REMARK    7  A    between atoms: C_6  and  O_7
REMARK    8  A    between atoms: C_6  and  C_8
REMARK                            x       y       z     vdW  Elec       q    Type
REMARK                         _______ _______ _______ _____ _____    ______ ____
ROOT
ATOM      1  N   UNL     1      -8.277   3.152 127.026  0.00  0.00    +0.000 NA
ATOM      2  H   UNL     1      -7.745   2.289 127.149  0.00  0.00    +0.000 HD
ENDROOT
BRANCH   1   3
ATOM      3  C   UNL     1      -8.202   3.608 125.635  0.00  0.00    +0.000 C 
BRANCH   3   4
ATOM      4  C   UNL     1      -8.594   2.463 124.704  0.00  0.00    +0.000 C 
BRANCH   4   5
ATOM      5  C   UNL     1      -7.883   2.603 123.350  0.00  0.00    +0.000 C 
ATOM      6  C   UNL     1      -6.624   3.444 123.517  0.00  0.00    +0.000 C 
ATOM      7  C   UNL     1      -5.895   3.524 122.190  0.00  0.00    +0.000 C 
ATOM      8  C   UNL     1      -6.856   3.793 121.071  0.00  0.00    +0.000 A 
ATOM      9  C   UNL     1      -8.234   3.618 121.241  0.00  0.00    +0.000 A 
ATOM     10  O   UNL     1      -8.795   3.202 122.413  0.00  0.00    +0.000 OA
ATOM     11  C   UNL     1      -9.128   3.907 120.208  0.00  0.00    +0.000 A 
ATOM     12  C   UNL     1      -8.643   4.340 118.974  0.00  0.00    +0.000 A 
ATOM     13  C   UNL     1      -7.273   4.483 118.797  0.00  0.00    +0.000 A 
ATOM     14  F   UNL     1      -6.803   4.894 117.610  0.00  0.00    +0.000 F 
ATOM     15  C   UNL     1      -6.378   4.217 119.826  0.00  0.00    +0.000 A 
ENDBRANCH   4   5
BRANCH   4  16
ATOM     16  O   UNL     1      -8.253   1.215 125.327  0.00  0.00    +0.000 OA
ATOM     17  H   UNL     1      -9.052   0.663 125.275  0.00  0.00    +0.000 HD
ENDBRANCH   4  16
ENDBRANCH   3   4
ENDBRANCH   1   3
BRANCH   1  18
ATOM     18  C   UNL     1      -7.629   4.151 127.868  0.00  0.00    +0.000 C 
BRANCH  18  19
ATOM     19  C   UNL     1      -8.038   3.961 129.333  0.00  0.00    +0.000 C 
BRANCH  19  20
ATOM     20  C   UNL     1      -8.974   5.095 129.802  0.00  0.00    +0.000 C 
ATOM     21  C   UNL     1     -10.170   4.559 130.593  0.00  0.00    +0.000 C 
ATOM     22  C   UNL     1     -11.008   5.709 131.104  0.00  0.00    +0.000 C 
ATOM     23  C   UNL     1     -11.186   6.738 130.028  0.00  0.00    +0.000 A 
ATOM     24  C   UNL     1     -10.391   6.735 128.874  0.00  0.00    +0.000 A 
ATOM     25  O   UNL     1      -9.430   5.792 128.627  0.00  0.00    +0.000 OA
ATOM     26  C   UNL     1     -10.581   7.689 127.873  0.00  0.00    +0.000 A 
ATOM     27  C   UNL     1     -11.556   8.673 128.033  0.00  0.00    +0.000 A 
ATOM     28  C   UNL     1     -12.332   8.685 129.184  0.00  0.00    +0.000 A 
ATOM     29  F   UNL     1     -13.269   9.630 129.339  0.00  0.00    +0.000 F 
ATOM     30  C   UNL     1     -12.159   7.731 130.179  0.00  0.00    +0.000 A 
ENDBRANCH  19  20
BRANCH  19  31
ATOM     31  O   UNL     1      -6.854   3.916 130.151  0.00  0.00    +0.000 OA
ATOM     32  H   UNL     1      -7.019   4.533 130.890  0.00  0.00    +0.000 HD
ENDBRANCH  19  31
ENDBRANCH  18  19
ENDBRANCH   1  18
TORSDOF 8
ENDMDL
MODEL 5
REMARK VINA RESULT:      -8.8      4.999      7.087
REMARK  Name = Nebivolol
REMARK  8 active torsions:
REMARK  status: ('A' for Active; 'I' for Inactive)
REMARK    1  A    between atoms: O_1  and  C_2
REMARK    2  A    between atoms: C_2  and  C_3
REMARK    3  A    between atoms: C_2  and  C_19
REMARK    4  A    between atoms: C_3  and  N_4
REMARK    5  A    between atoms: N_4  and  C_5
REMARK    6  A    between atoms: C_5  and  C_6
REMARK    7  A    between atoms: C_6  and  O_7
REMARK    8  A    between atoms: C_6  and  C_8
REMARK                            x       y       z     vdW  Elec       q    Type
REMARK                         _______ _______ _______ _____ _____    ______ ____
ROOT
ATOM      1  N   UNL     1      -6.213   1.859 127.441  0.00  0.00    +0.000 NA
ATOM      2  H   UNL     1      -5.963   2.646 128.042  0.00  0.00    +0.000 HD
ENDROOT
BRANCH   1   3
ATOM      3  C   UNL     1      -5.173   0.827 127.486  0.00  0.00    +0.000 C 
BRANCH   3   4
ATOM      4  C   UNL     1      -5.685  -0.376 128.275  0.00  0.00    +0.000 C 
BRANCH   4   5
ATOM      5  C   UNL     1      -6.919  -0.983 127.592  0.00  0.00    +0.000 C 
ATOM      6  C   UNL     1      -7.185  -2.372 128.156  0.00  0.00    +0.000 C 
ATOM      7  C   UNL     1      -8.440  -2.939 127.522  0.00  0.00    +0.000 C 
ATOM      8  C   UNL     1      -8.444  -2.697 126.042  0.00  0.00    +0.000 A 
ATOM      9  C   UNL     1      -7.578  -1.767 125.458  0.00  0.00    +0.000 A 
ATOM     10  O   UNL     1      -6.682  -1.028 126.174  0.00  0.00    +0.000 OA
ATOM     11  C   UNL     1      -7.559  -1.573 124.076  0.00  0.00    +0.000 A 
ATOM     12  C   UNL     1      -8.440  -2.287 123.264  0.00  0.00    +0.000 A 
ATOM     13  C   UNL     1      -9.321  -3.187 123.849  0.00  0.00    +0.000 A 
ATOM     14  F   UNL     1     -10.174  -3.872 123.073  0.00  0.00    +0.000 F 
ATOM     15  C   UNL     1      -9.333  -3.401 125.222  0.00  0.00    +0.000 A 
ENDBRANCH   4   5
BRANCH   4  16
ATOM     16  O   UNL     1      -4.634  -1.350 128.378  0.00  0.00    +0.000 OA
ATOM     17  H   UNL     1      -4.337  -1.326 129.303  0.00  0.00    +0.000 HD
ENDBRANCH   4  16
ENDBRANCH   3   4
ENDBRANCH   1   3
BRANCH   1  18
ATOM     18  C   UNL     1      -6.272   2.388 126.084  0.00  0.00    +0.000 C 
BRANCH  18  19
ATOM     19  C   UNL     1      -7.704   2.319 125.545  0.00  0.00    +0.000 C 
BRANCH  19  20
ATOM     20  C   UNL     1      -7.818   3.009 124.170  0.00  0.00    +0.000 C 
ATOM     21  C   UNL     1      -8.621   2.171 123.172  0.00  0.00    +0.000 C 
ATOM     22  C   UNL     1      -8.778   2.925 121.872  0.00  0.00    +0.000 C 
ATOM     23  C   UNL     1      -7.477   3.561 121.482  0.00  0.00    +0.000 A 
ATOM     24  C   UNL     1      -6.420   3.684 122.394  0.00  0.00    +0.000 A 
ATOM     25  O   UNL     1      -6.479   3.214 123.679  0.00  0.00    +0.000 OA
ATOM     26  C   UNL     1      -5.210   4.261 122.011  0.00  0.00    +0.000 A 
ATOM     27  C   UNL     1      -5.055   4.746 120.712  0.00  0.00    +0.000 A 
ATOM     28  C   UNL     1      -6.109   4.638 119.814  0.00  0.00    +0.000 A 
ATOM     29  F   UNL     1      -5.962   5.103 118.566  0.00  0.00    +0.000 F 
ATOM     30  C   UNL     1      -7.313   4.052 120.183  0.00  0.00    +0.000 A 
ENDBRANCH  19  20
BRANCH  19  31
ATOM     31  O   UNL     1      -8.595   2.937 126.492  0.00  0.00    +0.000 OA
ATOM     32  H   UNL     1      -9.300   3.354 125.960  0.00  0.00    +0.000 HD
ENDBRANCH  19  31
ENDBRANCH  18  19
ENDBRANCH   1  18
TORSDOF 8
ENDMDL
MODEL 6
REMARK VINA RESULT:      -8.7      5.774      8.921
REMARK  Name = Nebivolol
REMARK  8 active torsions:
REMARK  status: ('A' for Active; 'I' for Inactive)
REMARK    1  A    between atoms: O_1  and  C_2
REMARK    2  A    between atoms: C_2  and  C_3
REMARK    3  A    between atoms: C_2  and  C_19
REMARK    4  A    between atoms: C_3  and  N_4
REMARK    5  A    between atoms: N_4  and  C_5
REMARK    6  A    between atoms: C_5  and  C_6
REMARK    7  A    between atoms: C_6  and  O_7
REMARK    8  A    between atoms: C_6  and  C_8
REMARK                            x       y       z     vdW  Elec       q    Type
REMARK                         _______ _______ _______ _____ _____    ______ ____
ROOT
ATOM      1  N   UNL     1     -10.010   0.289 124.112  0.00  0.00    +0.000 NA
ATOM      2  H   UNL     1      -9.402   0.033 124.893  0.00  0.00    +0.000 HD
ENDROOT
BRANCH   1   3
ATOM      3  C   UNL     1      -9.494  -0.264 122.857  0.00  0.00    +0.000 C 
BRANCH   3   4
ATOM      4  C   UNL     1      -8.745  -1.563 123.143  0.00  0.00    +0.000 C 
BRANCH   4   5
ATOM      5  C   UNL     1      -7.852  -1.408 124.383  0.00  0.00    +0.000 C 
ATOM      6  C   UNL     1      -6.443  -1.889 124.062  0.00  0.00    +0.000 C 
ATOM      7  C   UNL     1      -5.553  -1.675 125.271  0.00  0.00    +0.000 C 
ATOM      8  C   UNL     1      -6.247  -2.112 126.527  0.00  0.00    +0.000 A 
ATOM      9  C   UNL     1      -7.629  -2.327 126.553  0.00  0.00    +0.000 A 
ATOM     10  O   UNL     1      -8.432  -2.162 125.462  0.00  0.00    +0.000 OA
ATOM     11  C   UNL     1      -8.266  -2.770 127.714  0.00  0.00    +0.000 A 
ATOM     12  C   UNL     1      -7.523  -2.968 128.878  0.00  0.00    +0.000 A 
ATOM     13  C   UNL     1      -6.156  -2.724 128.859  0.00  0.00    +0.000 A 
ATOM     14  F   UNL     1      -5.439  -2.907 129.977  0.00  0.00    +0.000 F 
ATOM     15  C   UNL     1      -5.512  -2.301 127.702  0.00  0.00    +0.000 A 
ENDBRANCH   4   5
BRANCH   4  16
ATOM     16  O   UNL     1      -9.697  -2.621 123.335  0.00  0.00    +0.000 OA
ATOM     17  H   UNL     1      -9.573  -3.231 122.590  0.00  0.00    +0.000 HD
ENDBRANCH   4  16
ENDBRANCH   3   4
ENDBRANCH   1   3
BRANCH   1  18
ATOM     18  C   UNL     1      -9.964   1.743 124.023  0.00  0.00    +0.000 C 
BRANCH  18  19
ATOM     19  C   UNL     1      -8.544   2.214 123.689  0.00  0.00    +0.000 C 
BRANCH  19  20
ATOM     20  C   UNL     1      -7.674   2.310 124.959  0.00  0.00    +0.000 C 
ATOM     21  C   UNL     1      -6.238   1.843 124.707  0.00  0.00    +0.000 C 
ATOM     22  C   UNL     1      -5.405   2.037 125.953  0.00  0.00    +0.000 C 
ATOM     23  C   UNL     1      -6.169   1.584 127.161  0.00  0.00    +0.000 A 
ATOM     24  C   UNL     1      -7.550   1.353 127.111  0.00  0.00    +0.000 A 
ATOM     25  O   UNL     1      -8.292   1.488 125.968  0.00  0.00    +0.000 OA
ATOM     26  C   UNL     1      -8.242   0.914 128.239  0.00  0.00    +0.000 A 
ATOM     27  C   UNL     1      -7.559   0.727 129.441  0.00  0.00    +0.000 A 
ATOM     28  C   UNL     1      -6.194   0.972 129.494  0.00  0.00    +0.000 A 
ATOM     29  F   UNL     1      -5.535   0.793 130.648  0.00  0.00    +0.000 F 
ATOM     30  C   UNL     1      -5.493   1.396 128.372  0.00  0.00    +0.000 A 
ENDBRANCH  19  20
BRANCH  19  31
ATOM     31  O   UNL     1      -8.613   3.492 123.030  0.00  0.00    +0.000 OA
ATOM     32  H   UNL     1      -8.430   4.157 123.721  0.00  0.00    +0.000 HD
ENDBRANCH  19  31
ENDBRANCH  18  19
ENDBRANCH   1  18
TORSDOF 8
ENDMDL
MODEL 7
REMARK VINA RESULT:      -8.6      3.210      9.279
REMARK  Name = Nebivolol
REMARK  8 active torsions:
REMARK  status: ('A' for Active; 'I' for Inactive)
REMARK    1  A    between atoms: O_1  and  C_2
REMARK    2  A    between atoms: C_2  and  C_3
REMARK    3  A    between atoms: C_2  and  C_19
REMARK    4  A    between atoms: C_3  and  N_4
REMARK    5  A    between atoms: N_4  and  C_5
REMARK    6  A    between atoms: C_5  and  C_6
REMARK    7  A    between atoms: C_6  and  O_7
REMARK    8  A    between atoms: C_6  and  C_8
REMARK                            x       y       z     vdW  Elec       q    Type
REMARK                         _______ _______ _______ _____ _____    ______ ____
ROOT
ATOM      1  N   UNL     1      -8.246   3.551 127.207  0.00  0.00    +0.000 NA
ATOM      2  H   UNL     1      -8.522   2.568 127.242  0.00  0.00    +0.000 HD
ENDROOT
BRANCH   1   3
ATOM      3  C   UNL     1      -7.308   3.783 126.106  0.00  0.00    +0.000 C 
BRANCH   3   4
ATOM      4  C   UNL     1      -7.850   3.139 124.832  0.00  0.00    +0.000 C 
BRANCH   4   5
ATOM      5  C   UNL     1      -7.441   1.661 124.759  0.00  0.00    +0.000 C 
ATOM      6  C   UNL     1      -7.252   1.254 123.303  0.00  0.00    +0.000 C 
ATOM      7  C   UNL     1      -6.787  -0.188 123.242  0.00  0.00    +0.000 C 
ATOM      8  C   UNL     1      -7.583  -1.043 124.183  0.00  0.00    +0.000 A 
ATOM      9  C   UNL     1      -8.363  -0.475 125.195  0.00  0.00    +0.000 A 
ATOM     10  O   UNL     1      -8.459   0.871 125.397  0.00  0.00    +0.000 OA
ATOM     11  C   UNL     1      -9.132  -1.273 126.044  0.00  0.00    +0.000 A 
ATOM     12  C   UNL     1      -9.097  -2.661 125.908  0.00  0.00    +0.000 A 
ATOM     13  C   UNL     1      -8.298  -3.226 124.923  0.00  0.00    +0.000 A 
ATOM     14  F   UNL     1      -8.257  -4.560 124.793  0.00  0.00    +0.000 F 
ATOM     15  C   UNL     1      -7.544  -2.437 124.062  0.00  0.00    +0.000 A 
ENDBRANCH   4   5
BRANCH   4  16
ATOM     16  O   UNL     1      -9.281   3.268 124.815  0.00  0.00    +0.000 OA
ATOM     17  H   UNL     1      -9.547   3.428 125.735  0.00  0.00    +0.000 HD
ENDBRANCH   4  16
ENDBRANCH   3   4
ENDBRANCH   1   3
BRANCH   1  18
ATOM     18  C   UNL     1      -7.553   3.822 128.461  0.00  0.00    +0.000 C 
BRANCH  18  19
ATOM     19  C   UNL     1      -8.489   3.585 129.651  0.00  0.00    +0.000 C 
BRANCH  19  20
ATOM     20  C   UNL     1      -9.286   4.859 129.997  0.00  0.00    +0.000 C 
ATOM     21  C   UNL     1     -10.538   4.546 130.822  0.00  0.00    +0.000 C 
ATOM     22  C   UNL     1     -11.237   5.829 131.209  0.00  0.00    +0.000 C 
ATOM     23  C   UNL     1     -11.292   6.761 130.036  0.00  0.00    +0.000 A 
ATOM     24  C   UNL     1     -10.502   6.554 128.897  0.00  0.00    +0.000 A 
ATOM     25  O   UNL     1      -9.657   5.487 128.755  0.00  0.00    +0.000 OA
ATOM     26  C   UNL     1     -10.579   7.421 127.807  0.00  0.00    +0.000 A 
ATOM     27  C   UNL     1     -11.433   8.523 127.859  0.00  0.00    +0.000 A 
ATOM     28  C   UNL     1     -12.203   8.736 128.994  0.00  0.00    +0.000 A 
ATOM     29  F   UNL     1     -13.024   9.794 129.045  0.00  0.00    +0.000 F 
ATOM     30  C   UNL     1     -12.144   7.871 130.078  0.00  0.00    +0.000 A 
ENDBRANCH  19  20
BRANCH  19  31
ATOM     31  O   UNL     1      -7.711   3.156 130.785  0.00  0.00    +0.000 OA
ATOM     32  H   UNL     1      -7.850   2.192 130.853  0.00  0.00    +0.000 HD
ENDBRANCH  19  31
ENDBRANCH  18  19
ENDBRANCH   1  18
TORSDOF 8
ENDMDL
MODEL 8
REMARK VINA RESULT:      -8.5      5.814      8.281
REMARK  Name = Nebivolol
REMARK  8 active torsions:
REMARK  status: ('A' for Active; 'I' for Inactive)
REMARK    1  A    between atoms: O_1  and  C_2
REMARK    2  A    between atoms: C_2  and  C_3
REMARK    3  A    between atoms: C_2  and  C_19
REMARK    4  A    between atoms: C_3  and  N_4
REMARK    5  A    between atoms: N_4  and  C_5
REMARK    6  A    between atoms: C_5  and  C_6
REMARK    7  A    between atoms: C_6  and  O_7
REMARK    8  A    between atoms: C_6  and  C_8
REMARK                            x       y       z     vdW  Elec       q    Type
REMARK                         _______ _______ _______ _____ _____    ______ ____
ROOT
ATOM      1  N   UNL     1      -4.733  -0.043 128.870  0.00  0.00    +0.000 NA
ATOM      2  H   UNL     1      -5.316   0.069 128.039  0.00  0.00    +0.000 HD
ENDROOT
BRANCH   1   3
ATOM      3  C   UNL     1      -5.431  -0.836 129.886  0.00  0.00    +0.000 C 
BRANCH   3   4
ATOM      4  C   UNL     1      -5.666  -2.248 129.355  0.00  0.00    +0.000 C 
BRANCH   4   5
ATOM      5  C   UNL     1      -6.855  -2.269 128.384  0.00  0.00    +0.000 C 
ATOM      6  C   UNL     1      -7.674  -3.534 128.605  0.00  0.00    +0.000 C 
ATOM      7  C   UNL     1      -8.880  -3.517 127.687  0.00  0.00    +0.000 C 
ATOM      8  C   UNL     1      -8.491  -3.084 126.305  0.00  0.00    +0.000 A 
ATOM      9  C   UNL     1      -7.266  -2.455 126.061  0.00  0.00    +0.000 A 
ATOM     10  O   UNL     1      -6.351  -2.197 127.040  0.00  0.00    +0.000 OA
ATOM     11  C   UNL     1      -6.891  -2.088 124.767  0.00  0.00    +0.000 A 
ATOM     12  C   UNL     1      -7.764  -2.317 123.703  0.00  0.00    +0.000 A 
ATOM     13  C   UNL     1      -8.994  -2.912 123.951  0.00  0.00    +0.000 A 
ATOM     14  F   UNL     1      -9.838  -3.128 122.932  0.00  0.00    +0.000 F 
ATOM     15  C   UNL     1      -9.366  -3.298 125.234  0.00  0.00    +0.000 A 
ENDBRANCH   4   5
BRANCH   4  16
ATOM     16  O   UNL     1      -4.472  -2.707 128.700  0.00  0.00    +0.000 OA
ATOM     17  H   UNL     1      -4.564  -2.453 127.767  0.00  0.00    +0.000 HD
ENDBRANCH   4  16
ENDBRANCH   3   4
ENDBRANCH   1   3
BRANCH   1  18
ATOM     18  C   UNL     1      -4.525   1.298 129.403  0.00  0.00    +0.000 C 
BRANCH  18  19
ATOM     19  C   UNL     1      -4.380   2.310 128.262  0.00  0.00    +0.000 C 
BRANCH  19  20
ATOM     20  C   UNL     1      -5.200   1.881 127.027  0.00  0.00    +0.000 C 
ATOM     21  C   UNL     1      -5.197   2.954 125.936  0.00  0.00    +0.000 C 
ATOM     22  C   UNL     1      -5.938   2.454 124.717  0.00  0.00    +0.000 C 
ATOM     23  C   UNL     1      -7.206   1.768 125.128  0.00  0.00    +0.000 A 
ATOM     24  C   UNL     1      -7.434   1.385 126.457  0.00  0.00    +0.000 A 
ATOM     25  O   UNL     1      -6.548   1.630 127.471  0.00  0.00    +0.000 OA
ATOM     26  C   UNL     1      -8.627   0.764 126.826  0.00  0.00    +0.000 A 
ATOM     27  C   UNL     1      -9.596   0.496 125.859  0.00  0.00    +0.000 A 
ATOM     28  C   UNL     1      -9.363   0.862 124.541  0.00  0.00    +0.000 A 
ATOM     29  F   UNL     1     -10.293   0.606 123.610  0.00  0.00    +0.000 F 
ATOM     30  C   UNL     1      -8.184   1.493 124.166  0.00  0.00    +0.000 A 
ENDBRANCH  19  20
BRANCH  19  31
ATOM     31  O   UNL     1      -2.988   2.440 127.919  0.00  0.00    +0.000 OA
ATOM     32  H   UNL     1      -2.625   1.534 127.937  0.00  0.00    +0.000 HD
ENDBRANCH  19  31
ENDBRANCH  18  19
ENDBRANCH   1  18
TORSDOF 8
ENDMDL
MODEL 9
REMARK VINA RESULT:      -8.5      3.256      4.432
REMARK  Name = Nebivolol
REMARK  8 active torsions:
REMARK  status: ('A' for Active; 'I' for Inactive)
REMARK    1  A    between atoms: O_1  and  C_2
REMARK    2  A    between atoms: C_2  and  C_3
REMARK    3  A    between atoms: C_2  and  C_19
REMARK    4  A    between atoms: C_3  and  N_4
REMARK    5  A    between atoms: N_4  and  C_5
REMARK    6  A    between atoms: C_5  and  C_6
REMARK    7  A    between atoms: C_6  and  O_7
REMARK    8  A    between atoms: C_6  and  C_8
REMARK                            x       y       z     vdW  Elec       q    Type
REMARK                         _______ _______ _______ _____ _____    ______ ____
ROOT
ATOM      1  N   UNL     1      -7.765   2.941 126.723  0.00  0.00    +0.000 NA
ATOM      2  H   UNL     1      -8.696   2.546 126.579  0.00  0.00    +0.000 HD
ENDROOT
BRANCH   1   3
ATOM      3  C   UNL     1      -7.843   4.163 127.527  0.00  0.00    +0.000 C 
BRANCH   3   4
ATOM      4  C   UNL     1      -8.270   3.808 128.950  0.00  0.00    +0.000 C 
BRANCH   4   5
ATOM      5  C   UNL     1      -9.076   4.956 129.573  0.00  0.00    +0.000 C 
ATOM      6  C   UNL     1     -10.249   4.389 130.362  0.00  0.00    +0.000 C 
ATOM      7  C   UNL     1     -11.004   5.525 131.025  0.00  0.00    +0.000 C 
ATOM      8  C   UNL     1     -11.199   6.663 130.069  0.00  0.00    +0.000 A 
ATOM      9  C   UNL     1     -10.458   6.751 128.886  0.00  0.00    +0.000 A 
ATOM     10  O   UNL     1      -9.523   5.827 128.520  0.00  0.00    +0.000 OA
ATOM     11  C   UNL     1     -10.670   7.793 127.981  0.00  0.00    +0.000 A 
ATOM     12  C   UNL     1     -11.608   8.783 128.273  0.00  0.00    +0.000 A 
ATOM     13  C   UNL     1     -12.321   8.711 129.462  0.00  0.00    +0.000 A 
ATOM     14  F   UNL     1     -13.220   9.665 129.749  0.00  0.00    +0.000 F 
ATOM     15  C   UNL     1     -12.130   7.668 130.360  0.00  0.00    +0.000 A 
ENDBRANCH   4   5
BRANCH   4  16
ATOM     16  O   UNL     1      -9.050   2.602 128.918  0.00  0.00    +0.000 OA
ATOM     17  H   UNL     1      -9.531   2.617 128.074  0.00  0.00    +0.000 HD
ENDBRANCH   4  16
ENDBRANCH   3   4
ENDBRANCH   1   3
BRANCH   1  18
ATOM     18  C   UNL     1      -7.268   3.298 125.400  0.00  0.00    +0.000 C 
BRANCH  18  19
ATOM     19  C   UNL     1      -8.279   2.895 124.321  0.00  0.00    +0.000 C 
BRANCH  19  20
ATOM     20  C   UNL     1      -8.021   1.458 123.823  0.00  0.00    +0.000 C 
ATOM     21  C   UNL     1      -9.314   0.644 123.727  0.00  0.00    +0.000 C 
ATOM     22  C   UNL     1      -9.023  -0.724 123.154  0.00  0.00    +0.000 C 
ATOM     23  C   UNL     1      -7.789  -1.297 123.785  0.00  0.00    +0.000 A 
ATOM     24  C   UNL     1      -6.906  -0.498 124.524  0.00  0.00    +0.000 A 
ATOM     25  O   UNL     1      -7.112   0.835 124.752  0.00  0.00    +0.000 OA
ATOM     26  C   UNL     1      -5.772  -1.051 125.120  0.00  0.00    +0.000 A 
ATOM     27  C   UNL     1      -5.497  -2.408 124.958  0.00  0.00    +0.000 A 
ATOM     28  C   UNL     1      -6.364  -3.195 124.212  0.00  0.00    +0.000 A 
ATOM     29  F   UNL     1      -6.102  -4.500 124.055  0.00  0.00    +0.000 F 
ATOM     30  C   UNL     1      -7.503  -2.657 123.626  0.00  0.00    +0.000 A 
ENDBRANCH  19  20
BRANCH  19  31
ATOM     31  O   UNL     1      -8.199   3.827 123.227  0.00  0.00    +0.000 OA
ATOM     32  H   UNL     1      -9.122   4.011 122.967  0.00  0.00    +0.000 HD
ENDBRANCH  19  31
ENDBRANCH  18  19
ENDBRANCH   1  18
TORSDOF 8
ENDMDL
