MODEL 1
REMARK VINA RESULT:      -7.3      0.000      0.000
REMARK  Name = Nedocromil
REMARK  9 active torsions:
REMARK  status: ('A' for Active; 'I' for Inactive)
REMARK    1  A    between atoms: C_1  and  C_2
REMARK    2  A    between atoms: C_2  and  C_3
REMARK    3  A    between atoms: C_3  and  C_4
REMARK    4  A    between atoms: N_6  and  C_7
REMARK    5  A    between atoms: C_7  and  C_8
REMARK    6  A    between atoms: C_9  and  C_25
REMARK    7  A    between atoms: C_18  and  C_22
REMARK    8  A    between atoms: C_22  and  O_23
REMARK    9  A    between atoms: C_25  and  O_26
REMARK                            x       y       z     vdW  Elec       q    Type
REMARK                         _______ _______ _______ _____ _____    ______ ____
ROOT
ATOM      1  C   UNL     1      -6.478  -1.605 126.197  0.00  0.00    +0.000 A 
ATOM      2  C   UNL     1      -7.389  -0.559 125.760  0.00  0.00    +0.000 A 
ATOM      3  N   UNL     1      -8.144  -0.527 124.492  0.00  0.00    +0.000 N 
ATOM      4  C   UNL     1      -9.010   0.562 124.164  0.00  0.00    +0.000 A 
ATOM      5  C   UNL     1      -9.142   1.589 125.027  0.00  0.00    +0.000 A 
ATOM      6  C   UNL     1      -8.436   1.652 126.305  0.00  0.00    +0.000 A 
ATOM      7  O   UNL     1      -8.593   2.611 127.047  0.00  0.00    +0.000 OA
ATOM      8  C   UNL     1      -7.545   0.536 126.649  0.00  0.00    +0.000 A 
ATOM      9  C   UNL     1      -6.876   0.621 127.882  0.00  0.00    +0.000 A 
ATOM     10  C   UNL     1      -6.018  -0.397 128.269  0.00  0.00    +0.000 A 
ATOM     11  C   UNL     1      -5.810  -1.498 127.450  0.00  0.00    +0.000 A 
ATOM     12  O   UNL     1      -4.939  -2.522 127.809  0.00  0.00    +0.000 OA
ATOM     13  C   UNL     1      -4.285  -2.443 129.026  0.00  0.00    +0.000 A 
ATOM     14  C   UNL     1      -4.423  -1.426 129.883  0.00  0.00    +0.000 A 
ATOM     15  C   UNL     1      -5.315  -0.309 129.556  0.00  0.00    +0.000 A 
ATOM     16  O   UNL     1      -5.455   0.628 130.311  0.00  0.00    +0.000 OA
ENDROOT
BRANCH   3  17
ATOM     17  C   UNL     1      -7.987  -1.754 123.751  0.00  0.00    +0.000 C 
ATOM     18  C   UNL     1      -9.146  -2.627 123.604  0.00  0.00    +0.000 C 
ENDBRANCH   3  17
BRANCH  13  19
ATOM     19  C   UNL     1      -3.356  -3.529 129.457  0.00  0.00    +0.000 C 
ATOM     20  O   UNL     1      -3.132  -3.785 130.628  0.00  0.00    +0.000 OA
BRANCH  19  21
ATOM     21  O   UNL     1      -2.773  -4.223 128.456  0.00  0.00    +0.000 OA
ATOM     22  H   UNL     1      -2.554  -5.153 128.641  0.00  0.00    +0.000 HD
ENDBRANCH  19  21
ENDBRANCH  13  19
BRANCH   4  23
ATOM     23  C   UNL     1      -9.914   0.874 122.941  0.00  0.00    +0.000 C 
ATOM     24  O   UNL     1      -9.661   1.867 122.252  0.00  0.00    +0.000 OA
BRANCH  23  25
ATOM     25  O   UNL     1     -10.978   0.219 122.466  0.00  0.00    +0.000 OA
ATOM     26  H   UNL     1     -11.456   0.085 121.638  0.00  0.00    +0.000 HD
ENDBRANCH  23  25
ENDBRANCH   4  23
BRANCH   1  27
ATOM     27  C   UNL     1      -6.074  -2.833 125.401  0.00  0.00    +0.000 C 
BRANCH  27  29
ATOM     28  C   UNL     1      -4.650  -3.759 123.581  0.00  0.00    +0.000 C 
ATOM     29  C   UNL     1      -4.985  -2.504 124.371  0.00  0.00    +0.000 C 
ENDBRANCH  27  29
ENDBRANCH   1  27
TORSDOF 7
ENDMDL
MODEL 2
REMARK VINA RESULT:      -6.9      2.781      6.646
REMARK  Name = Nedocromil
REMARK  9 active torsions:
REMARK  status: ('A' for Active; 'I' for Inactive)
REMARK    1  A    between atoms: C_1  and  C_2
REMARK    2  A    between atoms: C_2  and  C_3
REMARK    3  A    between atoms: C_3  and  C_4
REMARK    4  A    between atoms: N_6  and  C_7
REMARK    5  A    between atoms: C_7  and  C_8
REMARK    6  A    between atoms: C_9  and  C_25
REMARK    7  A    between atoms: C_18  and  C_22
REMARK    8  A    between atoms: C_22  and  O_23
REMARK    9  A    between atoms: C_25  and  O_26
REMARK                            x       y       z     vdW  Elec       q    Type
REMARK                         _______ _______ _______ _____ _____    ______ ____
ROOT
ATOM      1  C   UNL     1      -7.761   0.300 124.291  0.00  0.00    +0.000 A 
ATOM      2  C   UNL     1      -7.559  -0.298 125.601  0.00  0.00    +0.000 A 
ATOM      3  N   UNL     1      -8.159  -1.553 126.093  0.00  0.00    +0.000 N 
ATOM      4  C   UNL     1      -7.893  -2.044 127.409  0.00  0.00    +0.000 A 
ATOM      5  C   UNL     1      -7.078  -1.347 128.227  0.00  0.00    +0.000 A 
ATOM      6  C   UNL     1      -6.440  -0.092 127.834  0.00  0.00    +0.000 A 
ATOM      7  O   UNL     1      -5.711   0.499 128.619  0.00  0.00    +0.000 OA
ATOM      8  C   UNL     1      -6.707   0.418 126.483  0.00  0.00    +0.000 A 
ATOM      9  C   UNL     1      -6.083   1.626 126.129  0.00  0.00    +0.000 A 
ATOM     10  C   UNL     1      -6.294   2.165 124.869  0.00  0.00    +0.000 A 
ATOM     11  C   UNL     1      -7.119   1.526 123.954  0.00  0.00    +0.000 A 
ATOM     12  O   UNL     1      -7.361   2.059 122.692  0.00  0.00    +0.000 OA
ATOM     13  C   UNL     1      -6.741   3.245 122.339  0.00  0.00    +0.000 A 
ATOM     14  C   UNL     1      -5.928   3.931 123.149  0.00  0.00    +0.000 A 
ATOM     15  C   UNL     1      -5.646   3.430 124.499  0.00  0.00    +0.000 A 
ATOM     16  O   UNL     1      -4.918   4.034 125.256  0.00  0.00    +0.000 OA
ENDROOT
BRANCH   3  17
ATOM     17  C   UNL     1      -8.894  -2.232 125.056  0.00  0.00    +0.000 C 
ATOM     18  C   UNL     1      -8.403  -3.524 124.591  0.00  0.00    +0.000 C 
ENDBRANCH   3  17
BRANCH  13  19
ATOM     19  C   UNL     1      -6.960   3.840 120.988  0.00  0.00    +0.000 C 
ATOM     20  O   UNL     1      -6.046   4.112 120.228  0.00  0.00    +0.000 OA
BRANCH  19  21
ATOM     21  O   UNL     1      -8.250   4.058 120.654  0.00  0.00    +0.000 OA
ATOM     22  H   UNL     1      -8.499   4.979 120.461  0.00  0.00    +0.000 HD
ENDBRANCH  19  21
ENDBRANCH  13  19
BRANCH   4  23
ATOM     23  C   UNL     1      -8.361  -3.299 128.195  0.00  0.00    +0.000 C 
ATOM     24  O   UNL     1      -7.721  -3.652 129.189  0.00  0.00    +0.000 OA
BRANCH  23  25
ATOM     25  O   UNL     1      -9.400  -4.113 127.978  0.00  0.00    +0.000 OA
ATOM     26  H   UNL     1      -9.588  -5.048 127.830  0.00  0.00    +0.000 HD
ENDBRANCH  23  25
ENDBRANCH   4  23
BRANCH   1  27
ATOM     27  C   UNL     1      -8.684  -0.216 123.201  0.00  0.00    +0.000 C 
BRANCH  27  29
ATOM     28  C   UNL     1     -10.453   1.174 124.267  0.00  0.00    +0.000 C 
ATOM     29  C   UNL     1      -9.844   0.754 122.939  0.00  0.00    +0.000 C 
ENDBRANCH  27  29
ENDBRANCH   1  27
TORSDOF 7
ENDMDL
MODEL 3
REMARK VINA RESULT:      -6.7      2.495      3.225
REMARK  Name = Nedocromil
REMARK  9 active torsions:
REMARK  status: ('A' for Active; 'I' for Inactive)
REMARK    1  A    between atoms: C_1  and  C_2
REMARK    2  A    between atoms: C_2  and  C_3
REMARK    3  A    between atoms: C_3  and  C_4
REMARK    4  A    between atoms: N_6  and  C_7
REMARK    5  A    between atoms: C_7  and  C_8
REMARK    6  A    between atoms: C_9  and  C_25
REMARK    7  A    between atoms: C_18  and  C_22
REMARK    8  A    between atoms: C_22  and  O_23
REMARK    9  A    between atoms: C_25  and  O_26
REMARK                            x       y       z     vdW  Elec       q    Type
REMARK                         _______ _______ _______ _____ _____    ______ ____
ROOT
ATOM      1  C   UNL     1      -7.796  -0.130 125.688  0.00  0.00    +0.000 A 
ATOM      2  C   UNL     1      -7.338   1.040 124.955  0.00  0.00    +0.000 A 
ATOM      3  N   UNL     1      -7.853   1.518 123.657  0.00  0.00    +0.000 N 
ATOM      4  C   UNL     1      -7.319   2.682 123.024  0.00  0.00    +0.000 A 
ATOM      5  C   UNL     1      -6.319   3.363 123.619  0.00  0.00    +0.000 A 
ATOM      6  C   UNL     1      -5.738   2.968 124.901  0.00  0.00    +0.000 A 
ATOM      7  O   UNL     1      -4.830   3.623 125.392  0.00  0.00    +0.000 OA
ATOM      8  C   UNL     1      -6.283   1.773 125.559  0.00  0.00    +0.000 A 
ATOM      9  C   UNL     1      -5.708   1.413 126.789  0.00  0.00    +0.000 A 
ATOM     10  C   UNL     1      -6.173   0.294 127.463  0.00  0.00    +0.000 A 
ATOM     11  C   UNL     1      -7.198  -0.477 126.934  0.00  0.00    +0.000 A 
ATOM     12  O   UNL     1      -7.667  -1.615 127.583  0.00  0.00    +0.000 OA
ATOM     13  C   UNL     1      -7.107  -1.967 128.798  0.00  0.00    +0.000 A 
ATOM     14  C   UNL     1      -6.119  -1.286 129.389  0.00  0.00    +0.000 A 
ATOM     15  C   UNL     1      -5.570  -0.087 128.747  0.00  0.00    +0.000 A 
ATOM     16  O   UNL     1      -4.672   0.546 129.257  0.00  0.00    +0.000 OA
ENDROOT
BRANCH   3  17
ATOM     17  C   UNL     1      -8.999   0.756 123.229  0.00  0.00    +0.000 C 
ATOM     18  C   UNL     1     -10.317   1.374 123.321  0.00  0.00    +0.000 C 
ENDBRANCH   3  17
BRANCH  13  19
ATOM     19  C   UNL     1      -7.594  -3.169 129.536  0.00  0.00    +0.000 C 
ATOM     20  O   UNL     1      -7.040  -3.607 130.529  0.00  0.00    +0.000 OA
BRANCH  19  21
ATOM     21  O   UNL     1      -8.703  -3.750 129.028  0.00  0.00    +0.000 OA
ATOM     22  H   UNL     1      -8.570  -4.557 128.503  0.00  0.00    +0.000 HD
ENDBRANCH  19  21
ENDBRANCH  13  19
BRANCH   4  23
ATOM     23  C   UNL     1      -7.642   3.416 121.694  0.00  0.00    +0.000 C 
ATOM     24  O   UNL     1      -6.735   3.593 120.876  0.00  0.00    +0.000 OA
BRANCH  23  25
ATOM     25  O   UNL     1      -8.798   3.917 121.245  0.00  0.00    +0.000 OA
ATOM     26  H   UNL     1      -9.707   3.642 121.077  0.00  0.00    +0.000 HD
ENDBRANCH  23  25
ENDBRANCH   4  23
BRANCH   1  27
ATOM     27  C   UNL     1      -8.846  -1.125 125.226  0.00  0.00    +0.000 C 
BRANCH  27  29
ATOM     28  C   UNL     1      -9.275  -3.020 123.669  0.00  0.00    +0.000 C 
ATOM     29  C   UNL     1      -8.210  -2.316 124.495  0.00  0.00    +0.000 C 
ENDBRANCH  27  29
ENDBRANCH   1  27
TORSDOF 7
ENDMDL
MODEL 4
REMARK VINA RESULT:      -6.6      2.635      7.231
REMARK  Name = Nedocromil
REMARK  9 active torsions:
REMARK  status: ('A' for Active; 'I' for Inactive)
REMARK    1  A    between atoms: C_1  and  C_2
REMARK    2  A    between atoms: C_2  and  C_3
REMARK    3  A    between atoms: C_3  and  C_4
REMARK    4  A    between atoms: N_6  and  C_7
REMARK    5  A    between atoms: C_7  and  C_8
REMARK    6  A    between atoms: C_9  and  C_25
REMARK    7  A    between atoms: C_18  and  C_22
REMARK    8  A    between atoms: C_22  and  O_23
REMARK    9  A    between atoms: C_25  and  O_26
REMARK                            x       y       z     vdW  Elec       q    Type
REMARK                         _______ _______ _______ _____ _____    ______ ____
ROOT
ATOM      1  C   UNL     1      -7.026   0.337 126.830  0.00  0.00    +0.000 A 
ATOM      2  C   UNL     1      -7.295  -0.868 127.597  0.00  0.00    +0.000 A 
ATOM      3  N   UNL     1      -6.744  -1.203 128.924  0.00  0.00    +0.000 N 
ATOM      4  C   UNL     1      -7.075  -2.427 129.585  0.00  0.00    +0.000 A 
ATOM      5  C   UNL     1      -7.907  -3.302 128.985  0.00  0.00    +0.000 A 
ATOM      6  C   UNL     1      -8.501  -3.064 127.670  0.00  0.00    +0.000 A 
ATOM      7  O   UNL     1      -9.248  -3.896 127.174  0.00  0.00    +0.000 OA
ATOM      8  C   UNL     1      -8.166  -1.808 126.986  0.00  0.00    +0.000 A 
ATOM      9  C   UNL     1      -8.749  -1.603 125.724  0.00  0.00    +0.000 A 
ATOM     10  C   UNL     1      -8.474  -0.439 125.022  0.00  0.00    +0.000 A 
ATOM     11  C   UNL     1      -7.627   0.524 125.551  0.00  0.00    +0.000 A 
ATOM     12  O   UNL     1      -7.321   1.690 124.856  0.00  0.00    +0.000 OA
ATOM     13  C   UNL     1      -7.900   1.897 123.616  0.00  0.00    +0.000 A 
ATOM     14  C   UNL     1      -8.730   1.030 123.026  0.00  0.00    +0.000 A 
ATOM     15  C   UNL     1      -9.078  -0.225 123.701  0.00  0.00    +0.000 A 
ATOM     16  O   UNL     1      -9.823  -1.030 123.188  0.00  0.00    +0.000 OA
ENDROOT
BRANCH   3  17
ATOM     17  C   UNL     1      -5.982  -0.110 129.473  0.00  0.00    +0.000 C 
ATOM     18  C   UNL     1      -4.611  -0.366 129.899  0.00  0.00    +0.000 C 
ENDBRANCH   3  17
BRANCH  13  19
ATOM     19  C   UNL     1      -7.613   3.143 122.846  0.00  0.00    +0.000 C 
ATOM     20  O   UNL     1      -6.525   3.693 122.856  0.00  0.00    +0.000 OA
BRANCH  19  21
ATOM     21  O   UNL     1      -8.646   3.629 122.126  0.00  0.00    +0.000 OA
ATOM     22  H   UNL     1      -8.634   3.448 121.170  0.00  0.00    +0.000 HD
ENDBRANCH  19  21
ENDBRANCH  13  19
BRANCH   4  23
ATOM     23  C   UNL     1      -6.667  -3.047 130.948  0.00  0.00    +0.000 C 
ATOM     24  O   UNL     1      -5.788  -3.913 130.969  0.00  0.00    +0.000 OA
BRANCH  23  25
ATOM     25  O   UNL     1      -7.120  -2.792 132.181  0.00  0.00    +0.000 OA
ATOM     26  H   UNL     1      -7.075  -2.107 132.858  0.00  0.00    +0.000 HD
ENDBRANCH  23  25
ENDBRANCH   4  23
BRANCH   1  27
ATOM     27  C   UNL     1      -6.071   1.453 127.215  0.00  0.00    +0.000 C 
BRANCH  27  29
ATOM     28  C   UNL     1      -4.034   2.686 126.488  0.00  0.00    +0.000 C 
ATOM     29  C   UNL     1      -4.738   1.339 126.463  0.00  0.00    +0.000 C 
ENDBRANCH  27  29
ENDBRANCH   1  27
TORSDOF 7
ENDMDL
MODEL 5
REMARK VINA RESULT:      -6.6      3.114      6.797
REMARK  Name = Nedocromil
REMARK  9 active torsions:
REMARK  status: ('A' for Active; 'I' for Inactive)
REMARK    1  A    between atoms: C_1  and  C_2
REMARK    2  A    between atoms: C_2  and  C_3
REMARK    3  A    between atoms: C_3  and  C_4
REMARK    4  A    between atoms: N_6  and  C_7
REMARK    5  A    between atoms: C_7  and  C_8
REMARK    6  A    between atoms: C_9  and  C_25
REMARK    7  A    between atoms: C_18  and  C_22
REMARK    8  A    between atoms: C_22  and  O_23
REMARK    9  A    between atoms: C_25  and  O_26
REMARK                            x       y       z     vdW  Elec       q    Type
REMARK                         _______ _______ _______ _____ _____    ______ ____
ROOT
ATOM      1  C   UNL     1      -7.586  -0.993 128.160  0.00  0.00    +0.000 A 
ATOM      2  C   UNL     1      -7.420  -0.015 129.223  0.00  0.00    +0.000 A 
ATOM      3  N   UNL     1      -6.873  -0.269 130.570  0.00  0.00    +0.000 N 
ATOM      4  C   UNL     1      -6.762   0.773 131.541  0.00  0.00    +0.000 A 
ATOM      5  C   UNL     1      -7.168   2.020 131.228  0.00  0.00    +0.000 A 
ATOM      6  C   UNL     1      -7.727   2.372 129.924  0.00  0.00    +0.000 A 
ATOM      7  O   UNL     1      -8.081   3.520 129.696  0.00  0.00    +0.000 OA
ATOM      8  C   UNL     1      -7.843   1.306 128.919  0.00  0.00    +0.000 A 
ATOM      9  C   UNL     1      -8.384   1.669 127.674  0.00  0.00    +0.000 A 
ATOM     10  C   UNL     1      -8.523   0.711 126.681  0.00  0.00    +0.000 A 
ATOM     11  C   UNL     1      -8.138  -0.603 126.905  0.00  0.00    +0.000 A 
ATOM     12  O   UNL     1      -8.287  -1.585 125.930  0.00  0.00    +0.000 OA
ATOM     13  C   UNL     1      -8.813  -1.228 124.701  0.00  0.00    +0.000 A 
ATOM     14  C   UNL     1      -9.209   0.011 124.390  0.00  0.00    +0.000 A 
ATOM     15  C   UNL     1      -9.092   1.087 125.381  0.00  0.00    +0.000 A 
ATOM     16  O   UNL     1      -9.448   2.217 125.128  0.00  0.00    +0.000 OA
ENDROOT
BRANCH   3  17
ATOM     17  C   UNL     1      -6.372  -1.615 130.693  0.00  0.00    +0.000 C 
ATOM     18  C   UNL     1      -6.790  -2.408 131.843  0.00  0.00    +0.000 C 
ENDBRANCH   3  17
BRANCH  13  19
ATOM     19  C   UNL     1      -8.973  -2.246 123.622  0.00  0.00    +0.000 C 
ATOM     20  O   UNL     1      -8.306  -2.241 122.601  0.00  0.00    +0.000 OA
BRANCH  19  21
ATOM     21  O   UNL     1      -9.912  -3.189 123.850  0.00  0.00    +0.000 OA
ATOM     22  H   UNL     1     -10.449  -3.463 123.086  0.00  0.00    +0.000 HD
ENDBRANCH  19  21
ENDBRANCH  13  19
BRANCH   4  23
ATOM     23  C   UNL     1      -6.242   0.817 133.003  0.00  0.00    +0.000 C 
ATOM     24  O   UNL     1      -5.106   0.399 133.244  0.00  0.00    +0.000 OA
BRANCH  23  25
ATOM     25  O   UNL     1      -6.836   1.259 134.117  0.00  0.00    +0.000 OA
ATOM     26  H   UNL     1      -6.905   2.060 134.650  0.00  0.00    +0.000 HD
ENDBRANCH  23  25
ENDBRANCH   4  23
BRANCH   1  27
ATOM     27  C   UNL     1      -7.294  -2.480 128.253  0.00  0.00    +0.000 C 
BRANCH  27  29
ATOM     28  C   UNL     1      -9.034  -4.198 127.786  0.00  0.00    +0.000 C 
ATOM     29  C   UNL     1      -8.483  -3.252 128.841  0.00  0.00    +0.000 C 
ENDBRANCH  27  29
ENDBRANCH   1  27
TORSDOF 7
ENDMDL
MODEL 6
REMARK VINA RESULT:      -6.5      2.954      4.522
REMARK  Name = Nedocromil
REMARK  9 active torsions:
REMARK  status: ('A' for Active; 'I' for Inactive)
REMARK    1  A    between atoms: C_1  and  C_2
REMARK    2  A    between atoms: C_2  and  C_3
REMARK    3  A    between atoms: C_3  and  C_4
REMARK    4  A    between atoms: N_6  and  C_7
REMARK    5  A    between atoms: C_7  and  C_8
REMARK    6  A    between atoms: C_9  and  C_25
REMARK    7  A    between atoms: C_18  and  C_22
REMARK    8  A    between atoms: C_22  and  O_23
REMARK    9  A    between atoms: C_25  and  O_26
REMARK                            x       y       z     vdW  Elec       q    Type
REMARK                         _______ _______ _______ _____ _____    ______ ____
ROOT
ATOM      1  C   UNL     1      -7.795   0.294 127.453  0.00  0.00    +0.000 A 
ATOM      2  C   UNL     1      -8.203   0.366 126.060  0.00  0.00    +0.000 A 
ATOM      3  N   UNL     1      -8.203   1.572 125.208  0.00  0.00    +0.000 N 
ATOM      4  C   UNL     1      -8.635   1.526 123.846  0.00  0.00    +0.000 A 
ATOM      5  C   UNL     1      -9.056   0.358 123.322  0.00  0.00    +0.000 A 
ATOM      6  C   UNL     1      -9.097  -0.889 124.084  0.00  0.00    +0.000 A 
ATOM      7  O   UNL     1      -9.492  -1.920 123.556  0.00  0.00    +0.000 OA
ATOM      8  C   UNL     1      -8.654  -0.850 125.484  0.00  0.00    +0.000 A 
ATOM      9  C   UNL     1      -8.704  -2.061 126.195  0.00  0.00    +0.000 A 
ATOM     10  C   UNL     1      -8.302  -2.094 127.522  0.00  0.00    +0.000 A 
ATOM     11  C   UNL     1      -7.854  -0.944 128.156  0.00  0.00    +0.000 A 
ATOM     12  O   UNL     1      -7.465  -0.950 129.492  0.00  0.00    +0.000 OA
ATOM     13  C   UNL     1      -7.507  -2.143 130.192  0.00  0.00    +0.000 A 
ATOM     14  C   UNL     1      -7.919  -3.302 129.668  0.00  0.00    +0.000 A 
ATOM     15  C   UNL     1      -8.357  -3.358 128.269  0.00  0.00    +0.000 A 
ATOM     16  O   UNL     1      -8.741  -4.392 127.769  0.00  0.00    +0.000 OA
ENDROOT
BRANCH   3  17
ATOM     17  C   UNL     1      -7.606   2.697 125.882  0.00  0.00    +0.000 C 
ATOM     18  C   UNL     1      -6.286   3.143 125.450  0.00  0.00    +0.000 C 
ENDBRANCH   3  17
BRANCH  13  19
ATOM     19  C   UNL     1      -7.080  -2.196 131.621  0.00  0.00    +0.000 C 
ATOM     20  O   UNL     1      -7.267  -3.168 132.333  0.00  0.00    +0.000 OA
BRANCH  19  21
ATOM     21  O   UNL     1      -6.463  -1.087 132.083  0.00  0.00    +0.000 OA
ATOM     22  H   UNL     1      -6.774  -0.236 131.728  0.00  0.00    +0.000 HD
ENDBRANCH  19  21
ENDBRANCH  13  19
BRANCH   4  23
ATOM     23  C   UNL     1      -8.747   2.595 122.727  0.00  0.00    +0.000 C 
ATOM     24  O   UNL     1      -9.445   2.351 121.739  0.00  0.00    +0.000 OA
BRANCH  23  25
ATOM     25  O   UNL     1      -8.195   3.810 122.636  0.00  0.00    +0.000 OA
ATOM     26  H   UNL     1      -7.799   4.486 123.199  0.00  0.00    +0.000 HD
ENDBRANCH  23  25
ENDBRANCH   4  23
BRANCH   1  27
ATOM     27  C   UNL     1      -7.355   1.459 128.322  0.00  0.00    +0.000 C 
BRANCH  27  29
ATOM     28  C   UNL     1      -8.121   2.371 130.509  0.00  0.00    +0.000 C 
ATOM     29  C   UNL     1      -8.540   2.077 129.077  0.00  0.00    +0.000 C 
ENDBRANCH  27  29
ENDBRANCH   1  27
TORSDOF 7
ENDMDL
MODEL 7
REMARK VINA RESULT:      -6.5      3.236      6.352
REMARK  Name = Nedocromil
REMARK  9 active torsions:
REMARK  status: ('A' for Active; 'I' for Inactive)
REMARK    1  A    between atoms: C_1  and  C_2
REMARK    2  A    between atoms: C_2  and  C_3
REMARK    3  A    between atoms: C_3  and  C_4
REMARK    4  A    between atoms: N_6  and  C_7
REMARK    5  A    between atoms: C_7  and  C_8
REMARK    6  A    between atoms: C_9  and  C_25
REMARK    7  A    between atoms: C_18  and  C_22
REMARK    8  A    between atoms: C_22  and  O_23
REMARK    9  A    between atoms: C_25  and  O_26
REMARK                            x       y       z     vdW  Elec       q    Type
REMARK                         _______ _______ _______ _____ _____    ______ ____
ROOT
ATOM      1  C   UNL     1      -6.521   1.327 125.296  0.00  0.00    +0.000 A 
ATOM      2  C   UNL     1      -5.696   1.951 126.319  0.00  0.00    +0.000 A 
ATOM      3  N   UNL     1      -5.055   3.278 126.239  0.00  0.00    +0.000 N 
ATOM      4  C   UNL     1      -4.257   3.789 127.309  0.00  0.00    +0.000 A 
ATOM      5  C   UNL     1      -4.079   3.045 128.419  0.00  0.00    +0.000 A 
ATOM      6  C   UNL     1      -4.668   1.719 128.593  0.00  0.00    +0.000 A 
ATOM      7  O   UNL     1      -4.471   1.088 129.622  0.00  0.00    +0.000 OA
ATOM      8  C   UNL     1      -5.491   1.187 127.498  0.00  0.00    +0.000 A 
ATOM      9  C   UNL     1      -6.045  -0.090 127.688  0.00  0.00    +0.000 A 
ATOM     10  C   UNL     1      -6.830  -0.652 126.694  0.00  0.00    +0.000 A 
ATOM     11  C   UNL     1      -7.072   0.031 125.510  0.00  0.00    +0.000 A 
ATOM     12  O   UNL     1      -7.840  -0.523 124.490  0.00  0.00    +0.000 OA
ATOM     13  C   UNL     1      -8.392  -1.777 124.679  0.00  0.00    +0.000 A 
ATOM     14  C   UNL     1      -8.220  -2.511 125.784  0.00  0.00    +0.000 A 
ATOM     15  C   UNL     1      -7.407  -1.989 126.888  0.00  0.00    +0.000 A 
ATOM     16  O   UNL     1      -7.229  -2.633 127.899  0.00  0.00    +0.000 OA
ENDROOT
BRANCH   3  17
ATOM     17  C   UNL     1      -5.451   3.987 125.048  0.00  0.00    +0.000 C 
ATOM     18  C   UNL     1      -6.297   5.166 125.193  0.00  0.00    +0.000 C 
ENDBRANCH   3  17
BRANCH  13  19
ATOM     19  C   UNL     1      -9.238  -2.399 123.617  0.00  0.00    +0.000 C 
ATOM     20  O   UNL     1      -9.378  -3.604 123.502  0.00  0.00    +0.000 OA
BRANCH  19  21
ATOM     21  O   UNL     1      -9.849  -1.531 122.782  0.00  0.00    +0.000 OA
ATOM     22  H   UNL     1     -10.817  -1.602 122.714  0.00  0.00    +0.000 HD
ENDBRANCH  19  21
ENDBRANCH  13  19
BRANCH   4  23
ATOM     23  C   UNL     1      -3.474   5.113 127.517  0.00  0.00    +0.000 C 
ATOM     24  O   UNL     1      -4.102   6.175 127.562  0.00  0.00    +0.000 OA
BRANCH  23  25
ATOM     25  O   UNL     1      -2.163   5.324 127.670  0.00  0.00    +0.000 OA
ATOM     26  H   UNL     1      -1.443   5.098 128.272  0.00  0.00    +0.000 HD
ENDBRANCH  23  25
ENDBRANCH   4  23
BRANCH   1  27
ATOM     27  C   UNL     1      -6.824   1.891 123.920  0.00  0.00    +0.000 C 
BRANCH  27  29
ATOM     28  C   UNL     1      -8.501   2.989 122.444  0.00  0.00    +0.000 C 
ATOM     29  C   UNL     1      -8.271   2.395 123.824  0.00  0.00    +0.000 C 
ENDBRANCH  27  29
ENDBRANCH   1  27
TORSDOF 7
ENDMDL
MODEL 8
REMARK VINA RESULT:      -6.4      2.979      4.506
REMARK  Name = Nedocromil
REMARK  9 active torsions:
REMARK  status: ('A' for Active; 'I' for Inactive)
REMARK    1  A    between atoms: C_1  and  C_2
REMARK    2  A    between atoms: C_2  and  C_3
REMARK    3  A    between atoms: C_3  and  C_4
REMARK    4  A    between atoms: N_6  and  C_7
REMARK    5  A    between atoms: C_7  and  C_8
REMARK    6  A    between atoms: C_9  and  C_25
REMARK    7  A    between atoms: C_18  and  C_22
REMARK    8  A    between atoms: C_22  and  O_23
REMARK    9  A    between atoms: C_25  and  O_26
REMARK                            x       y       z     vdW  Elec       q    Type
REMARK                         _______ _______ _______ _____ _____    ______ ____
ROOT
ATOM      1  C   UNL     1      -7.612  -0.321 128.524  0.00  0.00    +0.000 A 
ATOM      2  C   UNL     1      -8.142  -0.286 127.170  0.00  0.00    +0.000 A 
ATOM      3  N   UNL     1      -8.234  -1.426 126.236  0.00  0.00    +0.000 N 
ATOM      4  C   UNL     1      -8.770  -1.272 124.920  0.00  0.00    +0.000 A 
ATOM      5  C   UNL     1      -9.200  -0.060 124.515  0.00  0.00    +0.000 A 
ATOM      6  C   UNL     1      -9.148   1.129 125.363  0.00  0.00    +0.000 A 
ATOM      7  O   UNL     1      -9.551   2.203 124.941  0.00  0.00    +0.000 OA
ATOM      8  C   UNL     1      -8.599   0.979 126.718  0.00  0.00    +0.000 A 
ATOM      9  C   UNL     1      -8.559   2.136 127.513  0.00  0.00    +0.000 A 
ATOM     10  C   UNL     1      -8.051   2.066 128.802  0.00  0.00    +0.000 A 
ATOM     11  C   UNL     1      -7.579   0.865 129.313  0.00  0.00    +0.000 A 
ATOM     12  O   UNL     1      -7.047   0.776 130.596  0.00  0.00    +0.000 OA
ATOM     13  C   UNL     1      -7.013   1.913 131.383  0.00  0.00    +0.000 A 
ATOM     14  C   UNL     1      -7.446   3.113 130.981  0.00  0.00    +0.000 A 
ATOM     15  C   UNL     1      -8.003   3.276 129.634  0.00  0.00    +0.000 A 
ATOM     16  O   UNL     1      -8.399   4.351 129.241  0.00  0.00    +0.000 OA
ENDROOT
BRANCH   3  17
ATOM     17  C   UNL     1      -7.853  -2.662 126.870  0.00  0.00    +0.000 C 
ATOM     18  C   UNL     1      -8.888  -3.658 127.125  0.00  0.00    +0.000 C 
ENDBRANCH   3  17
BRANCH  13  19
ATOM     19  C   UNL     1      -6.467   1.856 132.771  0.00  0.00    +0.000 C 
ATOM     20  O   UNL     1      -7.143   1.544 133.737  0.00  0.00    +0.000 OA
BRANCH  19  21
ATOM     21  O   UNL     1      -5.160   2.172 132.893  0.00  0.00    +0.000 OA
ATOM     22  H   UNL     1      -4.812   2.831 132.267  0.00  0.00    +0.000 HD
ENDBRANCH  19  21
ENDBRANCH  13  19
BRANCH   4  23
ATOM     23  C   UNL     1      -8.993  -2.254 123.739  0.00  0.00    +0.000 C 
ATOM     24  O   UNL     1      -8.159  -2.291 122.830  0.00  0.00    +0.000 OA
BRANCH  23  25
ATOM     25  O   UNL     1      -9.984  -3.124 123.516  0.00  0.00    +0.000 OA
ATOM     26  H   UNL     1     -10.814  -3.417 123.912  0.00  0.00    +0.000 HD
ENDBRANCH  23  25
ENDBRANCH   4  23
BRANCH   1  27
ATOM     27  C   UNL     1      -6.986  -1.520 129.214  0.00  0.00    +0.000 C 
BRANCH  27  29
ATOM     28  C   UNL     1      -7.281  -3.344 130.883  0.00  0.00    +0.000 C 
ATOM     29  C   UNL     1      -7.904  -2.082 130.309  0.00  0.00    +0.000 C 
ENDBRANCH  27  29
ENDBRANCH   1  27
TORSDOF 7
ENDMDL
MODEL 9
REMARK VINA RESULT:      -6.3      5.269      8.233
REMARK  Name = Nedocromil
REMARK  9 active torsions:
REMARK  status: ('A' for Active; 'I' for Inactive)
REMARK    1  A    between atoms: C_1  and  C_2
REMARK    2  A    between atoms: C_2  and  C_3
REMARK    3  A    between atoms: C_3  and  C_4
REMARK    4  A    between atoms: N_6  and  C_7
REMARK    5  A    between atoms: C_7  and  C_8
REMARK    6  A    between atoms: C_9  and  C_25
REMARK    7  A    between atoms: C_18  and  C_22
REMARK    8  A    between atoms: C_22  and  O_23
REMARK    9  A    between atoms: C_25  and  O_26
REMARK                            x       y       z     vdW  Elec       q    Type
REMARK                         _______ _______ _______ _____ _____    ______ ____
ROOT
ATOM      1  C   UNL     1      -5.021   3.926 126.981  0.00  0.00    +0.000 A 
ATOM      2  C   UNL     1      -5.567   3.786 128.321  0.00  0.00    +0.000 A 
ATOM      3  N   UNL     1      -4.816   3.885 129.588  0.00  0.00    +0.000 N 
ATOM      4  C   UNL     1      -5.461   3.722 130.854  0.00  0.00    +0.000 A 
ATOM      5  C   UNL     1      -6.784   3.469 130.899  0.00  0.00    +0.000 A 
ATOM      6  C   UNL     1      -7.613   3.348 129.701  0.00  0.00    +0.000 A 
ATOM      7  O   UNL     1      -8.810   3.115 129.802  0.00  0.00    +0.000 OA
ATOM      8  C   UNL     1      -6.959   3.515 128.396  0.00  0.00    +0.000 A 
ATOM      9  C   UNL     1      -7.777   3.394 127.260  0.00  0.00    +0.000 A 
ATOM     10  C   UNL     1      -7.223   3.539 125.998  0.00  0.00    +0.000 A 
ATOM     11  C   UNL     1      -5.868   3.798 125.843  0.00  0.00    +0.000 A 
ATOM     12  O   UNL     1      -5.287   3.927 124.585  0.00  0.00    +0.000 OA
ATOM     13  C   UNL     1      -6.093   3.814 123.465  0.00  0.00    +0.000 A 
ATOM     14  C   UNL     1      -7.406   3.569 123.512  0.00  0.00    +0.000 A 
ATOM     15  C   UNL     1      -8.075   3.408 124.808  0.00  0.00    +0.000 A 
ATOM     16  O   UNL     1      -9.262   3.180 124.881  0.00  0.00    +0.000 OA
ENDROOT
BRANCH   3  17
ATOM     17  C   UNL     1      -3.450   4.285 129.365  0.00  0.00    +0.000 C 
ATOM     18  C   UNL     1      -3.041   5.621 129.784  0.00  0.00    +0.000 C 
ENDBRANCH   3  17
BRANCH  13  19
ATOM     19  C   UNL     1      -5.512   3.964 122.098  0.00  0.00    +0.000 C 
ATOM     20  O   UNL     1      -5.647   3.124 121.225  0.00  0.00    +0.000 OA
BRANCH  19  21
ATOM     21  O   UNL     1      -4.821   5.105 121.885  0.00  0.00    +0.000 OA
ATOM     22  H   UNL     1      -3.891   5.006 121.619  0.00  0.00    +0.000 HD
ENDBRANCH  19  21
ENDBRANCH  13  19
BRANCH   4  23
ATOM     23  C   UNL     1      -4.956   3.770 132.321  0.00  0.00    +0.000 C 
ATOM     24  O   UNL     1      -4.646   4.860 132.809  0.00  0.00    +0.000 OA
BRANCH  23  25
ATOM     25  O   UNL     1      -4.790   2.783 133.208  0.00  0.00    +0.000 OA
ATOM     26  H   UNL     1      -4.570   1.844 133.237  0.00  0.00    +0.000 HD
ENDBRANCH  23  25
ENDBRANCH   4  23
BRANCH   1  27
ATOM     27  C   UNL     1      -3.560   4.132 126.624  0.00  0.00    +0.000 C 
BRANCH  27  29
ATOM     28  C   UNL     1      -1.339   3.006 126.579  0.00  0.00    +0.000 C 
ATOM     29  C   UNL     1      -2.836   2.794 126.418  0.00  0.00    +0.000 C 
ENDBRANCH  27  29
ENDBRANCH   1  27
TORSDOF 7
ENDMDL
