MODEL 1
REMARK VINA RESULT:      -8.7      0.000      0.000
REMARK  Name = Nefazodone
REMARK  11 active torsions:
REMARK  status: ('A' for Active; 'I' for Inactive)
REMARK    1  A    between atoms: C_1  and  C_2
REMARK    2  A    between atoms: C_2  and  C_3
REMARK    3  A    between atoms: N_5  and  C_6
REMARK    4  A    between atoms: C_6  and  C_7
REMARK    5  A    between atoms: C_7  and  C_8
REMARK    6  A    between atoms: C_8  and  N_9
REMARK    7  A    between atoms: N_12  and  C_15
REMARK    8  A    between atoms: N_24  and  C_25
REMARK    9  A    between atoms: C_25  and  C_26
REMARK   10  A    between atoms: C_26  and  O_27
REMARK   11  A    between atoms: O_27  and  C_28
REMARK                            x       y       z     vdW  Elec       q    Type
REMARK                         _______ _______ _______ _____ _____    ______ ____
ROOT
ATOM      1  C   UNL     1      -7.777   5.383 130.230  0.00  0.00    +0.000 A 
ATOM      2  N   UNL     1      -6.766   5.289 129.389  0.00  0.00    +0.000 NA
ATOM      3  N   UNL     1      -7.110   4.241 128.520  0.00  0.00    +0.000 N 
ATOM      4  C   UNL     1      -8.360   3.734 128.910  0.00  0.00    +0.000 A 
ATOM      5  O   UNL     1      -9.026   2.853 128.411  0.00  0.00    +0.000 OA
ATOM      6  N   UNL     1      -8.747   4.468 130.010  0.00  0.00    +0.000 N 
ENDROOT
BRANCH   1   8
ATOM      7  C   UNL     1      -7.019   6.153 132.540  0.00  0.00    +0.000 C 
ATOM      8  C   UNL     1      -7.873   6.463 131.325  0.00  0.00    +0.000 C 
ENDBRANCH   1   8
BRANCH   3   9
ATOM      9  C   UNL     1      -6.297   3.785 127.346  0.00  0.00    +0.000 C 
BRANCH   9  10
ATOM     10  C   UNL     1      -6.759   4.476 126.066  0.00  0.00    +0.000 C 
BRANCH  10  11
ATOM     11  C   UNL     1      -7.998   4.066 125.268  0.00  0.00    +0.000 C 
BRANCH  11  12
ATOM     12  N   UNL     1      -7.730   3.225 124.058  0.00  0.00    +0.000 NA
ATOM     13  C   UNL     1      -6.731   2.150 124.338  0.00  0.00    +0.000 C 
ATOM     14  C   UNL     1      -7.277   1.039 125.279  0.00  0.00    +0.000 C 
ATOM     15  N   UNL     1      -8.458   0.459 124.643  0.00  0.00    +0.000 N 
ATOM     16  C   UNL     1      -9.526   1.386 124.293  0.00  0.00    +0.000 C 
ATOM     17  C   UNL     1      -8.929   2.557 123.465  0.00  0.00    +0.000 C 
BRANCH  15  18
ATOM     18  C   UNL     1      -8.720  -0.878 124.552  0.00  0.00    +0.000 A 
ATOM     19  C   UNL     1      -8.769  -1.623 125.737  0.00  0.00    +0.000 A 
ATOM     20  C   UNL     1      -9.074  -2.975 125.714  0.00  0.00    +0.000 A 
ATOM     21 CL   UNL     1      -9.174  -3.841 127.194  0.00  0.00    +0.000 Cl
ATOM     22  C   UNL     1      -9.312  -3.614 124.503  0.00  0.00    +0.000 A 
ATOM     23  C   UNL     1      -9.221  -2.895 123.310  0.00  0.00    +0.000 A 
ATOM     24  C   UNL     1      -8.927  -1.530 123.336  0.00  0.00    +0.000 A 
ENDBRANCH  15  18
ENDBRANCH  11  12
ENDBRANCH  10  11
ENDBRANCH   9  10
ENDBRANCH   3   9
BRANCH   6  25
ATOM     25  C   UNL     1     -10.043   4.138 130.600  0.00  0.00    +0.000 C 
BRANCH  25  26
ATOM     26  C   UNL     1     -11.047   5.259 130.617  0.00  0.00    +0.000 C 
BRANCH  26  27
ATOM     27  O   UNL     1     -11.923   5.241 129.511  0.00  0.00    +0.000 OA
BRANCH  27  28
ATOM     28  C   UNL     1     -12.318   6.497 129.119  0.00  0.00    +0.000 A 
ATOM     29  C   UNL     1     -11.985   7.502 130.021  0.00  0.00    +0.000 A 
ATOM     30  C   UNL     1     -12.525   8.776 129.879  0.00  0.00    +0.000 A 
ATOM     31  C   UNL     1     -13.326   9.079 128.780  0.00  0.00    +0.000 A 
ATOM     32  C   UNL     1     -13.605   8.097 127.832  0.00  0.00    +0.000 A 
ATOM     33  C   UNL     1     -13.103   6.803 128.000  0.00  0.00    +0.000 A 
ENDBRANCH  27  28
ENDBRANCH  26  27
ENDBRANCH  25  26
ENDBRANCH   6  25
TORSDOF 10
ENDMDL
MODEL 2
REMARK VINA RESULT:      -8.6      5.656      8.723
REMARK  Name = Nefazodone
REMARK  11 active torsions:
REMARK  status: ('A' for Active; 'I' for Inactive)
REMARK    1  A    between atoms: C_1  and  C_2
REMARK    2  A    between atoms: C_2  and  C_3
REMARK    3  A    between atoms: N_5  and  C_6
REMARK    4  A    between atoms: C_6  and  C_7
REMARK    5  A    between atoms: C_7  and  C_8
REMARK    6  A    between atoms: C_8  and  N_9
REMARK    7  A    between atoms: N_12  and  C_15
REMARK    8  A    between atoms: N_24  and  C_25
REMARK    9  A    between atoms: C_25  and  C_26
REMARK   10  A    between atoms: C_26  and  O_27
REMARK   11  A    between atoms: O_27  and  C_28
REMARK                            x       y       z     vdW  Elec       q    Type
REMARK                         _______ _______ _______ _____ _____    ______ ____
ROOT
ATOM      1  C   UNL     1      -6.871  -2.261 124.290  0.00  0.00    +0.000 A 
ATOM      2  N   UNL     1      -7.080  -3.161 125.229  0.00  0.00    +0.000 NA
ATOM      3  N   UNL     1      -8.222  -2.715 125.915  0.00  0.00    +0.000 N 
ATOM      4  C   UNL     1      -8.648  -1.512 125.329  0.00  0.00    +0.000 A 
ATOM      5  O   UNL     1      -9.606  -0.819 125.598  0.00  0.00    +0.000 OA
ATOM      6  N   UNL     1      -7.759  -1.241 124.313  0.00  0.00    +0.000 N 
ENDROOT
BRANCH   1   8
ATOM      7  C   UNL     1      -4.733  -3.449 123.565  0.00  0.00    +0.000 C 
ATOM      8  C   UNL     1      -5.757  -2.380 123.231  0.00  0.00    +0.000 C 
ENDBRANCH   1   8
BRANCH   3   9
ATOM      9  C   UNL     1      -8.892  -3.437 127.045  0.00  0.00    +0.000 C 
BRANCH   9  10
ATOM     10  C   UNL     1      -8.166  -3.173 128.362  0.00  0.00    +0.000 C 
BRANCH  10  11
ATOM     11  C   UNL     1      -7.693  -1.793 128.820  0.00  0.00    +0.000 C 
BRANCH  11  12
ATOM     12  N   UNL     1      -6.229  -1.683 129.113  0.00  0.00    +0.000 NA
ATOM     13  C   UNL     1      -5.424  -1.515 127.865  0.00  0.00    +0.000 C 
ATOM     14  C   UNL     1      -5.632  -0.131 127.185  0.00  0.00    +0.000 C 
ATOM     15  N   UNL     1      -5.260   0.898 128.153  0.00  0.00    +0.000 N 
ATOM     16  C   UNL     1      -5.951   0.863 129.436  0.00  0.00    +0.000 C 
ATOM     17  C   UNL     1      -5.841  -0.568 130.030  0.00  0.00    +0.000 C 
BRANCH  15  18
ATOM     18  C   UNL     1      -4.491   1.992 127.874  0.00  0.00    +0.000 A 
ATOM     19  C   UNL     1      -4.110   2.819 128.939  0.00  0.00    +0.000 A 
ATOM     20  C   UNL     1      -3.293   3.919 128.727  0.00  0.00    +0.000 A 
ATOM     21 CL   UNL     1      -2.809   4.879 130.067  0.00  0.00    +0.000 Cl
ATOM     22  C   UNL     1      -2.861   4.227 127.443  0.00  0.00    +0.000 A 
ATOM     23  C   UNL     1      -3.270   3.439 126.366  0.00  0.00    +0.000 A 
ATOM     24  C   UNL     1      -4.082   2.324 126.583  0.00  0.00    +0.000 A 
ENDBRANCH  15  18
ENDBRANCH  11  12
ENDBRANCH  10  11
ENDBRANCH   9  10
ENDBRANCH   3   9
BRANCH   6  25
ATOM     25  C   UNL     1      -8.002  -0.033 123.529  0.00  0.00    +0.000 C 
BRANCH  25  26
ATOM     26  C   UNL     1      -6.989   1.066 123.707  0.00  0.00    +0.000 C 
BRANCH  26  27
ATOM     27  O   UNL     1      -7.544   2.359 123.606  0.00  0.00    +0.000 OA
BRANCH  27  28
ATOM     28  C   UNL     1      -7.553   2.839 122.319  0.00  0.00    +0.000 A 
ATOM     29  C   UNL     1      -6.288   3.008 121.768  0.00  0.00    +0.000 A 
ATOM     30  C   UNL     1      -6.131   3.707 120.575  0.00  0.00    +0.000 A 
ATOM     31  C   UNL     1      -7.249   4.158 119.876  0.00  0.00    +0.000 A 
ATOM     32  C   UNL     1      -8.526   3.927 120.384  0.00  0.00    +0.000 A 
ATOM     33  C   UNL     1      -8.682   3.270 121.608  0.00  0.00    +0.000 A 
ENDBRANCH  27  28
ENDBRANCH  26  27
ENDBRANCH  25  26
ENDBRANCH   6  25
TORSDOF 10
ENDMDL
MODEL 3
REMARK VINA RESULT:      -8.4      2.974      3.885
REMARK  Name = Nefazodone
REMARK  11 active torsions:
REMARK  status: ('A' for Active; 'I' for Inactive)
REMARK    1  A    between atoms: C_1  and  C_2
REMARK    2  A    between atoms: C_2  and  C_3
REMARK    3  A    between atoms: N_5  and  C_6
REMARK    4  A    between atoms: C_6  and  C_7
REMARK    5  A    between atoms: C_7  and  C_8
REMARK    6  A    between atoms: C_8  and  N_9
REMARK    7  A    between atoms: N_12  and  C_15
REMARK    8  A    between atoms: N_24  and  C_25
REMARK    9  A    between atoms: C_25  and  C_26
REMARK   10  A    between atoms: C_26  and  O_27
REMARK   11  A    between atoms: O_27  and  C_28
REMARK                            x       y       z     vdW  Elec       q    Type
REMARK                         _______ _______ _______ _____ _____    ______ ____
ROOT
ATOM      1  C   UNL     1      -9.131   3.917 132.588  0.00  0.00    +0.000 A 
ATOM      2  N   UNL     1      -8.794   2.753 132.069  0.00  0.00    +0.000 NA
ATOM      3  N   UNL     1      -8.927   2.920 130.681  0.00  0.00    +0.000 N 
ATOM      4  C   UNL     1      -9.365   4.230 130.432  0.00  0.00    +0.000 A 
ATOM      5  O   UNL     1      -9.575   4.788 129.376  0.00  0.00    +0.000 OA
ATOM      6  N   UNL     1      -9.503   4.831 131.664  0.00  0.00    +0.000 N 
ENDROOT
BRANCH   1   8
ATOM      7  C   UNL     1      -7.733   4.845 134.510  0.00  0.00    +0.000 C 
ATOM      8  C   UNL     1      -9.057   4.229 134.095  0.00  0.00    +0.000 C 
ENDBRANCH   1   8
BRANCH   3   9
ATOM      9  C   UNL     1      -8.603   1.883 129.648  0.00  0.00    +0.000 C 
BRANCH   9  10
ATOM     10  C   UNL     1      -7.680   0.814 130.225  0.00  0.00    +0.000 C 
BRANCH  10  11
ATOM     11  C   UNL     1      -7.795  -0.679 129.913  0.00  0.00    +0.000 C 
BRANCH  11  12
ATOM     12  N   UNL     1      -6.533  -1.334 129.441  0.00  0.00    +0.000 NA
ATOM     13  C   UNL     1      -6.805  -2.626 128.743  0.00  0.00    +0.000 C 
ATOM     14  C   UNL     1      -7.503  -2.442 127.366  0.00  0.00    +0.000 C 
ATOM     15  N   UNL     1      -6.635  -1.609 126.537  0.00  0.00    +0.000 N 
ATOM     16  C   UNL     1      -6.264  -0.311 127.086  0.00  0.00    +0.000 C 
ATOM     17  C   UNL     1      -5.693  -0.511 128.517  0.00  0.00    +0.000 C 
BRANCH  15  18
ATOM     18  C   UNL     1      -6.329  -1.857 125.229  0.00  0.00    +0.000 A 
ATOM     19  C   UNL     1      -5.503  -2.950 124.941  0.00  0.00    +0.000 A 
ATOM     20  C   UNL     1      -5.192  -3.281 123.631  0.00  0.00    +0.000 A 
ATOM     21 CL   UNL     1      -4.216  -4.659 123.319  0.00  0.00    +0.000 Cl
ATOM     22  C   UNL     1      -5.684  -2.510 122.585  0.00  0.00    +0.000 A 
ATOM     23  C   UNL     1      -6.471  -1.390 122.858  0.00  0.00    +0.000 A 
ATOM     24  C   UNL     1      -6.793  -1.067 124.178  0.00  0.00    +0.000 A 
ENDBRANCH  15  18
ENDBRANCH  11  12
ENDBRANCH  10  11
ENDBRANCH   9  10
ENDBRANCH   3   9
BRANCH   6  25
ATOM     25  C   UNL     1      -9.938   6.226 131.672  0.00  0.00    +0.000 C 
BRANCH  25  26
ATOM     26  C   UNL     1     -11.370   6.454 132.075  0.00  0.00    +0.000 C 
BRANCH  26  27
ATOM     27  O   UNL     1     -12.298   6.036 131.098  0.00  0.00    +0.000 OA
BRANCH  27  28
ATOM     28  C   UNL     1     -12.712   7.059 130.280  0.00  0.00    +0.000 A 
ATOM     29  C   UNL     1     -13.070   6.652 129.000  0.00  0.00    +0.000 A 
ATOM     30  C   UNL     1     -13.277   7.594 127.997  0.00  0.00    +0.000 A 
ATOM     31  C   UNL     1     -13.219   8.954 128.294  0.00  0.00    +0.000 A 
ATOM     32  C   UNL     1     -12.934   9.372 129.592  0.00  0.00    +0.000 A 
ATOM     33  C   UNL     1     -12.677   8.426 130.588  0.00  0.00    +0.000 A 
ENDBRANCH  27  28
ENDBRANCH  26  27
ENDBRANCH  25  26
ENDBRANCH   6  25
TORSDOF 10
ENDMDL
MODEL 4
REMARK VINA RESULT:      -8.2      2.023      2.737
REMARK  Name = Nefazodone
REMARK  11 active torsions:
REMARK  status: ('A' for Active; 'I' for Inactive)
REMARK    1  A    between atoms: C_1  and  C_2
REMARK    2  A    between atoms: C_2  and  C_3
REMARK    3  A    between atoms: N_5  and  C_6
REMARK    4  A    between atoms: C_6  and  C_7
REMARK    5  A    between atoms: C_7  and  C_8
REMARK    6  A    between atoms: C_8  and  N_9
REMARK    7  A    between atoms: N_12  and  C_15
REMARK    8  A    between atoms: N_24  and  C_25
REMARK    9  A    between atoms: C_25  and  C_26
REMARK   10  A    between atoms: C_26  and  O_27
REMARK   11  A    between atoms: O_27  and  C_28
REMARK                            x       y       z     vdW  Elec       q    Type
REMARK                         _______ _______ _______ _____ _____    ______ ____
ROOT
ATOM      1  C   UNL     1      -8.691   3.811 131.734  0.00  0.00    +0.000 A 
ATOM      2  N   UNL     1      -7.703   3.428 130.950  0.00  0.00    +0.000 NA
ATOM      3  N   UNL     1      -7.276   4.600 130.303  0.00  0.00    +0.000 N 
ATOM      4  C   UNL     1      -8.072   5.667 130.748  0.00  0.00    +0.000 A 
ATOM      5  O   UNL     1      -8.016   6.844 130.463  0.00  0.00    +0.000 OA
ATOM      6  N   UNL     1      -8.974   5.130 131.641  0.00  0.00    +0.000 N 
ENDROOT
BRANCH   1   8
ATOM      7  C   UNL     1     -10.004   1.643 132.017  0.00  0.00    +0.000 C 
ATOM      8  C   UNL     1      -9.422   2.863 132.705  0.00  0.00    +0.000 C 
ENDBRANCH   1   8
BRANCH   3   9
ATOM      9  C   UNL     1      -6.128   4.690 129.343  0.00  0.00    +0.000 C 
BRANCH   9  10
ATOM     10  C   UNL     1      -6.163   3.534 128.347  0.00  0.00    +0.000 C 
BRANCH  10  11
ATOM     11  C   UNL     1      -6.816   3.610 126.967  0.00  0.00    +0.000 C 
BRANCH  11  12
ATOM     12  N   UNL     1      -8.128   2.899 126.840  0.00  0.00    +0.000 NA
ATOM     13  C   UNL     1      -8.395   2.471 125.433  0.00  0.00    +0.000 C 
ATOM     14  C   UNL     1      -7.460   1.324 124.955  0.00  0.00    +0.000 C 
ATOM     15  N   UNL     1      -7.650   0.192 125.858  0.00  0.00    +0.000 N 
ATOM     16  C   UNL     1      -7.439   0.450 127.277  0.00  0.00    +0.000 C 
ATOM     17  C   UNL     1      -8.284   1.684 127.698  0.00  0.00    +0.000 C 
BRANCH  15  18
ATOM     18  C   UNL     1      -7.796  -1.108 125.463  0.00  0.00    +0.000 A 
ATOM     19  C   UNL     1      -6.675  -1.770 124.946  0.00  0.00    +0.000 A 
ATOM     20  C   UNL     1      -6.748  -3.101 124.568  0.00  0.00    +0.000 A 
ATOM     21 CL   UNL     1      -5.337  -3.889 123.985  0.00  0.00    +0.000 Cl
ATOM     22  C   UNL     1      -7.949  -3.791 124.679  0.00  0.00    +0.000 A 
ATOM     23  C   UNL     1      -9.086  -3.132 125.149  0.00  0.00    +0.000 A 
ATOM     24  C   UNL     1      -9.008  -1.794 125.542  0.00  0.00    +0.000 A 
ENDBRANCH  15  18
ENDBRANCH  11  12
ENDBRANCH  10  11
ENDBRANCH   9  10
ENDBRANCH   3   9
BRANCH   6  25
ATOM     25  C   UNL     1      -9.915   6.056 132.265  0.00  0.00    +0.000 C 
BRANCH  25  26
ATOM     26  C   UNL     1     -11.218   6.242 131.535  0.00  0.00    +0.000 C 
BRANCH  26  27
ATOM     27  O   UNL     1     -11.244   7.397 130.725  0.00  0.00    +0.000 OA
BRANCH  27  28
ATOM     28  C   UNL     1     -11.809   7.174 129.493  0.00  0.00    +0.000 A 
ATOM     29  C   UNL     1     -10.926   7.320 128.429  0.00  0.00    +0.000 A 
ATOM     30  C   UNL     1     -11.404   7.363 127.123  0.00  0.00    +0.000 A 
ATOM     31  C   UNL     1     -12.758   7.163 126.867  0.00  0.00    +0.000 A 
ATOM     32  C   UNL     1     -13.640   6.941 127.922  0.00  0.00    +0.000 A 
ATOM     33  C   UNL     1     -13.169   6.948 129.238  0.00  0.00    +0.000 A 
ENDBRANCH  27  28
ENDBRANCH  26  27
ENDBRANCH  25  26
ENDBRANCH   6  25
TORSDOF 10
ENDMDL
MODEL 5
REMARK VINA RESULT:      -8.1      4.286      7.673
REMARK  Name = Nefazodone
REMARK  11 active torsions:
REMARK  status: ('A' for Active; 'I' for Inactive)
REMARK    1  A    between atoms: C_1  and  C_2
REMARK    2  A    between atoms: C_2  and  C_3
REMARK    3  A    between atoms: N_5  and  C_6
REMARK    4  A    between atoms: C_6  and  C_7
REMARK    5  A    between atoms: C_7  and  C_8
REMARK    6  A    between atoms: C_8  and  N_9
REMARK    7  A    between atoms: N_12  and  C_15
REMARK    8  A    between atoms: N_24  and  C_25
REMARK    9  A    between atoms: C_25  and  C_26
REMARK   10  A    between atoms: C_26  and  O_27
REMARK   11  A    between atoms: O_27  and  C_28
REMARK                            x       y       z     vdW  Elec       q    Type
REMARK                         _______ _______ _______ _____ _____    ______ ____
ROOT
ATOM      1  C   UNL     1      -6.622   3.392 122.699  0.00  0.00    +0.000 A 
ATOM      2  N   UNL     1      -5.923   4.187 123.484  0.00  0.00    +0.000 NA
ATOM      3  N   UNL     1      -6.737   4.400 124.608  0.00  0.00    +0.000 N 
ATOM      4  C   UNL     1      -7.938   3.696 124.424  0.00  0.00    +0.000 A 
ATOM      5  O   UNL     1      -8.892   3.590 125.165  0.00  0.00    +0.000 OA
ATOM      6  N   UNL     1      -7.842   3.083 123.194  0.00  0.00    +0.000 N 
ENDROOT
BRANCH   1   8
ATOM      7  C   UNL     1      -5.305   3.841 120.561  0.00  0.00    +0.000 C 
ATOM      8  C   UNL     1      -6.087   2.823 121.370  0.00  0.00    +0.000 C 
ENDBRANCH   1   8
BRANCH   3   9
ATOM      9  C   UNL     1      -6.355   5.200 125.816  0.00  0.00    +0.000 C 
BRANCH   9  10
ATOM     10  C   UNL     1      -5.089   4.641 126.459  0.00  0.00    +0.000 C 
BRANCH  10  11
ATOM     11  C   UNL     1      -4.914   3.182 126.882  0.00  0.00    +0.000 C 
BRANCH  11  12
ATOM     12  N   UNL     1      -5.459   2.837 128.234  0.00  0.00    +0.000 NA
ATOM     13  C   UNL     1      -6.925   2.556 128.186  0.00  0.00    +0.000 C 
ATOM     14  C   UNL     1      -7.271   1.231 127.450  0.00  0.00    +0.000 C 
ATOM     15  N   UNL     1      -6.584   0.145 128.146  0.00  0.00    +0.000 N 
ATOM     16  C   UNL     1      -5.140   0.276 128.288  0.00  0.00    +0.000 C 
ATOM     17  C   UNL     1      -4.816   1.665 128.904  0.00  0.00    +0.000 C 
BRANCH  15  18
ATOM     18  C   UNL     1      -7.150  -1.054 128.475  0.00  0.00    +0.000 A 
ATOM     19  C   UNL     1      -7.029  -1.500 129.797  0.00  0.00    +0.000 A 
ATOM     20  C   UNL     1      -7.619  -2.687 130.203  0.00  0.00    +0.000 A 
ATOM     21 CL   UNL     1      -7.489  -3.172 131.846  0.00  0.00    +0.000 Cl
ATOM     22  C   UNL     1      -8.321  -3.462 129.289  0.00  0.00    +0.000 A 
ATOM     23  C   UNL     1      -8.411  -3.054 127.957  0.00  0.00    +0.000 A 
ATOM     24  C   UNL     1      -7.828  -1.852 127.553  0.00  0.00    +0.000 A 
ENDBRANCH  15  18
ENDBRANCH  11  12
ENDBRANCH  10  11
ENDBRANCH   9  10
ENDBRANCH   3   9
BRANCH   6  25
ATOM     25  C   UNL     1      -8.976   2.264 122.775  0.00  0.00    +0.000 C 
BRANCH  25  26
ATOM     26  C   UNL     1      -8.958   0.839 123.260  0.00  0.00    +0.000 C 
BRANCH  26  27
ATOM     27  O   UNL     1      -7.698   0.432 123.746  0.00  0.00    +0.000 OA
BRANCH  27  28
ATOM     28  C   UNL     1      -7.641  -0.912 124.028  0.00  0.00    +0.000 A 
ATOM     29  C   UNL     1      -6.352  -1.397 124.219  0.00  0.00    +0.000 A 
ATOM     30  C   UNL     1      -6.121  -2.768 124.271  0.00  0.00    +0.000 A 
ATOM     31  C   UNL     1      -7.190  -3.660 124.228  0.00  0.00    +0.000 A 
ATOM     32  C   UNL     1      -8.492  -3.180 124.110  0.00  0.00    +0.000 A 
ATOM     33  C   UNL     1      -8.722  -1.804 124.007  0.00  0.00    +0.000 A 
ENDBRANCH  27  28
ENDBRANCH  26  27
ENDBRANCH  25  26
ENDBRANCH   6  25
TORSDOF 10
ENDMDL
MODEL 6
REMARK VINA RESULT:      -8.1      3.623      9.610
REMARK  Name = Nefazodone
REMARK  11 active torsions:
REMARK  status: ('A' for Active; 'I' for Inactive)
REMARK    1  A    between atoms: C_1  and  C_2
REMARK    2  A    between atoms: C_2  and  C_3
REMARK    3  A    between atoms: N_5  and  C_6
REMARK    4  A    between atoms: C_6  and  C_7
REMARK    5  A    between atoms: C_7  and  C_8
REMARK    6  A    between atoms: C_8  and  N_9
REMARK    7  A    between atoms: N_12  and  C_15
REMARK    8  A    between atoms: N_24  and  C_25
REMARK    9  A    between atoms: C_25  and  C_26
REMARK   10  A    between atoms: C_26  and  O_27
REMARK   11  A    between atoms: O_27  and  C_28
REMARK                            x       y       z     vdW  Elec       q    Type
REMARK                         _______ _______ _______ _____ _____    ______ ____
ROOT
ATOM      1  C   UNL     1      -7.631  -2.080 128.778  0.00  0.00    +0.000 A 
ATOM      2  N   UNL     1      -8.146  -2.120 129.991  0.00  0.00    +0.000 NA
ATOM      3  N   UNL     1      -7.727  -0.928 130.605  0.00  0.00    +0.000 N 
ATOM      4  C   UNL     1      -6.941  -0.211 129.689  0.00  0.00    +0.000 A 
ATOM      5  O   UNL     1      -6.414   0.874 129.808  0.00  0.00    +0.000 OA
ATOM      6  N   UNL     1      -6.884  -0.978 128.546  0.00  0.00    +0.000 N 
ENDROOT
BRANCH   1   8
ATOM      7  C   UNL     1      -9.185  -3.922 127.941  0.00  0.00    +0.000 C 
ATOM      8  C   UNL     1      -7.896  -3.156 127.706  0.00  0.00    +0.000 C 
ENDBRANCH   1   8
BRANCH   3   9
ATOM      9  C   UNL     1      -8.106  -0.485 131.986  0.00  0.00    +0.000 C 
BRANCH   9  10
ATOM     10  C   UNL     1      -9.200   0.578 131.932  0.00  0.00    +0.000 C 
BRANCH  10  11
ATOM     11  C   UNL     1      -9.076   1.971 132.551  0.00  0.00    +0.000 C 
BRANCH  11  12
ATOM     12  N   UNL     1      -8.478   3.016 131.661  0.00  0.00    +0.000 NA
ATOM     13  C   UNL     1      -9.205   3.118 130.359  0.00  0.00    +0.000 C 
ATOM     14  C   UNL     1     -10.632   3.718 130.501  0.00  0.00    +0.000 C 
ATOM     15  N   UNL     1     -10.497   5.047 131.094  0.00  0.00    +0.000 N 
ATOM     16  C   UNL     1      -9.796   5.120 132.369  0.00  0.00    +0.000 C 
ATOM     17  C   UNL     1      -8.428   4.395 132.237  0.00  0.00    +0.000 C 
BRANCH  15  18
ATOM     18  C   UNL     1     -11.150   6.166 130.662  0.00  0.00    +0.000 A 
ATOM     19  C   UNL     1     -10.777   6.711 129.427  0.00  0.00    +0.000 A 
ATOM     20  C   UNL     1     -11.431   7.820 128.912  0.00  0.00    +0.000 A 
ATOM     21 CL   UNL     1     -10.976   8.427 127.371  0.00  0.00    +0.000 Cl
ATOM     22  C   UNL     1     -12.456   8.419 129.635  0.00  0.00    +0.000 A 
ATOM     23  C   UNL     1     -12.808   7.916 130.888  0.00  0.00    +0.000 A 
ATOM     24  C   UNL     1     -12.156   6.790 131.398  0.00  0.00    +0.000 A 
ENDBRANCH  15  18
ENDBRANCH  11  12
ENDBRANCH  10  11
ENDBRANCH   9  10
ENDBRANCH   3   9
BRANCH   6  25
ATOM     25  C   UNL     1      -6.127  -0.431 127.423  0.00  0.00    +0.000 C 
BRANCH  25  26
ATOM     26  C   UNL     1      -6.955   0.108 126.287  0.00  0.00    +0.000 C 
BRANCH  26  27
ATOM     27  O   UNL     1      -6.435  -0.212 125.016  0.00  0.00    +0.000 OA
BRANCH  27  28
ATOM     28  C   UNL     1      -7.166  -1.175 124.364  0.00  0.00    +0.000 A 
ATOM     29  C   UNL     1      -8.248  -0.677 123.647  0.00  0.00    +0.000 A 
ATOM     30  C   UNL     1      -9.211  -1.543 123.140  0.00  0.00    +0.000 A 
ATOM     31  C   UNL     1      -9.047  -2.921 123.265  0.00  0.00    +0.000 A 
ATOM     32  C   UNL     1      -7.927  -3.432 123.917  0.00  0.00    +0.000 A 
ATOM     33  C   UNL     1      -6.984  -2.561 124.471  0.00  0.00    +0.000 A 
ENDBRANCH  27  28
ENDBRANCH  26  27
ENDBRANCH  25  26
ENDBRANCH   6  25
TORSDOF 10
ENDMDL
MODEL 7
REMARK VINA RESULT:      -8.0      4.923      8.517
REMARK  Name = Nefazodone
REMARK  11 active torsions:
REMARK  status: ('A' for Active; 'I' for Inactive)
REMARK    1  A    between atoms: C_1  and  C_2
REMARK    2  A    between atoms: C_2  and  C_3
REMARK    3  A    between atoms: N_5  and  C_6
REMARK    4  A    between atoms: C_6  and  C_7
REMARK    5  A    between atoms: C_7  and  C_8
REMARK    6  A    between atoms: C_8  and  N_9
REMARK    7  A    between atoms: N_12  and  C_15
REMARK    8  A    between atoms: N_24  and  C_25
REMARK    9  A    between atoms: C_25  and  C_26
REMARK   10  A    between atoms: C_26  and  O_27
REMARK   11  A    between atoms: O_27  and  C_28
REMARK                            x       y       z     vdW  Elec       q    Type
REMARK                         _______ _______ _______ _____ _____    ______ ____
ROOT
ATOM      1  C   UNL     1      -8.399  -2.723 125.018  0.00  0.00    +0.000 A 
ATOM      2  N   UNL     1      -9.430  -2.222 124.367  0.00  0.00    +0.000 NA
ATOM      3  N   UNL     1      -8.883  -1.260 123.502  0.00  0.00    +0.000 N 
ATOM      4  C   UNL     1      -7.493  -1.228 123.697  0.00  0.00    +0.000 A 
ATOM      5  O   UNL     1      -6.649  -0.565 123.133  0.00  0.00    +0.000 OA
ATOM      6  N   UNL     1      -7.220  -2.155 124.679  0.00  0.00    +0.000 N 
ENDROOT
BRANCH   1   8
ATOM      7  C   UNL     1      -9.369  -3.534 127.233  0.00  0.00    +0.000 C 
ATOM      8  C   UNL     1      -8.514  -3.881 126.029  0.00  0.00    +0.000 C 
ENDBRANCH   1   8
BRANCH   3   9
ATOM      9  C   UNL     1      -9.657  -0.449 122.507  0.00  0.00    +0.000 C 
BRANCH   9  10
ATOM     10  C   UNL     1     -10.055   0.900 123.100  0.00  0.00    +0.000 C 
BRANCH  10  11
ATOM     11  C   UNL     1      -9.076   2.045 123.362  0.00  0.00    +0.000 C 
BRANCH  11  12
ATOM     12  N   UNL     1      -9.180   2.679 124.715  0.00  0.00    +0.000 NA
ATOM     13  C   UNL     1      -8.859   1.712 125.808  0.00  0.00    +0.000 C 
ATOM     14  C   UNL     1      -7.356   1.314 125.850  0.00  0.00    +0.000 C 
ATOM     15  N   UNL     1      -6.579   2.538 126.032  0.00  0.00    +0.000 N 
ATOM     16  C   UNL     1      -6.789   3.592 125.049  0.00  0.00    +0.000 C 
ATOM     17  C   UNL     1      -8.311   3.877 124.929  0.00  0.00    +0.000 C 
BRANCH  15  18
ATOM     18  C   UNL     1      -5.538   2.681 126.906  0.00  0.00    +0.000 A 
ATOM     19  C   UNL     1      -4.240   2.734 126.384  0.00  0.00    +0.000 A 
ATOM     20  C   UNL     1      -3.147   2.923 127.214  0.00  0.00    +0.000 A 
ATOM     21 CL   UNL     1      -1.576   3.032 126.527  0.00  0.00    +0.000 Cl
ATOM     22  C   UNL     1      -3.329   3.037 128.587  0.00  0.00    +0.000 A 
ATOM     23  C   UNL     1      -4.612   2.940 129.127  0.00  0.00    +0.000 A 
ATOM     24  C   UNL     1      -5.713   2.764 128.287  0.00  0.00    +0.000 A 
ENDBRANCH  15  18
ENDBRANCH  11  12
ENDBRANCH  10  11
ENDBRANCH   9  10
ENDBRANCH   3   9
BRANCH   6  25
ATOM     25  C   UNL     1      -5.819  -2.325 125.054  0.00  0.00    +0.000 C 
BRANCH  25  26
ATOM     26  C   UNL     1      -5.396  -1.614 126.311  0.00  0.00    +0.000 C 
BRANCH  26  27
ATOM     27  O   UNL     1      -5.179  -2.485 127.399  0.00  0.00    +0.000 OA
BRANCH  27  28
ATOM     28  C   UNL     1      -6.127  -2.357 128.385  0.00  0.00    +0.000 A 
ATOM     29  C   UNL     1      -6.761  -1.120 128.404  0.00  0.00    +0.000 A 
ATOM     30  C   UNL     1      -7.562  -0.760 129.483  0.00  0.00    +0.000 A 
ATOM     31  C   UNL     1      -7.811  -1.675 130.505  0.00  0.00    +0.000 A 
ATOM     32  C   UNL     1      -7.239  -2.944 130.457  0.00  0.00    +0.000 A 
ATOM     33  C   UNL     1      -6.393  -3.288 129.398  0.00  0.00    +0.000 A 
ENDBRANCH  27  28
ENDBRANCH  26  27
ENDBRANCH  25  26
ENDBRANCH   6  25
TORSDOF 10
ENDMDL
MODEL 8
REMARK VINA RESULT:      -8.0      1.500      2.184
REMARK  Name = Nefazodone
REMARK  11 active torsions:
REMARK  status: ('A' for Active; 'I' for Inactive)
REMARK    1  A    between atoms: C_1  and  C_2
REMARK    2  A    between atoms: C_2  and  C_3
REMARK    3  A    between atoms: N_5  and  C_6
REMARK    4  A    between atoms: C_6  and  C_7
REMARK    5  A    between atoms: C_7  and  C_8
REMARK    6  A    between atoms: C_8  and  N_9
REMARK    7  A    between atoms: N_12  and  C_15
REMARK    8  A    between atoms: N_24  and  C_25
REMARK    9  A    between atoms: C_25  and  C_26
REMARK   10  A    between atoms: C_26  and  O_27
REMARK   11  A    between atoms: O_27  and  C_28
REMARK                            x       y       z     vdW  Elec       q    Type
REMARK                         _______ _______ _______ _____ _____    ______ ____
ROOT
ATOM      1  C   UNL     1      -7.838   2.366 129.679  0.00  0.00    +0.000 A 
ATOM      2  N   UNL     1      -6.979   2.318 128.681  0.00  0.00    +0.000 NA
ATOM      3  N   UNL     1      -6.565   3.647 128.491  0.00  0.00    +0.000 N 
ATOM      4  C   UNL     1      -7.236   4.456 129.421  0.00  0.00    +0.000 A 
ATOM      5  O   UNL     1      -7.144   5.650 129.614  0.00  0.00    +0.000 OA
ATOM      6  N   UNL     1      -8.050   3.616 130.148  0.00  0.00    +0.000 N 
ENDROOT
BRANCH   1   8
ATOM      7  C   UNL     1      -7.772  -0.170 129.945  0.00  0.00    +0.000 C 
ATOM      8  C   UNL     1      -8.498   1.115 130.293  0.00  0.00    +0.000 C 
ENDBRANCH   1   8
BRANCH   3   9
ATOM      9  C   UNL     1      -5.542   4.102 127.495  0.00  0.00    +0.000 C 
BRANCH   9  10
ATOM     10  C   UNL     1      -6.205   4.497 126.178  0.00  0.00    +0.000 C 
BRANCH  10  11
ATOM     11  C   UNL     1      -7.591   4.022 125.739  0.00  0.00    +0.000 C 
BRANCH  11  12
ATOM     12  N   UNL     1      -7.634   3.294 124.431  0.00  0.00    +0.000 NA
ATOM     13  C   UNL     1      -6.626   2.193 124.376  0.00  0.00    +0.000 C 
ATOM     14  C   UNL     1      -6.967   1.003 125.317  0.00  0.00    +0.000 C 
ATOM     15  N   UNL     1      -8.278   0.490 124.926  0.00  0.00    +0.000 N 
ATOM     16  C   UNL     1      -9.374   1.450 124.917  0.00  0.00    +0.000 C 
ATOM     17  C   UNL     1      -8.955   2.689 124.078  0.00  0.00    +0.000 C 
BRANCH  15  18
ATOM     18  C   UNL     1      -8.589  -0.832 124.782  0.00  0.00    +0.000 A 
ATOM     19  C   UNL     1      -8.659  -1.623 125.936  0.00  0.00    +0.000 A 
ATOM     20  C   UNL     1      -9.013  -2.961 125.860  0.00  0.00    +0.000 A 
ATOM     21 CL   UNL     1      -9.135  -3.883 127.304  0.00  0.00    +0.000 Cl
ATOM     22  C   UNL     1      -9.281  -3.540 124.625  0.00  0.00    +0.000 A 
ATOM     23  C   UNL     1      -9.170  -2.777 123.462  0.00  0.00    +0.000 A 
ATOM     24  C   UNL     1      -8.827  -1.425 123.542  0.00  0.00    +0.000 A 
ENDBRANCH  15  18
ENDBRANCH  11  12
ENDBRANCH  10  11
ENDBRANCH   9  10
ENDBRANCH   3   9
BRANCH   6  25
ATOM     25  C   UNL     1      -8.850   4.226 131.207  0.00  0.00    +0.000 C 
BRANCH  25  26
ATOM     26  C   UNL     1     -10.150   4.840 130.762  0.00  0.00    +0.000 C 
BRANCH  26  27
ATOM     27  O   UNL     1     -10.199   6.238 130.946  0.00  0.00    +0.000 OA
BRANCH  27  28
ATOM     28  C   UNL     1     -10.816   6.894 129.909  0.00  0.00    +0.000 A 
ATOM     29  C   UNL     1     -12.083   6.408 129.605  0.00  0.00    +0.000 A 
ATOM     30  C   UNL     1     -12.724   6.806 128.436  0.00  0.00    +0.000 A 
ATOM     31  C   UNL     1     -12.142   7.768 127.612  0.00  0.00    +0.000 A 
ATOM     32  C   UNL     1     -10.906   8.315 127.948  0.00  0.00    +0.000 A 
ATOM     33  C   UNL     1     -10.238   7.878 129.096  0.00  0.00    +0.000 A 
ENDBRANCH  27  28
ENDBRANCH  26  27
ENDBRANCH  25  26
ENDBRANCH   6  25
TORSDOF 10
ENDMDL
MODEL 9
REMARK VINA RESULT:      -8.0      4.806      7.986
REMARK  Name = Nefazodone
REMARK  11 active torsions:
REMARK  status: ('A' for Active; 'I' for Inactive)
REMARK    1  A    between atoms: C_1  and  C_2
REMARK    2  A    between atoms: C_2  and  C_3
REMARK    3  A    between atoms: N_5  and  C_6
REMARK    4  A    between atoms: C_6  and  C_7
REMARK    5  A    between atoms: C_7  and  C_8
REMARK    6  A    between atoms: C_8  and  N_9
REMARK    7  A    between atoms: N_12  and  C_15
REMARK    8  A    between atoms: N_24  and  C_25
REMARK    9  A    between atoms: C_25  and  C_26
REMARK   10  A    between atoms: C_26  and  O_27
REMARK   11  A    between atoms: O_27  and  C_28
REMARK                            x       y       z     vdW  Elec       q    Type
REMARK                         _______ _______ _______ _____ _____    ______ ____
ROOT
ATOM      1  C   UNL     1      -8.243   4.496 131.497  0.00  0.00    +0.000 A 
ATOM      2  N   UNL     1      -7.690   3.604 130.699  0.00  0.00    +0.000 NA
ATOM      3  N   UNL     1      -8.054   3.999 129.402  0.00  0.00    +0.000 N 
ATOM      4  C   UNL     1      -8.849   5.152 129.496  0.00  0.00    +0.000 A 
ATOM      5  O   UNL     1      -9.342   5.825 128.617  0.00  0.00    +0.000 OA
ATOM      6  N   UNL     1      -8.966   5.430 130.841  0.00  0.00    +0.000 N 
ENDROOT
BRANCH   1   8
ATOM      7  C   UNL     1      -9.023   3.610 133.758  0.00  0.00    +0.000 C 
ATOM      8  C   UNL     1      -8.044   4.509 133.025  0.00  0.00    +0.000 C 
ENDBRANCH   1   8
BRANCH   3   9
ATOM      9  C   UNL     1      -7.618   3.325 128.136  0.00  0.00    +0.000 C 
BRANCH   9  10
ATOM     10  C   UNL     1      -6.098   3.189 128.091  0.00  0.00    +0.000 C 
BRANCH  10  11
ATOM     11  C   UNL     1      -5.127   4.367 128.184  0.00  0.00    +0.000 C 
BRANCH  11  12
ATOM     12  N   UNL     1      -3.737   4.018 128.618  0.00  0.00    +0.000 NA
ATOM     13  C   UNL     1      -2.767   5.112 128.308  0.00  0.00    +0.000 C 
ATOM     14  C   UNL     1      -2.975   6.380 129.183  0.00  0.00    +0.000 C 
ATOM     15  N   UNL     1      -2.836   5.982 130.582  0.00  0.00    +0.000 N 
ATOM     16  C   UNL     1      -3.709   4.910 131.041  0.00  0.00    +0.000 C 
ATOM     17  C   UNL     1      -3.581   3.702 130.072  0.00  0.00    +0.000 C 
BRANCH  15  18
ATOM     18  C   UNL     1      -2.120   6.666 131.522  0.00  0.00    +0.000 A 
ATOM     19  C   UNL     1      -2.532   7.965 131.848  0.00  0.00    +0.000 A 
ATOM     20  C   UNL     1      -1.874   8.694 132.826  0.00  0.00    +0.000 A 
ATOM     21 CL   UNL     1      -2.442  10.265 133.231  0.00  0.00    +0.000 Cl
ATOM     22  C   UNL     1      -0.776   8.148 133.481  0.00  0.00    +0.000 A 
ATOM     23  C   UNL     1      -0.326   6.874 133.134  0.00  0.00    +0.000 A 
ATOM     24  C   UNL     1      -0.998   6.135 132.158  0.00  0.00    +0.000 A 
ENDBRANCH  15  18
ENDBRANCH  11  12
ENDBRANCH  10  11
ENDBRANCH   9  10
ENDBRANCH   3   9
BRANCH   6  25
ATOM     25  C   UNL     1      -9.744   6.612 131.204  0.00  0.00    +0.000 C 
BRANCH  25  26
ATOM     26  C   UNL     1     -11.073   6.336 131.855  0.00  0.00    +0.000 C 
BRANCH  26  27
ATOM     27  O   UNL     1     -12.063   5.912 130.944  0.00  0.00    +0.000 OA
BRANCH  27  28
ATOM     28  C   UNL     1     -12.556   6.937 130.173  0.00  0.00    +0.000 A 
ATOM     29  C   UNL     1     -12.873   6.565 128.872  0.00  0.00    +0.000 A 
ATOM     30  C   UNL     1     -13.150   7.536 127.914  0.00  0.00    +0.000 A 
ATOM     31  C   UNL     1     -13.206   8.880 128.276  0.00  0.00    +0.000 A 
ATOM     32  C   UNL     1     -12.963   9.255 129.596  0.00  0.00    +0.000 A 
ATOM     33  C   UNL     1     -12.635   8.285 130.547  0.00  0.00    +0.000 A 
ENDBRANCH  27  28
ENDBRANCH  26  27
ENDBRANCH  25  26
ENDBRANCH   6  25
TORSDOF 10
ENDMDL
