MODEL 1
REMARK VINA RESULT:      -7.5      0.000      0.000
REMARK  Name = Nefopam
REMARK  2 active torsions:
REMARK  status: ('A' for Active; 'I' for Inactive)
REMARK    1  A    between atoms: C_1  and  N_2
REMARK    2  A    between atoms: C_6  and  C_7
REMARK                            x       y       z     vdW  Elec       q    Type
REMARK                         _______ _______ _______ _____ _____    ______ ____
ROOT
ATOM      1  C   UNL     1      -8.686   2.226 128.661  0.00  0.00    +0.000 C 
ATOM      2  N   UNL     1      -8.487   3.618 128.918  0.00  0.00    +0.000 NA
ATOM      3  C   UNL     1      -7.171   4.235 129.086  0.00  0.00    +0.000 C 
ATOM      4  C   UNL     1      -6.968   5.259 130.276  0.00  0.00    +0.000 C 
ATOM      5  O   UNL     1      -7.831   6.444 130.233  0.00  0.00    +0.000 OA
ATOM      6  C   UNL     1      -8.952   6.568 131.196  0.00  0.00    +0.000 C 
ATOM      7  C   UNL     1      -9.116   5.281 132.009  0.00  0.00    +0.000 A 
ATOM      8  C   UNL     1      -8.830   5.226 133.381  0.00  0.00    +0.000 A 
ATOM      9  C   UNL     1      -8.823   3.990 134.035  0.00  0.00    +0.000 A 
ATOM     10  C   UNL     1      -9.125   2.816 133.342  0.00  0.00    +0.000 A 
ATOM     11  C   UNL     1      -9.407   2.858 131.987  0.00  0.00    +0.000 A 
ATOM     12  C   UNL     1      -9.346   4.068 131.310  0.00  0.00    +0.000 A 
ATOM     13  C   UNL     1      -9.483   4.089 129.821  0.00  0.00    +0.000 C 
ENDROOT
BRANCH   6  14
ATOM     14  C   UNL     1     -10.310   7.088 130.550  0.00  0.00    +0.000 A 
ATOM     15  C   UNL     1     -10.441   7.761 129.313  0.00  0.00    +0.000 A 
ATOM     16  C   UNL     1     -11.546   8.360 128.758  0.00  0.00    +0.000 A 
ATOM     17  C   UNL     1     -12.740   8.145 129.386  0.00  0.00    +0.000 A 
ATOM     18  C   UNL     1     -12.739   7.343 130.529  0.00  0.00    +0.000 A 
ATOM     19  C   UNL     1     -11.554   6.857 131.143  0.00  0.00    +0.000 A 
ENDBRANCH   6  14
TORSDOF 1
ENDMDL
MODEL 2
REMARK VINA RESULT:      -7.4      7.552      9.788
REMARK  Name = Nefopam
REMARK  2 active torsions:
REMARK  status: ('A' for Active; 'I' for Inactive)
REMARK    1  A    between atoms: C_1  and  N_2
REMARK    2  A    between atoms: C_6  and  C_7
REMARK                            x       y       z     vdW  Elec       q    Type
REMARK                         _______ _______ _______ _____ _____    ______ ____
ROOT
ATOM      1  C   UNL     1      -7.975  -2.811 127.785  0.00  0.00    +0.000 C 
ATOM      2  N   UNL     1      -8.570  -2.278 126.600  0.00  0.00    +0.000 NA
ATOM      3  C   UNL     1      -9.466  -3.037 125.726  0.00  0.00    +0.000 C 
ATOM      4  C   UNL     1      -9.243  -2.945 124.161  0.00  0.00    +0.000 C 
ATOM      5  O   UNL     1      -9.367  -1.600 123.591  0.00  0.00    +0.000 OA
ATOM      6  C   UNL     1      -8.152  -0.882 123.138  0.00  0.00    +0.000 C 
ATOM      7  C   UNL     1      -6.888  -1.659 123.517  0.00  0.00    +0.000 A 
ATOM      8  C   UNL     1      -6.072  -2.267 122.552  0.00  0.00    +0.000 A 
ATOM      9  C   UNL     1      -5.035  -3.112 122.961  0.00  0.00    +0.000 A 
ATOM     10  C   UNL     1      -4.788  -3.333 124.317  0.00  0.00    +0.000 A 
ATOM     11  C   UNL     1      -5.589  -2.739 125.278  0.00  0.00    +0.000 A 
ATOM     12  C   UNL     1      -6.666  -1.957 124.887  0.00  0.00    +0.000 A 
ATOM     13  C   UNL     1      -7.629  -1.456 125.916  0.00  0.00    +0.000 C 
ENDROOT
BRANCH   6  14
ATOM     14  C   UNL     1      -8.106   0.651 123.562  0.00  0.00    +0.000 A 
ATOM     15  C   UNL     1      -7.028   1.543 123.350  0.00  0.00    +0.000 A 
ATOM     16  C   UNL     1      -6.856   2.828 123.807  0.00  0.00    +0.000 A 
ATOM     17  C   UNL     1      -7.933   3.413 124.409  0.00  0.00    +0.000 A 
ATOM     18  C   UNL     1      -9.108   2.666 124.511  0.00  0.00    +0.000 A 
ATOM     19  C   UNL     1      -9.198   1.296 124.147  0.00  0.00    +0.000 A 
ENDBRANCH   6  14
TORSDOF 1
ENDMDL
MODEL 3
REMARK VINA RESULT:      -7.3      6.522     10.028
REMARK  Name = Nefopam
REMARK  2 active torsions:
REMARK  status: ('A' for Active; 'I' for Inactive)
REMARK    1  A    between atoms: C_1  and  N_2
REMARK    2  A    between atoms: C_6  and  C_7
REMARK                            x       y       z     vdW  Elec       q    Type
REMARK                         _______ _______ _______ _____ _____    ______ ____
ROOT
ATOM      1  C   UNL     1      -6.883   1.509 127.745  0.00  0.00    +0.000 C 
ATOM      2  N   UNL     1      -7.488   0.803 126.660  0.00  0.00    +0.000 NA
ATOM      3  C   UNL     1      -8.899   0.928 126.292  0.00  0.00    +0.000 C 
ATOM      4  C   UNL     1      -9.711  -0.393 125.971  0.00  0.00    +0.000 C 
ATOM      5  O   UNL     1      -9.196  -1.184 124.849  0.00  0.00    +0.000 OA
ATOM      6  C   UNL     1      -8.503  -2.468 125.116  0.00  0.00    +0.000 C 
ATOM      7  C   UNL     1      -8.294  -2.670 126.619  0.00  0.00    +0.000 A 
ATOM      8  C   UNL     1      -8.975  -3.664 127.337  0.00  0.00    +0.000 A 
ATOM      9  C   UNL     1      -8.885  -3.690 128.732  0.00  0.00    +0.000 A 
ATOM     10  C   UNL     1      -8.102  -2.755 129.413  0.00  0.00    +0.000 A 
ATOM     11  C   UNL     1      -7.426  -1.769 128.714  0.00  0.00    +0.000 A 
ATOM     12  C   UNL     1      -7.565  -1.686 127.336  0.00  0.00    +0.000 A 
ATOM     13  C   UNL     1      -6.975  -0.525 126.603  0.00  0.00    +0.000 C 
ENDROOT
BRANCH   6  14
ATOM     14  C   UNL     1      -7.181  -2.683 124.256  0.00  0.00    +0.000 A 
ATOM     15  C   UNL     1      -6.204  -3.684 124.467  0.00  0.00    +0.000 A 
ATOM     16  C   UNL     1      -4.979  -3.848 123.865  0.00  0.00    +0.000 A 
ATOM     17  C   UNL     1      -4.712  -3.049 122.790  0.00  0.00    +0.000 A 
ATOM     18  C   UNL     1      -5.696  -2.139 122.395  0.00  0.00    +0.000 A 
ATOM     19  C   UNL     1      -6.890  -1.911 123.129  0.00  0.00    +0.000 A 
ENDBRANCH   6  14
TORSDOF 1
ENDMDL
MODEL 4
REMARK VINA RESULT:      -6.7      7.256      9.905
REMARK  Name = Nefopam
REMARK  2 active torsions:
REMARK  status: ('A' for Active; 'I' for Inactive)
REMARK    1  A    between atoms: C_1  and  N_2
REMARK    2  A    between atoms: C_6  and  C_7
REMARK                            x       y       z     vdW  Elec       q    Type
REMARK                         _______ _______ _______ _____ _____    ______ ____
ROOT
ATOM      1  C   UNL     1      -8.589   1.791 124.684  0.00  0.00    +0.000 C 
ATOM      2  N   UNL     1      -7.714   1.165 125.625  0.00  0.00    +0.000 NA
ATOM      3  C   UNL     1      -6.355   1.628 125.907  0.00  0.00    +0.000 C 
ATOM      4  C   UNL     1      -5.199   0.551 125.998  0.00  0.00    +0.000 C 
ATOM      5  O   UNL     1      -5.373  -0.464 127.042  0.00  0.00    +0.000 OA
ATOM      6  C   UNL     1      -5.731  -1.852 126.660  0.00  0.00    +0.000 C 
ATOM      7  C   UNL     1      -6.031  -1.943 125.162  0.00  0.00    +0.000 A 
ATOM      8  C   UNL     1      -5.189  -2.634 124.276  0.00  0.00    +0.000 A 
ATOM      9  C   UNL     1      -5.410  -2.536 122.899  0.00  0.00    +0.000 A 
ATOM     10  C   UNL     1      -6.474  -1.782 122.400  0.00  0.00    +0.000 A 
ATOM     11  C   UNL     1      -7.310  -1.095 123.265  0.00  0.00    +0.000 A 
ATOM     12  C   UNL     1      -7.059  -1.124 124.629  0.00  0.00    +0.000 A 
ATOM     13  C   UNL     1      -7.855  -0.251 125.546  0.00  0.00    +0.000 C 
ENDROOT
BRANCH   6  14
ATOM     14  C   UNL     1      -6.857  -2.508 127.574  0.00  0.00    +0.000 A 
ATOM     15  C   UNL     1      -7.880  -3.382 127.138  0.00  0.00    +0.000 A 
ATOM     16  C   UNL     1      -8.962  -3.872 127.830  0.00  0.00    +0.000 A 
ATOM     17  C   UNL     1      -8.986  -3.638 129.175  0.00  0.00    +0.000 A 
ATOM     18  C   UNL     1      -7.922  -2.926 129.732  0.00  0.00    +0.000 A 
ATOM     19  C   UNL     1      -6.895  -2.322 128.958  0.00  0.00    +0.000 A 
ENDBRANCH   6  14
TORSDOF 1
ENDMDL
MODEL 5
REMARK VINA RESULT:      -6.6      5.837      9.449
REMARK  Name = Nefopam
REMARK  2 active torsions:
REMARK  status: ('A' for Active; 'I' for Inactive)
REMARK    1  A    between atoms: C_1  and  N_2
REMARK    2  A    between atoms: C_6  and  C_7
REMARK                            x       y       z     vdW  Elec       q    Type
REMARK                         _______ _______ _______ _____ _____    ______ ____
ROOT
ATOM      1  C   UNL     1      -6.012   4.043 123.369  0.00  0.00    +0.000 C 
ATOM      2  N   UNL     1      -6.833   2.895 123.145  0.00  0.00    +0.000 NA
ATOM      3  C   UNL     1      -8.247   2.964 122.775  0.00  0.00    +0.000 C 
ATOM      4  C   UNL     1      -9.265   2.004 123.516  0.00  0.00    +0.000 C 
ATOM      5  O   UNL     1      -9.001   0.571 123.355  0.00  0.00    +0.000 OA
ATOM      6  C   UNL     1      -8.463  -0.207 124.497  0.00  0.00    +0.000 C 
ATOM      7  C   UNL     1      -8.106   0.716 125.664  0.00  0.00    +0.000 A 
ATOM      8  C   UNL     1      -8.828   0.706 126.868  0.00  0.00    +0.000 A 
ATOM      9  C   UNL     1      -8.576   1.689 127.829  0.00  0.00    +0.000 A 
ATOM     10  C   UNL     1      -7.597   2.661 127.616  0.00  0.00    +0.000 A 
ATOM     11  C   UNL     1      -6.880   2.682 126.431  0.00  0.00    +0.000 A 
ATOM     12  C   UNL     1      -7.169   1.758 125.437  0.00  0.00    +0.000 A 
ATOM     13  C   UNL     1      -6.517   1.884 124.098  0.00  0.00    +0.000 C 
ENDROOT
BRANCH   6  14
ATOM     14  C   UNL     1      -7.295  -1.215 124.104  0.00  0.00    +0.000 A 
ATOM     15  C   UNL     1      -6.568  -2.037 124.997  0.00  0.00    +0.000 A 
ATOM     16  C   UNL     1      -5.463  -2.819 124.760  0.00  0.00    +0.000 A 
ATOM     17  C   UNL     1      -5.095  -2.979 123.454  0.00  0.00    +0.000 A 
ATOM     18  C   UNL     1      -5.863  -2.342 122.478  0.00  0.00    +0.000 A 
ATOM     19  C   UNL     1      -6.914  -1.434 122.778  0.00  0.00    +0.000 A 
ENDBRANCH   6  14
TORSDOF 1
ENDMDL
MODEL 6
REMARK VINA RESULT:      -6.4      6.180      8.500
REMARK  Name = Nefopam
REMARK  2 active torsions:
REMARK  status: ('A' for Active; 'I' for Inactive)
REMARK    1  A    between atoms: C_1  and  N_2
REMARK    2  A    between atoms: C_6  and  C_7
REMARK                            x       y       z     vdW  Elec       q    Type
REMARK                         _______ _______ _______ _____ _____    ______ ____
ROOT
ATOM      1  C   UNL     1      -9.360  -3.256 123.539  0.00  0.00    +0.000 C 
ATOM      2  N   UNL     1      -8.185  -2.539 123.922  0.00  0.00    +0.000 NA
ATOM      3  C   UNL     1      -6.828  -3.076 123.803  0.00  0.00    +0.000 C 
ATOM      4  C   UNL     1      -5.836  -2.882 125.022  0.00  0.00    +0.000 C 
ATOM      5  O   UNL     1      -5.557  -1.489 125.383  0.00  0.00    +0.000 OA
ATOM      6  C   UNL     1      -6.137  -0.924 126.625  0.00  0.00    +0.000 C 
ATOM      7  C   UNL     1      -7.116  -1.911 127.265  0.00  0.00    +0.000 A 
ATOM      8  C   UNL     1      -6.840  -2.548 128.484  0.00  0.00    +0.000 A 
ATOM      9  C   UNL     1      -7.681  -3.571 128.933  0.00  0.00    +0.000 A 
ATOM     10  C   UNL     1      -8.806  -3.944 128.195  0.00  0.00    +0.000 A 
ATOM     11  C   UNL     1      -9.087  -3.323 126.989  0.00  0.00    +0.000 A 
ATOM     12  C   UNL     1      -8.222  -2.358 126.496  0.00  0.00    +0.000 A 
ATOM     13  C   UNL     1      -8.433  -1.810 125.120  0.00  0.00    +0.000 C 
ENDROOT
BRANCH   6  14
ATOM     14  C   UNL     1      -6.733   0.542 126.456  0.00  0.00    +0.000 A 
ATOM     15  C   UNL     1      -6.580   1.380 125.326  0.00  0.00    +0.000 A 
ATOM     16  C   UNL     1      -6.938   2.696 125.161  0.00  0.00    +0.000 A 
ATOM     17  C   UNL     1      -7.704   3.251 126.146  0.00  0.00    +0.000 A 
ATOM     18  C   UNL     1      -8.056   2.444 127.230  0.00  0.00    +0.000 A 
ATOM     19  C   UNL     1      -7.550   1.131 127.425  0.00  0.00    +0.000 A 
ENDBRANCH   6  14
TORSDOF 1
ENDMDL
MODEL 7
REMARK VINA RESULT:      -6.4      6.960      9.718
REMARK  Name = Nefopam
REMARK  2 active torsions:
REMARK  status: ('A' for Active; 'I' for Inactive)
REMARK    1  A    between atoms: C_1  and  N_2
REMARK    2  A    between atoms: C_6  and  C_7
REMARK                            x       y       z     vdW  Elec       q    Type
REMARK                         _______ _______ _______ _____ _____    ______ ____
ROOT
ATOM      1  C   UNL     1      -9.423   1.966 122.598  0.00  0.00    +0.000 C 
ATOM      2  N   UNL     1      -9.207   1.071 123.692  0.00  0.00    +0.000 NA
ATOM      3  C   UNL     1      -9.855   1.208 124.997  0.00  0.00    +0.000 C 
ATOM      4  C   UNL     1      -8.969   1.030 126.297  0.00  0.00    +0.000 C 
ATOM      5  O   UNL     1      -8.325  -0.280 126.438  0.00  0.00    +0.000 OA
ATOM      6  C   UNL     1      -6.862  -0.402 126.229  0.00  0.00    +0.000 C 
ATOM      7  C   UNL     1      -6.275   0.914 125.713  0.00  0.00    +0.000 A 
ATOM      8  C   UNL     1      -5.417   1.702 126.495  0.00  0.00    +0.000 A 
ATOM      9  C   UNL     1      -5.054   2.976 126.049  0.00  0.00    +0.000 A 
ATOM     10  C   UNL     1      -5.514   3.459 124.821  0.00  0.00    +0.000 A 
ATOM     11  C   UNL     1      -6.362   2.690 124.042  0.00  0.00    +0.000 A 
ATOM     12  C   UNL     1      -6.789   1.454 124.506  0.00  0.00    +0.000 A 
ATOM     13  C   UNL     1      -7.833   0.700 123.747  0.00  0.00    +0.000 C 
ENDROOT
BRANCH   6  14
ATOM     14  C   UNL     1      -6.432  -1.670 125.368  0.00  0.00    +0.000 A 
ATOM     15  C   UNL     1      -5.167  -1.883 124.773  0.00  0.00    +0.000 A 
ATOM     16  C   UNL     1      -4.766  -2.872 123.906  0.00  0.00    +0.000 A 
ATOM     17  C   UNL     1      -5.638  -3.903 123.707  0.00  0.00    +0.000 A 
ATOM     18  C   UNL     1      -6.854  -3.869 124.392  0.00  0.00    +0.000 A 
ATOM     19  C   UNL     1      -7.283  -2.760 125.171  0.00  0.00    +0.000 A 
ENDBRANCH   6  14
TORSDOF 1
ENDMDL
MODEL 8
REMARK VINA RESULT:      -6.4      6.429      9.084
REMARK  Name = Nefopam
REMARK  2 active torsions:
REMARK  status: ('A' for Active; 'I' for Inactive)
REMARK    1  A    between atoms: C_1  and  N_2
REMARK    2  A    between atoms: C_6  and  C_7
REMARK                            x       y       z     vdW  Elec       q    Type
REMARK                         _______ _______ _______ _____ _____    ______ ____
ROOT
ATOM      1  C   UNL     1      -5.633   0.997 128.045  0.00  0.00    +0.000 C 
ATOM      2  N   UNL     1      -6.504   1.504 127.032  0.00  0.00    +0.000 NA
ATOM      3  C   UNL     1      -7.962   1.397 127.083  0.00  0.00    +0.000 C 
ATOM      4  C   UNL     1      -8.728   0.953 125.771  0.00  0.00    +0.000 C 
ATOM      5  O   UNL     1      -8.551   1.837 124.615  0.00  0.00    +0.000 OA
ATOM      6  C   UNL     1      -7.711   1.394 123.476  0.00  0.00    +0.000 C 
ATOM      7  C   UNL     1      -7.004   0.076 123.803  0.00  0.00    +0.000 A 
ATOM      8  C   UNL     1      -7.332  -1.124 123.154  0.00  0.00    +0.000 A 
ATOM      9  C   UNL     1      -6.787  -2.327 123.614  0.00  0.00    +0.000 A 
ATOM     10  C   UNL     1      -5.899  -2.341 124.692  0.00  0.00    +0.000 A 
ATOM     11  C   UNL     1      -5.569  -1.162 125.340  0.00  0.00    +0.000 A 
ATOM     12  C   UNL     1      -6.159   0.029 124.942  0.00  0.00    +0.000 A 
ATOM     13  C   UNL     1      -5.935   1.269 125.746  0.00  0.00    +0.000 C 
ENDROOT
BRANCH   6  14
ATOM     14  C   UNL     1      -6.732   2.517 122.915  0.00  0.00    +0.000 A 
ATOM     15  C   UNL     1      -6.247   2.613 121.590  0.00  0.00    +0.000 A 
ATOM     16  C   UNL     1      -5.298   3.460 121.067  0.00  0.00    +0.000 A 
ATOM     17  C   UNL     1      -4.870   4.473 121.876  0.00  0.00    +0.000 A 
ATOM     18  C   UNL     1      -5.423   4.565 123.154  0.00  0.00    +0.000 A 
ATOM     19  C   UNL     1      -6.299   3.589 123.700  0.00  0.00    +0.000 A 
ENDBRANCH   6  14
TORSDOF 1
ENDMDL
MODEL 9
REMARK VINA RESULT:      -6.3      3.765      5.627
REMARK  Name = Nefopam
REMARK  2 active torsions:
REMARK  status: ('A' for Active; 'I' for Inactive)
REMARK    1  A    between atoms: C_1  and  N_2
REMARK    2  A    between atoms: C_6  and  C_7
REMARK                            x       y       z     vdW  Elec       q    Type
REMARK                         _______ _______ _______ _____ _____    ______ ____
ROOT
ATOM      1  C   UNL     1      -3.287   3.372 128.409  0.00  0.00    +0.000 C 
ATOM      2  N   UNL     1      -3.963   4.615 128.612  0.00  0.00    +0.000 NA
ATOM      3  C   UNL     1      -3.622   5.852 127.908  0.00  0.00    +0.000 C 
ATOM      4  C   UNL     1      -3.529   7.191 128.747  0.00  0.00    +0.000 C 
ATOM      5  O   UNL     1      -4.765   7.587 129.429  0.00  0.00    +0.000 OA
ATOM      6  C   UNL     1      -4.864   7.452 130.902  0.00  0.00    +0.000 C 
ATOM      7  C   UNL     1      -3.638   6.728 131.465  0.00  0.00    +0.000 A 
ATOM      8  C   UNL     1      -2.689   7.384 132.264  0.00  0.00    +0.000 A 
ATOM      9  C   UNL     1      -1.502   6.727 132.601  0.00  0.00    +0.000 A 
ATOM     10  C   UNL     1      -1.265   5.418 132.175  0.00  0.00    +0.000 A 
ATOM     11  C   UNL     1      -2.195   4.762 131.385  0.00  0.00    +0.000 A 
ATOM     12  C   UNL     1      -3.344   5.427 130.982  0.00  0.00    +0.000 A 
ATOM     13  C   UNL     1      -4.263   4.781 129.994  0.00  0.00    +0.000 C 
ENDROOT
BRANCH   6  14
ATOM     14  C   UNL     1      -6.246   6.848 131.409  0.00  0.00    +0.000 A 
ATOM     15  C   UNL     1      -6.435   6.048 132.560  0.00  0.00    +0.000 A 
ATOM     16  C   UNL     1      -7.558   5.378 132.982  0.00  0.00    +0.000 A 
ATOM     17  C   UNL     1      -8.717   5.640 132.309  0.00  0.00    +0.000 A 
ATOM     18  C   UNL     1      -8.667   6.557 131.258  0.00  0.00    +0.000 A 
ATOM     19  C   UNL     1      -7.458   7.122 130.770  0.00  0.00    +0.000 A 
ENDBRANCH   6  14
TORSDOF 1
ENDMDL
