MODEL 1
REMARK VINA RESULT:      -6.6      0.000      0.000
REMARK  Name = Nelarabine
REMARK  7 active torsions:
REMARK  status: ('A' for Active; 'I' for Inactive)
REMARK    1  A    between atoms: C_1  and  O_2
REMARK    2  A    between atoms: O_2  and  C_3
REMARK    3  A    between atoms: N_12  and  C1*_13
REMARK    4  A    between atoms: C4*_15  and  C5*_16
REMARK    5  A    between atoms: C5*_16  and  O5*_17
REMARK    6  A    between atoms: C3*_18  and  O3*_19
REMARK    7  A    between atoms: C2*_20  and  O2*_21
REMARK                            x       y       z     vdW  Elec       q    Type
REMARK                         _______ _______ _______ _____ _____    ______ ____
ROOT
ATOM      1  C   UNL     1     -12.315   8.526 129.567  0.00  0.00    +0.000 A 
ATOM      2  N   UNL     1     -12.008   8.686 128.249  0.00  0.00    +0.000 NA
ATOM      3  C   UNL     1     -11.200   7.785 127.666  0.00  0.00    +0.000 A 
ATOM      4  N   UNL     1     -10.924   7.893 126.336  0.00  0.00    +0.000 N 
ATOM      5  N   UNL     1     -10.648   6.732 128.276  0.00  0.00    +0.000 NA
ATOM      6  C   UNL     1     -10.980   6.592 129.554  0.00  0.00    +0.000 A 
ATOM      7  C   UNL     1     -11.804   7.433 130.278  0.00  0.00    +0.000 A 
ATOM      8  N   UNL     1     -11.943   6.961 131.564  0.00  0.00    +0.000 NA
ATOM      9  C   UNL     1     -11.241   5.845 131.606  0.00  0.00    +0.000 A 
ATOM     10  N   UNL     1     -10.635   5.573 130.405  0.00  0.00    +0.000 N 
ATOM     11  H   UNL     1     -11.198   8.725 125.842  0.00  0.00    +0.000 HD
ATOM     12  H   UNL     1     -10.268   7.233 125.941  0.00  0.00    +0.000 HD
ENDROOT
BRANCH  10  13
ATOM     13  C1* UNL     1      -9.918   4.342 130.089  0.00  0.00    +0.000 C 
ATOM     14  O4* UNL     1     -10.226   3.334 131.075  0.00  0.00    +0.000 OA
ATOM     15  C4* UNL     1      -9.014   3.019 131.803  0.00  0.00    +0.000 C 
ATOM     16  C3* UNL     1      -7.964   4.079 131.449  0.00  0.00    +0.000 C 
ATOM     17  C2* UNL     1      -8.387   4.450 130.030  0.00  0.00    +0.000 C 
BRANCH  16  18
ATOM     18  O3* UNL     1      -6.614   3.656 131.579  0.00  0.00    +0.000 OA
ATOM     19  H3* UNL     1      -6.176   4.122 132.305  0.00  0.00    +0.000 HD
ENDBRANCH  16  18
BRANCH  17  20
ATOM     20  O2* UNL     1      -7.905   5.700 129.556  0.00  0.00    +0.000 OA
ATOM     21  H2* UNL     1      -7.209   5.531 128.893  0.00  0.00    +0.000 HD
ENDBRANCH  17  20
BRANCH  15  22
ATOM     22  C5* UNL     1      -9.331   2.929 133.297  0.00  0.00    +0.000 C 
BRANCH  22  23
ATOM     23  O5* UNL     1      -9.700   4.183 133.851  0.00  0.00    +0.000 OA
ATOM     24  H5* UNL     1      -8.926   4.769 133.818  0.00  0.00    +0.000 HD
ENDBRANCH  22  23
ENDBRANCH  15  22
ENDBRANCH  10  13
BRANCH   1  26
ATOM     25  C   UNL     1     -13.422  10.578 129.384  0.00  0.00    +0.000 C 
ATOM     26  O   UNL     1     -13.034   9.502 130.226  0.00  0.00    +0.000 OA
ENDBRANCH   1  26
TORSDOF 6
ENDMDL
MODEL 2
REMARK VINA RESULT:      -6.6      7.420      9.028
REMARK  Name = Nelarabine
REMARK  7 active torsions:
REMARK  status: ('A' for Active; 'I' for Inactive)
REMARK    1  A    between atoms: C_1  and  O_2
REMARK    2  A    between atoms: O_2  and  C_3
REMARK    3  A    between atoms: N_12  and  C1*_13
REMARK    4  A    between atoms: C4*_15  and  C5*_16
REMARK    5  A    between atoms: C5*_16  and  O5*_17
REMARK    6  A    between atoms: C3*_18  and  O3*_19
REMARK    7  A    between atoms: C2*_20  and  O2*_21
REMARK                            x       y       z     vdW  Elec       q    Type
REMARK                         _______ _______ _______ _____ _____    ______ ____
ROOT
ATOM      1  C   UNL     1      -6.452   4.096 120.892  0.00  0.00    +0.000 A 
ATOM      2  N   UNL     1      -7.460   4.240 119.987  0.00  0.00    +0.000 NA
ATOM      3  C   UNL     1      -8.689   3.821 120.325  0.00  0.00    +0.000 A 
ATOM      4  N   UNL     1      -9.724   4.006 119.458  0.00  0.00    +0.000 N 
ATOM      5  N   UNL     1      -9.019   3.252 121.488  0.00  0.00    +0.000 NA
ATOM      6  C   UNL     1      -8.022   3.141 122.357  0.00  0.00    +0.000 A 
ATOM      7  C   UNL     1      -6.714   3.536 122.150  0.00  0.00    +0.000 A 
ATOM      8  N   UNL     1      -5.964   3.292 123.278  0.00  0.00    +0.000 NA
ATOM      9  C   UNL     1      -6.809   2.788 124.157  0.00  0.00    +0.000 A 
ATOM     10  N   UNL     1      -8.078   2.676 123.647  0.00  0.00    +0.000 N 
ATOM     11  H   UNL     1      -9.530   4.308 118.519  0.00  0.00    +0.000 HD
ATOM     12  H   UNL     1     -10.624   3.628 119.718  0.00  0.00    +0.000 HD
ENDROOT
BRANCH  10  13
ATOM     13  C1* UNL     1      -9.259   2.298 124.415  0.00  0.00    +0.000 C 
ATOM     14  O4* UNL     1      -8.967   2.376 125.826  0.00  0.00    +0.000 OA
ATOM     15  C4* UNL     1      -9.044   1.042 126.385  0.00  0.00    +0.000 C 
ATOM     16  C3* UNL     1      -9.111   0.047 125.220  0.00  0.00    +0.000 C 
ATOM     17  C2* UNL     1      -9.809   0.887 124.154  0.00  0.00    +0.000 C 
BRANCH  16  18
ATOM     18  O3* UNL     1      -9.745  -1.189 125.519  0.00  0.00    +0.000 OA
ATOM     19  H3* UNL     1     -10.697  -1.135 125.355  0.00  0.00    +0.000 HD
ENDBRANCH  16  18
BRANCH  17  20
ATOM     20  O2* UNL     1      -9.649   0.433 122.817  0.00  0.00    +0.000 OA
ATOM     21  H2* UNL     1      -9.960   1.136 122.214  0.00  0.00    +0.000 HD
ENDBRANCH  17  20
BRANCH  15  22
ATOM     22  C5* UNL     1      -7.861   0.820 127.329  0.00  0.00    +0.000 C 
BRANCH  22  23
ATOM     23  O5* UNL     1      -7.608  -0.556 127.571  0.00  0.00    +0.000 OA
ATOM     24  H5* UNL     1      -7.949  -0.776 128.454  0.00  0.00    +0.000 HD
ENDBRANCH  22  23
ENDBRANCH  15  22
ENDBRANCH  10  13
BRANCH   1  26
ATOM     25  C   UNL     1      -5.049   5.585 119.760  0.00  0.00    +0.000 C 
ATOM     26  O   UNL     1      -5.155   4.395 120.529  0.00  0.00    +0.000 OA
ENDBRANCH   1  26
TORSDOF 6
ENDMDL
MODEL 3
REMARK VINA RESULT:      -6.2      2.247      5.751
REMARK  Name = Nelarabine
REMARK  7 active torsions:
REMARK  status: ('A' for Active; 'I' for Inactive)
REMARK    1  A    between atoms: C_1  and  O_2
REMARK    2  A    between atoms: O_2  and  C_3
REMARK    3  A    between atoms: N_12  and  C1*_13
REMARK    4  A    between atoms: C4*_15  and  C5*_16
REMARK    5  A    between atoms: C5*_16  and  O5*_17
REMARK    6  A    between atoms: C3*_18  and  O3*_19
REMARK    7  A    between atoms: C2*_20  and  O2*_21
REMARK                            x       y       z     vdW  Elec       q    Type
REMARK                         _______ _______ _______ _____ _____    ______ ____
ROOT
ATOM      1  C   UNL     1      -7.877   5.207 131.322  0.00  0.00    +0.000 A 
ATOM      2  N   UNL     1      -7.447   4.761 130.109  0.00  0.00    +0.000 NA
ATOM      3  C   UNL     1      -8.324   4.724 129.093  0.00  0.00    +0.000 A 
ATOM      4  N   UNL     1      -7.903   4.335 127.857  0.00  0.00    +0.000 N 
ATOM      5  N   UNL     1      -9.610   5.079 129.168  0.00  0.00    +0.000 NA
ATOM      6  C   UNL     1      -9.996   5.526 130.357  0.00  0.00    +0.000 A 
ATOM      7  C   UNL     1      -9.203   5.629 131.485  0.00  0.00    +0.000 A 
ATOM      8  N   UNL     1      -9.932   6.158 132.526  0.00  0.00    +0.000 NA
ATOM      9  C   UNL     1     -11.130   6.396 132.028  0.00  0.00    +0.000 A 
ATOM     10  N   UNL     1     -11.222   6.031 130.708  0.00  0.00    +0.000 N 
ATOM     11  H   UNL     1      -6.987   3.934 127.752  0.00  0.00    +0.000 HD
ATOM     12  H   UNL     1      -8.600   4.263 127.128  0.00  0.00    +0.000 HD
ENDROOT
BRANCH  10  13
ATOM     13  C1* UNL     1     -12.362   6.306 129.841  0.00  0.00    +0.000 C 
ATOM     14  O4* UNL     1     -11.970   6.159 128.460  0.00  0.00    +0.000 OA
ATOM     15  C4* UNL     1     -12.067   7.452 127.815  0.00  0.00    +0.000 C 
ATOM     16  C3* UNL     1     -12.258   8.509 128.908  0.00  0.00    +0.000 C 
ATOM     17  C2* UNL     1     -12.991   7.702 129.976  0.00  0.00    +0.000 C 
BRANCH  16  18
ATOM     18  O3* UNL     1     -12.925   9.694 128.492  0.00  0.00    +0.000 OA
ATOM     19  H3* UNL     1     -13.470   9.524 127.711  0.00  0.00    +0.000 HD
ENDBRANCH  16  18
BRANCH  17  20
ATOM     20  O2* UNL     1     -12.944   8.241 131.290  0.00  0.00    +0.000 OA
ATOM     21  H2* UNL     1     -12.554   7.571 131.884  0.00  0.00    +0.000 HD
ENDBRANCH  17  20
BRANCH  15  22
ATOM     22  C5* UNL     1     -10.832   7.675 126.940  0.00  0.00    +0.000 C 
BRANCH  22  23
ATOM     23  O5* UNL     1     -10.198   6.458 126.575  0.00  0.00    +0.000 OA
ATOM     24  H5* UNL     1     -10.479   6.228 125.674  0.00  0.00    +0.000 HD
ENDBRANCH  22  23
ENDBRANCH  15  22
ENDBRANCH  10  13
BRANCH   1  26
ATOM     25  C   UNL     1      -7.073   3.874 133.067  0.00  0.00    +0.000 C 
ATOM     26  O   UNL     1      -7.038   5.135 132.415  0.00  0.00    +0.000 OA
ENDBRANCH   1  26
TORSDOF 6
ENDMDL
MODEL 4
REMARK VINA RESULT:      -6.2      2.279      3.620
REMARK  Name = Nelarabine
REMARK  7 active torsions:
REMARK  status: ('A' for Active; 'I' for Inactive)
REMARK    1  A    between atoms: C_1  and  O_2
REMARK    2  A    between atoms: O_2  and  C_3
REMARK    3  A    between atoms: N_12  and  C1*_13
REMARK    4  A    between atoms: C4*_15  and  C5*_16
REMARK    5  A    between atoms: C5*_16  and  O5*_17
REMARK    6  A    between atoms: C3*_18  and  O3*_19
REMARK    7  A    between atoms: C2*_20  and  O2*_21
REMARK                            x       y       z     vdW  Elec       q    Type
REMARK                         _______ _______ _______ _____ _____    ______ ____
ROOT
ATOM      1  C   UNL     1     -10.350   7.822 129.526  0.00  0.00    +0.000 A 
ATOM      2  N   UNL     1     -11.662   7.805 129.894  0.00  0.00    +0.000 NA
ATOM      3  C   UNL     1     -12.007   7.134 131.004  0.00  0.00    +0.000 A 
ATOM      4  N   UNL     1     -13.304   7.149 131.422  0.00  0.00    +0.000 N 
ATOM      5  N   UNL     1     -11.166   6.456 131.790  0.00  0.00    +0.000 NA
ATOM      6  C   UNL     1      -9.893   6.505 131.418  0.00  0.00    +0.000 A 
ATOM      7  C   UNL     1      -9.394   7.162 130.309  0.00  0.00    +0.000 A 
ATOM      8  N   UNL     1      -8.026   7.020 130.254  0.00  0.00    +0.000 NA
ATOM      9  C   UNL     1      -7.704   6.316 131.322  0.00  0.00    +0.000 A 
ATOM     10  N   UNL     1      -8.806   5.978 132.068  0.00  0.00    +0.000 N 
ATOM     11  H   UNL     1     -14.011   7.529 130.817  0.00  0.00    +0.000 HD
ATOM     12  H   UNL     1     -13.541   6.588 132.229  0.00  0.00    +0.000 HD
ENDROOT
BRANCH  10  13
ATOM     13  C1* UNL     1      -8.765   5.336 133.377  0.00  0.00    +0.000 C 
ATOM     14  O4* UNL     1      -7.454   5.497 133.958  0.00  0.00    +0.000 OA
ATOM     15  C4* UNL     1      -6.843   4.190 134.081  0.00  0.00    +0.000 C 
ATOM     16  C3* UNL     1      -7.695   3.196 133.284  0.00  0.00    +0.000 C 
ATOM     17  C2* UNL     1      -9.077   3.832 133.399  0.00  0.00    +0.000 C 
BRANCH  16  18
ATOM     18  O3* UNL     1      -7.618   1.847 133.725  0.00  0.00    +0.000 OA
ATOM     19  H3* UNL     1      -6.789   1.439 133.440  0.00  0.00    +0.000 HD
ENDBRANCH  16  18
BRANCH  17  20
ATOM     20  O2* UNL     1     -10.026   3.415 132.427  0.00  0.00    +0.000 OA
ATOM     21  H2* UNL     1      -9.755   2.541 132.087  0.00  0.00    +0.000 HD
ENDBRANCH  17  20
BRANCH  15  22
ATOM     22  C5* UNL     1      -5.385   4.268 133.626  0.00  0.00    +0.000 C 
BRANCH  22  23
ATOM     23  O5* UNL     1      -4.916   3.041 133.087  0.00  0.00    +0.000 OA
ATOM     24  H5* UNL     1      -4.010   2.896 133.408  0.00  0.00    +0.000 HD
ENDBRANCH  22  23
ENDBRANCH  15  22
ENDBRANCH  10  13
BRANCH   1  26
ATOM     25  C   UNL     1     -10.756   7.930 127.225  0.00  0.00    +0.000 C 
ATOM     26  O   UNL     1      -9.983   8.391 128.324  0.00  0.00    +0.000 OA
ENDBRANCH   1  26
TORSDOF 6
ENDMDL
MODEL 5
REMARK VINA RESULT:      -6.1      2.421      6.409
REMARK  Name = Nelarabine
REMARK  7 active torsions:
REMARK  status: ('A' for Active; 'I' for Inactive)
REMARK    1  A    between atoms: C_1  and  O_2
REMARK    2  A    between atoms: O_2  and  C_3
REMARK    3  A    between atoms: N_12  and  C1*_13
REMARK    4  A    between atoms: C4*_15  and  C5*_16
REMARK    5  A    between atoms: C5*_16  and  O5*_17
REMARK    6  A    between atoms: C3*_18  and  O3*_19
REMARK    7  A    between atoms: C2*_20  and  O2*_21
REMARK                            x       y       z     vdW  Elec       q    Type
REMARK                         _______ _______ _______ _____ _____    ______ ____
ROOT
ATOM      1  C   UNL     1      -7.346   3.118 130.025  0.00  0.00    +0.000 A 
ATOM      2  N   UNL     1      -7.721   2.000 130.708  0.00  0.00    +0.000 NA
ATOM      3  C   UNL     1      -8.959   1.949 131.223  0.00  0.00    +0.000 A 
ATOM      4  N   UNL     1      -9.376   0.819 131.860  0.00  0.00    +0.000 N 
ATOM      5  N   UNL     1      -9.873   2.920 131.137  0.00  0.00    +0.000 NA
ATOM      6  C   UNL     1      -9.486   3.989 130.451  0.00  0.00    +0.000 A 
ATOM      7  C   UNL     1      -8.250   4.175 129.860  0.00  0.00    +0.000 A 
ATOM      8  N   UNL     1      -8.216   5.389 129.213  0.00  0.00    +0.000 NA
ATOM      9  C   UNL     1      -9.415   5.912 129.386  0.00  0.00    +0.000 A 
ATOM     10  N   UNL     1     -10.230   5.097 130.132  0.00  0.00    +0.000 N 
ATOM     11  H   UNL     1      -8.706   0.100 132.074  0.00  0.00    +0.000 HD
ATOM     12  H   UNL     1     -10.292   0.834 132.286  0.00  0.00    +0.000 HD
ENDROOT
BRANCH  10  13
ATOM     13  C1* UNL     1     -11.651   5.324 130.367  0.00  0.00    +0.000 C 
ATOM     14  O4* UNL     1     -12.303   5.654 129.122  0.00  0.00    +0.000 OA
ATOM     15  C4* UNL     1     -12.794   7.014 129.208  0.00  0.00    +0.000 C 
ATOM     16  C3* UNL     1     -12.176   7.659 130.453  0.00  0.00    +0.000 C 
ATOM     17  C2* UNL     1     -12.000   6.444 131.359  0.00  0.00    +0.000 C 
BRANCH  16  18
ATOM     18  O3* UNL     1     -12.931   8.723 131.018  0.00  0.00    +0.000 OA
ATOM     19  H3* UNL     1     -12.814   8.755 131.977  0.00  0.00    +0.000 HD
ENDBRANCH  16  18
BRANCH  17  20
ATOM     20  O2* UNL     1     -11.066   6.601 132.418  0.00  0.00    +0.000 OA
ATOM     21  H2* UNL     1     -10.783   5.714 132.714  0.00  0.00    +0.000 HD
ENDBRANCH  17  20
BRANCH  15  22
ATOM     22  C5* UNL     1     -12.479   7.747 127.902  0.00  0.00    +0.000 C 
BRANCH  22  23
ATOM     23  O5* UNL     1     -11.991   9.062 128.121  0.00  0.00    +0.000 OA
ATOM     24  H5* UNL     1     -12.503   9.458 128.847  0.00  0.00    +0.000 HD
ENDBRANCH  22  23
ENDBRANCH  15  22
ENDBRANCH  10  13
BRANCH   1  26
ATOM     25  C   UNL     1      -5.180   3.797 130.589  0.00  0.00    +0.000 C 
ATOM     26  O   UNL     1      -6.041   3.255 129.598  0.00  0.00    +0.000 OA
ENDBRANCH   1  26
TORSDOF 6
ENDMDL
MODEL 6
REMARK VINA RESULT:      -6.1      8.391     10.884
REMARK  Name = Nelarabine
REMARK  7 active torsions:
REMARK  status: ('A' for Active; 'I' for Inactive)
REMARK    1  A    between atoms: C_1  and  O_2
REMARK    2  A    between atoms: O_2  and  C_3
REMARK    3  A    between atoms: N_12  and  C1*_13
REMARK    4  A    between atoms: C4*_15  and  C5*_16
REMARK    5  A    between atoms: C5*_16  and  O5*_17
REMARK    6  A    between atoms: C3*_18  and  O3*_19
REMARK    7  A    between atoms: C2*_20  and  O2*_21
REMARK                            x       y       z     vdW  Elec       q    Type
REMARK                         _______ _______ _______ _____ _____    ______ ____
ROOT
ATOM      1  C   UNL     1      -6.759  -3.024 124.493  0.00  0.00    +0.000 A 
ATOM      2  N   UNL     1      -7.863  -3.724 124.107  0.00  0.00    +0.000 NA
ATOM      3  C   UNL     1      -8.988  -3.044 123.835  0.00  0.00    +0.000 A 
ATOM      4  N   UNL     1     -10.088  -3.717 123.393  0.00  0.00    +0.000 N 
ATOM      5  N   UNL     1      -9.131  -1.719 123.921  0.00  0.00    +0.000 NA
ATOM      6  C   UNL     1      -8.034  -1.062 124.281  0.00  0.00    +0.000 A 
ATOM      7  C   UNL     1      -6.809  -1.627 124.581  0.00  0.00    +0.000 A 
ATOM      8  N   UNL     1      -5.899  -0.641 124.886  0.00  0.00    +0.000 NA
ATOM      9  C   UNL     1      -6.554   0.496 124.744  0.00  0.00    +0.000 A 
ATOM     10  N   UNL     1      -7.860   0.295 124.374  0.00  0.00    +0.000 N 
ATOM     11  H   UNL     1     -10.096  -4.722 123.426  0.00  0.00    +0.000 HD
ATOM     12  H   UNL     1     -10.935  -3.184 123.252  0.00  0.00    +0.000 HD
ENDROOT
BRANCH  10  13
ATOM     13  C1* UNL     1      -8.794   1.349 123.994  0.00  0.00    +0.000 C 
ATOM     14  O4* UNL     1      -8.382   1.936 122.741  0.00  0.00    +0.000 OA
ATOM     15  C4* UNL     1      -8.017   3.317 122.979  0.00  0.00    +0.000 C 
ATOM     16  C3* UNL     1      -7.927   3.525 124.495  0.00  0.00    +0.000 C 
ATOM     17  C2* UNL     1      -8.947   2.506 124.994  0.00  0.00    +0.000 C 
BRANCH  16  18
ATOM     18  O3* UNL     1      -8.150   4.859 124.934  0.00  0.00    +0.000 OA
ATOM     19  H3* UNL     1      -7.353   5.223 125.343  0.00  0.00    +0.000 HD
ENDBRANCH  16  18
BRANCH  17  20
ATOM     20  O2* UNL     1      -8.814   2.124 126.356  0.00  0.00    +0.000 OA
ATOM     21  H2* UNL     1      -9.489   1.447 126.554  0.00  0.00    +0.000 HD
ENDBRANCH  17  20
BRANCH  15  22
ATOM     22  C5* UNL     1      -6.723   3.635 122.227  0.00  0.00    +0.000 C 
BRANCH  22  23
ATOM     23  O5* UNL     1      -5.909   4.571 122.917  0.00  0.00    +0.000 OA
ATOM     24  H5* UNL     1      -6.159   5.463 122.624  0.00  0.00    +0.000 HD
ENDBRANCH  22  23
ENDBRANCH  15  22
ENDBRANCH  10  13
BRANCH   1  26
ATOM     25  C   UNL     1      -4.772  -4.066 123.832  0.00  0.00    +0.000 C 
ATOM     26  O   UNL     1      -5.628  -3.700 124.904  0.00  0.00    +0.000 OA
ENDBRANCH   1  26
TORSDOF 6
ENDMDL
MODEL 7
REMARK VINA RESULT:      -5.8      7.259      9.411
REMARK  Name = Nelarabine
REMARK  7 active torsions:
REMARK  status: ('A' for Active; 'I' for Inactive)
REMARK    1  A    between atoms: C_1  and  O_2
REMARK    2  A    between atoms: O_2  and  C_3
REMARK    3  A    between atoms: N_12  and  C1*_13
REMARK    4  A    between atoms: C4*_15  and  C5*_16
REMARK    5  A    between atoms: C5*_16  and  O5*_17
REMARK    6  A    between atoms: C3*_18  and  O3*_19
REMARK    7  A    between atoms: C2*_20  and  O2*_21
REMARK                            x       y       z     vdW  Elec       q    Type
REMARK                         _______ _______ _______ _____ _____    ______ ____
ROOT
ATOM      1  C   UNL     1      -8.651  -1.855 124.576  0.00  0.00    +0.000 A 
ATOM      2  N   UNL     1      -7.871  -2.429 123.619  0.00  0.00    +0.000 NA
ATOM      3  C   UNL     1      -6.932  -1.677 123.023  0.00  0.00    +0.000 A 
ATOM      4  N   UNL     1      -6.102  -2.245 122.103  0.00  0.00    +0.000 N 
ATOM      5  N   UNL     1      -6.697  -0.387 123.279  0.00  0.00    +0.000 NA
ATOM      6  C   UNL     1      -7.460   0.140 124.229  0.00  0.00    +0.000 A 
ATOM      7  C   UNL     1      -8.455  -0.514 124.930  0.00  0.00    +0.000 A 
ATOM      8  N   UNL     1      -9.017   0.338 125.854  0.00  0.00    +0.000 NA
ATOM      9  C   UNL     1      -8.355   1.473 125.731  0.00  0.00    +0.000 A 
ATOM     10  N   UNL     1      -7.392   1.405 124.755  0.00  0.00    +0.000 N 
ATOM     11  H   UNL     1      -6.300  -3.172 121.767  0.00  0.00    +0.000 HD
ATOM     12  H   UNL     1      -5.444  -1.639 121.631  0.00  0.00    +0.000 HD
ENDROOT
BRANCH  10  13
ATOM     13  C1* UNL     1      -6.400   2.440 124.485  0.00  0.00    +0.000 C 
ATOM     14  O4* UNL     1      -5.638   2.708 125.681  0.00  0.00    +0.000 OA
ATOM     15  C4* UNL     1      -5.908   4.067 126.102  0.00  0.00    +0.000 C 
ATOM     16  C3* UNL     1      -7.106   4.580 125.295  0.00  0.00    +0.000 C 
ATOM     17  C2* UNL     1      -6.950   3.790 123.999  0.00  0.00    +0.000 C 
BRANCH  16  18
ATOM     18  O3* UNL     1      -7.163   5.991 125.132  0.00  0.00    +0.000 OA
ATOM     19  H3* UNL     1      -6.560   6.281 124.434  0.00  0.00    +0.000 HD
ENDBRANCH  16  18
BRANCH  17  20
ATOM     20  O2* UNL     1      -8.119   3.693 123.197  0.00  0.00    +0.000 OA
ATOM     21  H2* UNL     1      -8.333   2.747 123.078  0.00  0.00    +0.000 HD
ENDBRANCH  17  20
BRANCH  15  22
ATOM     22  C5* UNL     1      -6.117   4.095 127.617  0.00  0.00    +0.000 C 
BRANCH  22  23
ATOM     23  O5* UNL     1      -7.321   4.748 127.988  0.00  0.00    +0.000 OA
ATOM     24  H5* UNL     1      -7.152   5.260 128.796  0.00  0.00    +0.000 HD
ENDBRANCH  22  23
ENDBRANCH  15  22
ENDBRANCH  10  13
BRANCH   1  26
ATOM     25  C   UNL     1      -9.369  -3.260 126.303  0.00  0.00    +0.000 C 
ATOM     26  O   UNL     1      -9.708  -2.561 125.113  0.00  0.00    +0.000 OA
ENDBRANCH   1  26
TORSDOF 6
ENDMDL
MODEL 8
REMARK VINA RESULT:      -5.8      7.128      9.563
REMARK  Name = Nelarabine
REMARK  7 active torsions:
REMARK  status: ('A' for Active; 'I' for Inactive)
REMARK    1  A    between atoms: C_1  and  O_2
REMARK    2  A    between atoms: O_2  and  C_3
REMARK    3  A    between atoms: N_12  and  C1*_13
REMARK    4  A    between atoms: C4*_15  and  C5*_16
REMARK    5  A    between atoms: C5*_16  and  O5*_17
REMARK    6  A    between atoms: C3*_18  and  O3*_19
REMARK    7  A    between atoms: C2*_20  and  O2*_21
REMARK                            x       y       z     vdW  Elec       q    Type
REMARK                         _______ _______ _______ _____ _____    ______ ____
ROOT
ATOM      1  C   UNL     1      -8.043  -2.486 126.519  0.00  0.00    +0.000 A 
ATOM      2  N   UNL     1      -8.645  -3.078 125.449  0.00  0.00    +0.000 NA
ATOM      3  C   UNL     1      -8.878  -2.336 124.355  0.00  0.00    +0.000 A 
ATOM      4  N   UNL     1      -9.428  -2.921 123.253  0.00  0.00    +0.000 N 
ATOM      5  N   UNL     1      -8.580  -1.041 124.221  0.00  0.00    +0.000 NA
ATOM      6  C   UNL     1      -7.978  -0.496 125.271  0.00  0.00    +0.000 A 
ATOM      7  C   UNL     1      -7.668  -1.138 126.455  0.00  0.00    +0.000 A 
ATOM      8  N   UNL     1      -7.024  -0.269 127.307  0.00  0.00    +0.000 NA
ATOM      9  C   UNL     1      -6.923   0.864 126.639  0.00  0.00    +0.000 A 
ATOM     10  N   UNL     1      -7.487   0.779 125.390  0.00  0.00    +0.000 N 
ATOM     11  H   UNL     1      -9.794  -3.854 123.322  0.00  0.00    +0.000 HD
ATOM     12  H   UNL     1      -9.644  -2.323 122.467  0.00  0.00    +0.000 HD
ENDROOT
BRANCH  10  13
ATOM     13  C1* UNL     1      -7.403   1.810 124.362  0.00  0.00    +0.000 C 
ATOM     14  O4* UNL     1      -6.124   2.474 124.442  0.00  0.00    +0.000 OA
ATOM     15  C4* UNL     1      -6.347   3.856 124.812  0.00  0.00    +0.000 C 
ATOM     16  C3* UNL     1      -7.808   3.994 125.258  0.00  0.00    +0.000 C 
ATOM     17  C2* UNL     1      -8.476   2.909 124.420  0.00  0.00    +0.000 C 
BRANCH  16  18
ATOM     18  O3* UNL     1      -8.364   5.293 125.109  0.00  0.00    +0.000 OA
ATOM     19  H3* UNL     1      -9.056   5.448 125.766  0.00  0.00    +0.000 HD
ENDBRANCH  16  18
BRANCH  17  20
ATOM     20  O2* UNL     1      -9.743   2.467 124.888  0.00  0.00    +0.000 OA
ATOM     21  H2* UNL     1      -9.634   2.128 125.798  0.00  0.00    +0.000 HD
ENDBRANCH  17  20
BRANCH  15  22
ATOM     22  C5* UNL     1      -5.328   4.265 125.877  0.00  0.00    +0.000 C 
BRANCH  22  23
ATOM     23  O5* UNL     1      -5.897   5.080 126.891  0.00  0.00    +0.000 OA
ATOM     24  H5* UNL     1      -5.436   5.935 126.887  0.00  0.00    +0.000 HD
ENDBRANCH  22  23
ENDBRANCH  15  22
ENDBRANCH  10  13
BRANCH   1  26
ATOM     25  C   UNL     1      -9.049  -3.964 128.027  0.00  0.00    +0.000 C 
ATOM     26  O   UNL     1      -7.907  -3.184 127.701  0.00  0.00    +0.000 OA
ENDBRANCH   1  26
TORSDOF 6
ENDMDL
MODEL 9
REMARK VINA RESULT:      -5.7      2.159      3.788
REMARK  Name = Nelarabine
REMARK  7 active torsions:
REMARK  status: ('A' for Active; 'I' for Inactive)
REMARK    1  A    between atoms: C_1  and  O_2
REMARK    2  A    between atoms: O_2  and  C_3
REMARK    3  A    between atoms: N_12  and  C1*_13
REMARK    4  A    between atoms: C4*_15  and  C5*_16
REMARK    5  A    between atoms: C5*_16  and  O5*_17
REMARK    6  A    between atoms: C3*_18  and  O3*_19
REMARK    7  A    between atoms: C2*_20  and  O2*_21
REMARK                            x       y       z     vdW  Elec       q    Type
REMARK                         _______ _______ _______ _____ _____    ______ ____
ROOT
ATOM      1  C   UNL     1     -10.297   6.862 128.767  0.00  0.00    +0.000 A 
ATOM      2  N   UNL     1     -11.339   7.291 129.534  0.00  0.00    +0.000 NA
ATOM      3  C   UNL     1     -11.572   6.670 130.701  0.00  0.00    +0.000 A 
ATOM      4  N   UNL     1     -12.573   7.118 131.511  0.00  0.00    +0.000 N 
ATOM      5  N   UNL     1     -10.871   5.640 131.183  0.00  0.00    +0.000 NA
ATOM      6  C   UNL     1      -9.852   5.255 130.423  0.00  0.00    +0.000 A 
ATOM      7  C   UNL     1      -9.490   5.806 129.209  0.00  0.00    +0.000 A 
ATOM      8  N   UNL     1      -8.369   5.172 128.721  0.00  0.00    +0.000 NA
ATOM      9  C   UNL     1      -8.047   4.278 129.635  0.00  0.00    +0.000 A 
ATOM     10  N   UNL     1      -8.918   4.289 130.696  0.00  0.00    +0.000 N 
ATOM     11  H   UNL     1     -13.221   7.802 131.161  0.00  0.00    +0.000 HD
ATOM     12  H   UNL     1     -12.760   6.593 132.355  0.00  0.00    +0.000 HD
ENDROOT
BRANCH  10  13
ATOM     13  C1* UNL     1      -8.746   3.527 131.928  0.00  0.00    +0.000 C 
ATOM     14  O4* UNL     1      -7.390   3.041 132.014  0.00  0.00    +0.000 OA
ATOM     15  C4* UNL     1      -7.416   1.594 131.956  0.00  0.00    +0.000 C 
ATOM     16  C3* UNL     1      -8.826   1.167 131.532  0.00  0.00    +0.000 C 
ATOM     17  C2* UNL     1      -9.665   2.307 132.101  0.00  0.00    +0.000 C 
BRANCH  16  18
ATOM     18  O3* UNL     1      -9.215  -0.132 131.958  0.00  0.00    +0.000 OA
ATOM     19  H3* UNL     1      -8.847  -0.810 131.375  0.00  0.00    +0.000 HD
ENDBRANCH  16  18
BRANCH  17  20
ATOM     20  O2* UNL     1     -10.956   2.461 131.529  0.00  0.00    +0.000 OA
ATOM     21  H2* UNL     1     -10.977   1.979 130.680  0.00  0.00    +0.000 HD
ENDBRANCH  17  20
BRANCH  15  22
ATOM     22  C5* UNL     1      -6.307   1.106 131.022  0.00  0.00    +0.000 C 
BRANCH  22  23
ATOM     23  O5* UNL     1      -6.761   0.118 130.109  0.00  0.00    +0.000 OA
ATOM     24  H5* UNL     1      -7.732   0.095 130.146  0.00  0.00    +0.000 HD
ENDBRANCH  22  23
ENDBRANCH  15  22
ENDBRANCH  10  13
BRANCH   1  26
ATOM     25  C   UNL     1     -11.322   7.560 126.784  0.00  0.00    +0.000 C 
ATOM     26  O   UNL     1     -10.111   7.392 127.507  0.00  0.00    +0.000 OA
ENDBRANCH   1  26
TORSDOF 6
ENDMDL
