MODEL 1
REMARK VINA RESULT:      -9.9      0.000      0.000
REMARK  Name = Nelfinavir
REMARK  16 active torsions:
REMARK  status: ('A' for Active; 'I' for Inactive)
REMARK    1  A    between atoms: N_10  and  C_11
REMARK    2  A    between atoms: C_11  and  C_12
REMARK    3  A    between atoms: C_12  and  O_13
REMARK    4  A    between atoms: C_12  and  C_14
REMARK    5  A    between atoms: C_14  and  C_15
REMARK    6  A    between atoms: C_14  and  N_23
REMARK    7  A    between atoms: C_15  and  S_16
REMARK    8  A    between atoms: S_16  and  C_17
REMARK    9  A    between atoms: C_24  and  C_26
REMARK   10  A    between atoms: C_27  and  C_28
REMARK   11  A    between atoms: C_29  and  O_30
REMARK   12  A    between atoms: C_34  and  C_36
REMARK   13  A    between atoms: N_38  and  C_39
REMARK   14  A    between atoms: C_39  and  C_40
REMARK   15  A    between atoms: C_39  and  C_41
REMARK   16  A    between atoms: C_39  and  C_42
REMARK                            x       y       z     vdW  Elec       q    Type
REMARK                         _______ _______ _______ _____ _____    ______ ____
ROOT
ATOM      1  C   UNL     1      -7.890   4.034 127.750  0.00  0.00    +0.000 C 
ENDROOT
BRANCH   1   2
ATOM      2  O   UNL     1      -8.604   5.271 127.532  0.00  0.00    +0.000 OA
ATOM      3  H   UNL     1      -9.157   5.101 126.744  0.00  0.00    +0.000 HD
ENDBRANCH   1   2
BRANCH   1   4
ATOM      4  C   UNL     1      -8.750   3.384 128.844  0.00  0.00    +0.000 C 
BRANCH   4  12
ATOM      5  C   UNL     1      -7.695   3.377 133.187  0.00  0.00    +0.000 C 
ATOM      6  C   UNL     1      -7.377   4.041 134.602  0.00  0.00    +0.000 C 
ATOM      7  C   UNL     1      -6.936   5.515 134.619  0.00  0.00    +0.000 C 
ATOM      8  C   UNL     1      -5.835   5.875 133.580  0.00  0.00    +0.000 C 
ATOM      9  C   UNL     1      -5.885   5.168 132.205  0.00  0.00    +0.000 C 
ATOM     10  C   UNL     1      -6.565   3.753 132.178  0.00  0.00    +0.000 C 
ATOM     11  C   UNL     1      -7.121   3.357 130.786  0.00  0.00    +0.000 C 
ATOM     12  N   UNL     1      -8.466   3.786 130.234  0.00  0.00    +0.000 NA
ATOM     13  C   UNL     1      -9.743   3.979 131.102  0.00  0.00    +0.000 C 
ATOM     14  C   UNL     1      -9.332   3.487 132.642  0.00  0.00    +0.000 C 
BRANCH  13  15
ATOM     15  C   UNL     1     -10.557   5.640 130.809  0.00  0.00    +0.000 C 
ATOM     16  O   UNL     1     -11.359   6.148 131.624  0.00  0.00    +0.000 OA
ATOM     17  N   UNL     1     -10.458   6.402 129.601  0.00  0.00    +0.000 N 
ATOM     18  H   UNL     1      -9.652   6.210 129.018  0.00  0.00    +0.000 HD
BRANCH  17  19
ATOM     19  C   UNL     1     -11.484   7.434 128.975  0.00  0.00    +0.000 C 
ATOM     20  C   UNL     1     -12.175   8.636 129.699  0.00  0.00    +0.000 C 
ATOM     21  C   UNL     1     -10.805   8.200 127.868  0.00  0.00    +0.000 C 
ATOM     22  C   UNL     1     -12.707   6.596 128.572  0.00  0.00    +0.000 C 
ENDBRANCH  17  19
ENDBRANCH  13  15
ENDBRANCH   4  12
ENDBRANCH   1   4
BRANCH   1  23
ATOM     23  C   UNL     1      -7.475   3.182 126.421  0.00  0.00    +0.000 C 
BRANCH  23  24
ATOM     24  N   UNL     1      -8.109   1.815 126.289  0.00  0.00    +0.000 N 
ATOM     25  C   UNL     1      -7.359   0.710 126.665  0.00  0.00    +0.000 C 
ATOM     26  O   UNL     1      -6.170   0.987 126.876  0.00  0.00    +0.000 OA
ATOM     27  H   UNL     1      -8.982   1.676 125.798  0.00  0.00    +0.000 HD
BRANCH  25  28
ATOM     28  C   UNL     1      -7.953  -0.755 126.678  0.00  0.00    +0.000 A 
ATOM     29  C   UNL     1      -8.615  -1.479 125.612  0.00  0.00    +0.000 A 
ATOM     30  C   UNL     1      -8.456  -1.022 124.291  0.00  0.00    +0.000 C 
ATOM     31  C   UNL     1      -9.148  -2.777 125.579  0.00  0.00    +0.000 A 
ATOM     32  C   UNL     1      -8.943  -3.516 126.683  0.00  0.00    +0.000 A 
ATOM     33  C   UNL     1      -8.292  -2.888 127.764  0.00  0.00    +0.000 A 
ATOM     34  C   UNL     1      -7.789  -1.548 127.771  0.00  0.00    +0.000 A 
BRANCH  31  35
ATOM     35  O   UNL     1      -9.949  -3.292 124.578  0.00  0.00    +0.000 OA
ATOM     36  H   UNL     1      -9.495  -3.934 123.996  0.00  0.00    +0.000 HD
ENDBRANCH  31  35
ENDBRANCH  25  28
ENDBRANCH  23  24
BRANCH  23  37
ATOM     37  C   UNL     1      -7.607   3.944 125.070  0.00  0.00    +0.000 C 
BRANCH  37  38
ATOM     38  S   UNL     1      -6.584   3.058 123.877  0.00  0.00    +0.000 S 
BRANCH  38  39
ATOM     39  C   UNL     1      -6.972   3.511 122.278  0.00  0.00    +0.000 A 
ATOM     40  C   UNL     1      -6.007   3.902 121.378  0.00  0.00    +0.000 A 
ATOM     41  C   UNL     1      -6.415   4.284 120.119  0.00  0.00    +0.000 A 
ATOM     42  C   UNL     1      -7.760   4.162 119.753  0.00  0.00    +0.000 A 
ATOM     43  C   UNL     1      -8.718   3.698 120.653  0.00  0.00    +0.000 A 
ATOM     44  C   UNL     1      -8.320   3.375 121.931  0.00  0.00    +0.000 A 
ENDBRANCH  38  39
ENDBRANCH  37  38
ENDBRANCH  23  37
ENDBRANCH   1  23
TORSDOF 12
ENDMDL
MODEL 2
REMARK VINA RESULT:      -9.8      2.832      5.611
REMARK  Name = Nelfinavir
REMARK  16 active torsions:
REMARK  status: ('A' for Active; 'I' for Inactive)
REMARK    1  A    between atoms: N_10  and  C_11
REMARK    2  A    between atoms: C_11  and  C_12
REMARK    3  A    between atoms: C_12  and  O_13
REMARK    4  A    between atoms: C_12  and  C_14
REMARK    5  A    between atoms: C_14  and  C_15
REMARK    6  A    between atoms: C_14  and  N_23
REMARK    7  A    between atoms: C_15  and  S_16
REMARK    8  A    between atoms: S_16  and  C_17
REMARK    9  A    between atoms: C_24  and  C_26
REMARK   10  A    between atoms: C_27  and  C_28
REMARK   11  A    between atoms: C_29  and  O_30
REMARK   12  A    between atoms: C_34  and  C_36
REMARK   13  A    between atoms: N_38  and  C_39
REMARK   14  A    between atoms: C_39  and  C_40
REMARK   15  A    between atoms: C_39  and  C_41
REMARK   16  A    between atoms: C_39  and  C_42
REMARK                            x       y       z     vdW  Elec       q    Type
REMARK                         _______ _______ _______ _____ _____    ______ ____
ROOT
ATOM      1  C   UNL     1      -7.234   3.860 127.540  0.00  0.00    +0.000 C 
ENDROOT
BRANCH   1   2
ATOM      2  O   UNL     1      -8.079   4.844 126.902  0.00  0.00    +0.000 OA
ATOM      3  H   UNL     1      -7.460   5.411 126.400  0.00  0.00    +0.000 HD
ENDBRANCH   1   2
BRANCH   1   4
ATOM      4  C   UNL     1      -8.233   3.181 128.488  0.00  0.00    +0.000 C 
BRANCH   4  12
ATOM      5  C   UNL     1      -8.127   3.349 132.953  0.00  0.00    +0.000 C 
ATOM      6  C   UNL     1      -8.084   4.070 134.376  0.00  0.00    +0.000 C 
ATOM      7  C   UNL     1      -7.580   5.522 134.427  0.00  0.00    +0.000 C 
ATOM      8  C   UNL     1      -6.266   5.782 133.636  0.00  0.00    +0.000 C 
ATOM      9  C   UNL     1      -6.059   5.010 132.312  0.00  0.00    +0.000 C 
ATOM     10  C   UNL     1      -6.791   3.625 132.196  0.00  0.00    +0.000 C 
ATOM     11  C   UNL     1      -7.057   3.184 130.735  0.00  0.00    +0.000 C 
ATOM     12  N   UNL     1      -8.231   3.641 129.889  0.00  0.00    +0.000 NA
ATOM     13  C   UNL     1      -9.651   3.931 130.454  0.00  0.00    +0.000 C 
ATOM     14  C   UNL     1      -9.603   3.501 132.065  0.00  0.00    +0.000 C 
BRANCH  13  15
ATOM     15  C   UNL     1     -10.296   5.608 129.927  0.00  0.00    +0.000 C 
ATOM     16  O   UNL     1      -9.641   6.662 130.092  0.00  0.00    +0.000 OA
ATOM     17  N   UNL     1     -11.616   5.863 129.432  0.00  0.00    +0.000 N 
ATOM     18  H   UNL     1     -12.100   5.071 129.029  0.00  0.00    +0.000 HD
BRANCH  17  19
ATOM     19  C   UNL     1     -12.485   7.185 129.517  0.00  0.00    +0.000 C 
ATOM     20  C   UNL     1     -12.022   8.642 129.190  0.00  0.00    +0.000 C 
ATOM     21  C   UNL     1     -13.630   7.089 128.542  0.00  0.00    +0.000 C 
ATOM     22  C   UNL     1     -12.862   7.326 130.999  0.00  0.00    +0.000 C 
ENDBRANCH  17  19
ENDBRANCH  13  15
ENDBRANCH   4  12
ENDBRANCH   1   4
BRANCH   1  23
ATOM     23  C   UNL     1      -6.291   2.956 126.560  0.00  0.00    +0.000 C 
BRANCH  23  24
ATOM     24  N   UNL     1      -5.865   3.612 125.265  0.00  0.00    +0.000 N 
ATOM     25  C   UNL     1      -6.254   3.015 124.075  0.00  0.00    +0.000 C 
ATOM     26  O   UNL     1      -6.741   1.887 124.240  0.00  0.00    +0.000 OA
ATOM     27  H   UNL     1      -5.189   4.364 125.243  0.00  0.00    +0.000 HD
BRANCH  25  28
ATOM     28  C   UNL     1      -5.966   3.667 122.664  0.00  0.00    +0.000 A 
ATOM     29  C   UNL     1      -6.799   3.674 121.478  0.00  0.00    +0.000 A 
ATOM     30  C   UNL     1      -8.167   3.377 121.615  0.00  0.00    +0.000 C 
ATOM     31  C   UNL     1      -6.587   4.246 120.213  0.00  0.00    +0.000 A 
ATOM     32  C   UNL     1      -5.471   4.986 120.091  0.00  0.00    +0.000 A 
ATOM     33  C   UNL     1      -4.612   5.041 121.207  0.00  0.00    +0.000 A 
ATOM     34  C   UNL     1      -4.848   4.418 122.474  0.00  0.00    +0.000 A 
BRANCH  31  35
ATOM     35  O   UNL     1      -7.350   4.009 119.086  0.00  0.00    +0.000 OA
ATOM     36  H   UNL     1      -8.312   4.124 119.227  0.00  0.00    +0.000 HD
ENDBRANCH  31  35
ENDBRANCH  25  28
ENDBRANCH  23  24
BRANCH  23  37
ATOM     37  C   UNL     1      -5.050   2.307 127.241  0.00  0.00    +0.000 C 
BRANCH  37  38
ATOM     38  S   UNL     1      -3.630   3.334 126.809  0.00  0.00    +0.000 S 
BRANCH  38  39
ATOM     39  C   UNL     1      -3.166   4.324 128.119  0.00  0.00    +0.000 A 
ATOM     40  C   UNL     1      -2.641   5.582 127.930  0.00  0.00    +0.000 A 
ATOM     41  C   UNL     1      -2.262   6.297 129.045  0.00  0.00    +0.000 A 
ATOM     42  C   UNL     1      -2.516   5.787 130.323  0.00  0.00    +0.000 A 
ATOM     43  C   UNL     1      -3.113   4.540 130.501  0.00  0.00    +0.000 A 
ATOM     44  C   UNL     1      -3.436   3.799 129.387  0.00  0.00    +0.000 A 
ENDBRANCH  38  39
ENDBRANCH  37  38
ENDBRANCH  23  37
ENDBRANCH   1  23
TORSDOF 12
ENDMDL
MODEL 3
REMARK VINA RESULT:      -9.7      3.718      8.727
REMARK  Name = Nelfinavir
REMARK  16 active torsions:
REMARK  status: ('A' for Active; 'I' for Inactive)
REMARK    1  A    between atoms: N_10  and  C_11
REMARK    2  A    between atoms: C_11  and  C_12
REMARK    3  A    between atoms: C_12  and  O_13
REMARK    4  A    between atoms: C_12  and  C_14
REMARK    5  A    between atoms: C_14  and  C_15
REMARK    6  A    between atoms: C_14  and  N_23
REMARK    7  A    between atoms: C_15  and  S_16
REMARK    8  A    between atoms: S_16  and  C_17
REMARK    9  A    between atoms: C_24  and  C_26
REMARK   10  A    between atoms: C_27  and  C_28
REMARK   11  A    between atoms: C_29  and  O_30
REMARK   12  A    between atoms: C_34  and  C_36
REMARK   13  A    between atoms: N_38  and  C_39
REMARK   14  A    between atoms: C_39  and  C_40
REMARK   15  A    between atoms: C_39  and  C_41
REMARK   16  A    between atoms: C_39  and  C_42
REMARK                            x       y       z     vdW  Elec       q    Type
REMARK                         _______ _______ _______ _____ _____    ______ ____
ROOT
ATOM      1  C   UNL     1      -7.917   3.016 125.750  0.00  0.00    +0.000 C 
ENDROOT
BRANCH   1   2
ATOM      2  O   UNL     1      -8.738   4.173 125.473  0.00  0.00    +0.000 OA
ATOM      3  H   UNL     1      -8.378   4.874 126.052  0.00  0.00    +0.000 HD
ENDBRANCH   1   2
BRANCH   1   4
ATOM      4  C   UNL     1      -8.916   1.877 125.498  0.00  0.00    +0.000 C 
BRANCH   4  12
ATOM      5  C   UNL     1      -8.372  -2.481 124.670  0.00  0.00    +0.000 C 
ATOM      6  C   UNL     1      -7.539  -3.832 124.506  0.00  0.00    +0.000 C 
ATOM      7  C   UNL     1      -6.028  -3.715 124.244  0.00  0.00    +0.000 C 
ATOM      8  C   UNL     1      -5.638  -2.687 123.142  0.00  0.00    +0.000 C 
ATOM      9  C   UNL     1      -6.475  -1.391 123.039  0.00  0.00    +0.000 C 
ATOM     10  C   UNL     1      -7.959  -1.483 123.544  0.00  0.00    +0.000 C 
ATOM     11  C   UNL     1      -8.553  -0.119 123.977  0.00  0.00    +0.000 C 
ATOM     12  N   UNL     1      -8.349   0.526 125.335  0.00  0.00    +0.000 NA
ATOM     13  C   UNL     1      -8.232  -0.268 126.667  0.00  0.00    +0.000 C 
ATOM     14  C   UNL     1      -8.517  -1.866 126.279  0.00  0.00    +0.000 C 
BRANCH  13  15
ATOM     15  C   UNL     1      -6.719   0.224 127.657  0.00  0.00    +0.000 C 
ATOM     16  O   UNL     1      -5.554   0.017 127.251  0.00  0.00    +0.000 OA
ATOM     17  N   UNL     1      -6.743   0.736 128.994  0.00  0.00    +0.000 N 
ATOM     18  H   UNL     1      -7.609   1.170 129.289  0.00  0.00    +0.000 HD
BRANCH  17  19
ATOM     19  C   UNL     1      -5.646   0.630 130.132  0.00  0.00    +0.000 C 
ATOM     20  C   UNL     1      -4.144   1.052 130.038  0.00  0.00    +0.000 C 
ATOM     21  C   UNL     1      -6.051   1.501 131.294  0.00  0.00    +0.000 C 
ATOM     22  C   UNL     1      -5.508  -0.872 130.423  0.00  0.00    +0.000 C 
ENDBRANCH  17  19
ENDBRANCH  13  15
ENDBRANCH   4  12
ENDBRANCH   1   4
BRANCH   1  23
ATOM     23  C   UNL     1      -6.441   2.980 125.053  0.00  0.00    +0.000 C 
BRANCH  23  24
ATOM     24  N   UNL     1      -6.297   3.771 123.772  0.00  0.00    +0.000 N 
ATOM     25  C   UNL     1      -6.430   3.093 122.568  0.00  0.00    +0.000 C 
ATOM     26  O   UNL     1      -6.453   1.862 122.712  0.00  0.00    +0.000 OA
ATOM     27  H   UNL     1      -5.957   4.723 123.767  0.00  0.00    +0.000 HD
BRANCH  25  28
ATOM     28  C   UNL     1      -6.412   3.832 121.171  0.00  0.00    +0.000 A 
ATOM     29  C   UNL     1      -7.478   3.964 120.198  0.00  0.00    +0.000 A 
ATOM     30  C   UNL     1      -8.800   3.722 120.612  0.00  0.00    +0.000 C 
ATOM     31  C   UNL     1      -7.507   4.615 118.954  0.00  0.00    +0.000 A 
ATOM     32  C   UNL     1      -6.400   5.308 118.636  0.00  0.00    +0.000 A 
ATOM     33  C   UNL     1      -5.320   5.242 119.540  0.00  0.00    +0.000 A 
ATOM     34  C   UNL     1      -5.317   4.541 120.788  0.00  0.00    +0.000 A 
BRANCH  31  35
ATOM     35  O   UNL     1      -8.507   4.496 118.009  0.00  0.00    +0.000 OA
ATOM     36  H   UNL     1      -8.992   3.647 118.048  0.00  0.00    +0.000 HD
ENDBRANCH  31  35
ENDBRANCH  25  28
ENDBRANCH  23  24
BRANCH  23  37
ATOM     37  C   UNL     1      -5.248   3.306 125.998  0.00  0.00    +0.000 C 
BRANCH  37  38
ATOM     38  S   UNL     1      -5.958   4.020 127.495  0.00  0.00    +0.000 S 
BRANCH  38  39
ATOM     39  C   UNL     1      -4.744   4.664 128.505  0.00  0.00    +0.000 A 
ATOM     40  C   UNL     1      -4.887   4.716 129.873  0.00  0.00    +0.000 A 
ATOM     41  C   UNL     1      -3.870   5.284 130.608  0.00  0.00    +0.000 A 
ATOM     42  C   UNL     1      -2.690   5.687 129.973  0.00  0.00    +0.000 A 
ATOM     43  C   UNL     1      -2.529   5.565 128.593  0.00  0.00    +0.000 A 
ATOM     44  C   UNL     1      -3.570   5.054 127.852  0.00  0.00    +0.000 A 
ENDBRANCH  38  39
ENDBRANCH  37  38
ENDBRANCH  23  37
ENDBRANCH   1  23
TORSDOF 12
ENDMDL
MODEL 4
REMARK VINA RESULT:      -9.7      3.972      7.550
REMARK  Name = Nelfinavir
REMARK  16 active torsions:
REMARK  status: ('A' for Active; 'I' for Inactive)
REMARK    1  A    between atoms: N_10  and  C_11
REMARK    2  A    between atoms: C_11  and  C_12
REMARK    3  A    between atoms: C_12  and  O_13
REMARK    4  A    between atoms: C_12  and  C_14
REMARK    5  A    between atoms: C_14  and  C_15
REMARK    6  A    between atoms: C_14  and  N_23
REMARK    7  A    between atoms: C_15  and  S_16
REMARK    8  A    between atoms: S_16  and  C_17
REMARK    9  A    between atoms: C_24  and  C_26
REMARK   10  A    between atoms: C_27  and  C_28
REMARK   11  A    between atoms: C_29  and  O_30
REMARK   12  A    between atoms: C_34  and  C_36
REMARK   13  A    between atoms: N_38  and  C_39
REMARK   14  A    between atoms: C_39  and  C_40
REMARK   15  A    between atoms: C_39  and  C_41
REMARK   16  A    between atoms: C_39  and  C_42
REMARK                            x       y       z     vdW  Elec       q    Type
REMARK                         _______ _______ _______ _____ _____    ______ ____
ROOT
ATOM      1  C   UNL     1      -6.467   1.375 125.509  0.00  0.00    +0.000 C 
ENDROOT
BRANCH   1   2
ATOM      2  O   UNL     1      -5.513   2.372 125.082  0.00  0.00    +0.000 OA
ATOM      3  H   UNL     1      -5.704   3.151 125.640  0.00  0.00    +0.000 HD
ENDBRANCH   1   2
BRANCH   1   4
ATOM      4  C   UNL     1      -6.388   1.523 127.036  0.00  0.00    +0.000 C 
BRANCH   4  12
ATOM      5  C   UNL     1      -7.248  -2.630 128.448  0.00  0.00    +0.000 C 
ATOM      6  C   UNL     1      -7.130  -3.879 129.433  0.00  0.00    +0.000 C 
ATOM      7  C   UNL     1      -5.911  -3.940 130.369  0.00  0.00    +0.000 C 
ATOM      8  C   UNL     1      -4.547  -3.650 129.679  0.00  0.00    +0.000 C 
ATOM      9  C   UNL     1      -4.521  -2.588 128.555  0.00  0.00    +0.000 C 
ATOM     10  C   UNL     1      -5.865  -2.377 127.770  0.00  0.00    +0.000 C 
ATOM     11  C   UNL     1      -5.987  -0.979 127.112  0.00  0.00    +0.000 C 
ATOM     12  N   UNL     1      -6.447   0.278 127.824  0.00  0.00    +0.000 NA
ATOM     13  C   UNL     1      -7.525   0.300 128.946  0.00  0.00    +0.000 C 
ATOM     14  C   UNL     1      -8.111  -1.259 129.053  0.00  0.00    +0.000 C 
BRANCH  13  15
ATOM     15  C   UNL     1      -6.943   1.214 130.473  0.00  0.00    +0.000 C 
ATOM     16  O   UNL     1      -7.678   2.007 131.103  0.00  0.00    +0.000 OA
ATOM     17  N   UNL     1      -5.600   1.208 130.972  0.00  0.00    +0.000 N 
ATOM     18  H   UNL     1      -5.027   0.419 130.699  0.00  0.00    +0.000 HD
BRANCH  17  19
ATOM     19  C   UNL     1      -4.832   2.315 131.806  0.00  0.00    +0.000 C 
ATOM     20  C   UNL     1      -5.380   3.131 133.022  0.00  0.00    +0.000 C 
ATOM     21  C   UNL     1      -3.637   1.688 132.478  0.00  0.00    +0.000 C 
ATOM     22  C   UNL     1      -4.538   3.444 130.807  0.00  0.00    +0.000 C 
ENDBRANCH  17  19
ENDBRANCH  13  15
ENDBRANCH   4  12
ENDBRANCH   1   4
BRANCH   1  23
ATOM     23  C   UNL     1      -7.918   1.378 124.761  0.00  0.00    +0.000 C 
BRANCH  23  24
ATOM     24  N   UNL     1      -7.906   1.773 123.301  0.00  0.00    +0.000 N 
ATOM     25  C   UNL     1      -7.934   3.125 122.991  0.00  0.00    +0.000 C 
ATOM     26  O   UNL     1      -8.171   3.838 123.977  0.00  0.00    +0.000 OA
ATOM     27  H   UNL     1      -8.036   1.095 122.562  0.00  0.00    +0.000 HD
BRANCH  25  28
ATOM     28  C   UNL     1      -7.811   3.660 121.509  0.00  0.00    +0.000 A 
ATOM     29  C   UNL     1      -6.630   4.108 120.798  0.00  0.00    +0.000 A 
ATOM     30  C   UNL     1      -5.367   3.748 121.300  0.00  0.00    +0.000 C 
ATOM     31  C   UNL     1      -6.476   4.581 119.485  0.00  0.00    +0.000 A 
ATOM     32  C   UNL     1      -7.579   4.536 118.719  0.00  0.00    +0.000 A 
ATOM     33  C   UNL     1      -8.769   4.098 119.334  0.00  0.00    +0.000 A 
ATOM     34  C   UNL     1      -8.895   3.651 120.688  0.00  0.00    +0.000 A 
BRANCH  31  35
ATOM     35  O   UNL     1      -5.342   5.185 118.977  0.00  0.00    +0.000 OA
ATOM     36  H   UNL     1      -5.114   4.903 118.069  0.00  0.00    +0.000 HD
ENDBRANCH  31  35
ENDBRANCH  25  28
ENDBRANCH  23  24
BRANCH  23  37
ATOM     37  C   UNL     1      -8.764   0.083 124.938  0.00  0.00    +0.000 C 
BRANCH  37  38
ATOM     38  S   UNL     1      -8.562  -0.874 123.421  0.00  0.00    +0.000 S 
BRANCH  38  39
ATOM     39  C   UNL     1      -7.324  -2.035 123.587  0.00  0.00    +0.000 A 
ATOM     40  C   UNL     1      -6.066  -1.838 123.063  0.00  0.00    +0.000 A 
ATOM     41  C   UNL     1      -5.139  -2.845 123.214  0.00  0.00    +0.000 A 
ATOM     42  C   UNL     1      -5.451  -3.975 123.979  0.00  0.00    +0.000 A 
ATOM     43  C   UNL     1      -6.707  -4.130 124.564  0.00  0.00    +0.000 A 
ATOM     44  C   UNL     1      -7.655  -3.152 124.361  0.00  0.00    +0.000 A 
ENDBRANCH  38  39
ENDBRANCH  37  38
ENDBRANCH  23  37
ENDBRANCH   1  23
TORSDOF 12
ENDMDL
MODEL 5
REMARK VINA RESULT:      -9.6      2.789      6.340
REMARK  Name = Nelfinavir
REMARK  16 active torsions:
REMARK  status: ('A' for Active; 'I' for Inactive)
REMARK    1  A    between atoms: N_10  and  C_11
REMARK    2  A    between atoms: C_11  and  C_12
REMARK    3  A    between atoms: C_12  and  O_13
REMARK    4  A    between atoms: C_12  and  C_14
REMARK    5  A    between atoms: C_14  and  C_15
REMARK    6  A    between atoms: C_14  and  N_23
REMARK    7  A    between atoms: C_15  and  S_16
REMARK    8  A    between atoms: S_16  and  C_17
REMARK    9  A    between atoms: C_24  and  C_26
REMARK   10  A    between atoms: C_27  and  C_28
REMARK   11  A    between atoms: C_29  and  O_30
REMARK   12  A    between atoms: C_34  and  C_36
REMARK   13  A    between atoms: N_38  and  C_39
REMARK   14  A    between atoms: C_39  and  C_40
REMARK   15  A    between atoms: C_39  and  C_41
REMARK   16  A    between atoms: C_39  and  C_42
REMARK                            x       y       z     vdW  Elec       q    Type
REMARK                         _______ _______ _______ _____ _____    ______ ____
ROOT
ATOM      1  C   UNL     1      -7.169   2.859 126.662  0.00  0.00    +0.000 C 
ENDROOT
BRANCH   1   2
ATOM      2  O   UNL     1      -8.447   3.523 126.775  0.00  0.00    +0.000 OA
ATOM      3  H   UNL     1      -8.766   3.600 125.854  0.00  0.00    +0.000 HD
ENDBRANCH   1   2
BRANCH   1   4
ATOM      4  C   UNL     1      -6.896   2.489 128.128  0.00  0.00    +0.000 C 
BRANCH   4  12
ATOM      5  C   UNL     1      -3.436   3.921 130.568  0.00  0.00    +0.000 C 
ATOM      6  C   UNL     1      -2.482   5.018 131.226  0.00  0.00    +0.000 C 
ATOM      7  C   UNL     1      -2.477   6.426 130.609  0.00  0.00    +0.000 C 
ATOM      8  C   UNL     1      -2.364   6.455 129.057  0.00  0.00    +0.000 C 
ATOM      9  C   UNL     1      -3.081   5.339 128.263  0.00  0.00    +0.000 C 
ATOM     10  C   UNL     1      -3.287   3.976 129.016  0.00  0.00    +0.000 C 
ATOM     11  C   UNL     1      -4.468   3.135 128.467  0.00  0.00    +0.000 C 
ATOM     12  N   UNL     1      -5.923   3.329 128.851  0.00  0.00    +0.000 NA
ATOM     13  C   UNL     1      -6.401   3.762 130.266  0.00  0.00    +0.000 C 
ATOM     14  C   UNL     1      -5.033   3.809 131.221  0.00  0.00    +0.000 C 
BRANCH  13  15
ATOM     15  C   UNL     1      -7.577   5.218 130.203  0.00  0.00    +0.000 C 
ATOM     16  O   UNL     1      -7.205   6.393 130.419  0.00  0.00    +0.000 OA
ATOM     17  N   UNL     1      -8.998   5.121 130.050  0.00  0.00    +0.000 N 
ATOM     18  H   UNL     1      -9.342   4.271 129.619  0.00  0.00    +0.000 HD
BRANCH  17  19
ATOM     19  C   UNL     1     -10.135   6.101 130.557  0.00  0.00    +0.000 C 
ATOM     20  C   UNL     1     -11.681   5.889 130.452  0.00  0.00    +0.000 C 
ATOM     21  C   UNL     1     -10.030   6.250 132.053  0.00  0.00    +0.000 C 
ATOM     22  C   UNL     1      -9.961   7.384 129.731  0.00  0.00    +0.000 C 
ENDBRANCH  17  19
ENDBRANCH  13  15
ENDBRANCH   4  12
ENDBRANCH   1   4
BRANCH   1  23
ATOM     23  C   UNL     1      -7.030   1.727 125.494  0.00  0.00    +0.000 C 
BRANCH  23  24
ATOM     24  N   UNL     1      -6.441   2.201 124.184  0.00  0.00    +0.000 N 
ATOM     25  C   UNL     1      -7.244   2.963 123.346  0.00  0.00    +0.000 C 
ATOM     26  O   UNL     1      -8.429   2.985 123.708  0.00  0.00    +0.000 OA
ATOM     27  H   UNL     1      -5.557   1.853 123.838  0.00  0.00    +0.000 HD
BRANCH  25  28
ATOM     28  C   UNL     1      -6.704   3.608 122.008  0.00  0.00    +0.000 A 
ATOM     29  C   UNL     1      -7.393   3.801 120.748  0.00  0.00    +0.000 A 
ATOM     30  C   UNL     1      -8.798   3.737 120.734  0.00  0.00    +0.000 C 
ATOM     31  C   UNL     1      -6.956   4.374 119.543  0.00  0.00    +0.000 A 
ATOM     32  C   UNL     1      -5.726   4.916 119.572  0.00  0.00    +0.000 A 
ATOM     33  C   UNL     1      -4.993   4.782 120.768  0.00  0.00    +0.000 A 
ATOM     34  C   UNL     1      -5.462   4.162 121.970  0.00  0.00    +0.000 A 
BRANCH  31  35
ATOM     35  O   UNL     1      -7.624   4.312 118.336  0.00  0.00    +0.000 OA
ATOM     36  H   UNL     1      -8.552   4.619 118.380  0.00  0.00    +0.000 HD
ENDBRANCH  31  35
ENDBRANCH  25  28
ENDBRANCH  23  24
BRANCH  23  37
ATOM     37  C   UNL     1      -6.331   0.404 125.925  0.00  0.00    +0.000 C 
BRANCH  37  38
ATOM     38  S   UNL     1      -7.425  -0.942 125.426  0.00  0.00    +0.000 S 
BRANCH  38  39
ATOM     39  C   UNL     1      -7.843  -1.920 126.760  0.00  0.00    +0.000 A 
ATOM     40  C   UNL     1      -7.471  -1.596 128.045  0.00  0.00    +0.000 A 
ATOM     41  C   UNL     1      -7.823  -2.462 129.056  0.00  0.00    +0.000 A 
ATOM     42  C   UNL     1      -8.629  -3.572 128.778  0.00  0.00    +0.000 A 
ATOM     43  C   UNL     1      -9.058  -3.851 127.481  0.00  0.00    +0.000 A 
ATOM     44  C   UNL     1      -8.656  -3.019 126.461  0.00  0.00    +0.000 A 
ENDBRANCH  38  39
ENDBRANCH  37  38
ENDBRANCH  23  37
ENDBRANCH   1  23
TORSDOF 12
ENDMDL
MODEL 6
REMARK VINA RESULT:      -9.6      1.982      4.637
REMARK  Name = Nelfinavir
REMARK  16 active torsions:
REMARK  status: ('A' for Active; 'I' for Inactive)
REMARK    1  A    between atoms: N_10  and  C_11
REMARK    2  A    between atoms: C_11  and  C_12
REMARK    3  A    between atoms: C_12  and  O_13
REMARK    4  A    between atoms: C_12  and  C_14
REMARK    5  A    between atoms: C_14  and  C_15
REMARK    6  A    between atoms: C_14  and  N_23
REMARK    7  A    between atoms: C_15  and  S_16
REMARK    8  A    between atoms: S_16  and  C_17
REMARK    9  A    between atoms: C_24  and  C_26
REMARK   10  A    between atoms: C_27  and  C_28
REMARK   11  A    between atoms: C_29  and  O_30
REMARK   12  A    between atoms: C_34  and  C_36
REMARK   13  A    between atoms: N_38  and  C_39
REMARK   14  A    between atoms: C_39  and  C_40
REMARK   15  A    between atoms: C_39  and  C_41
REMARK   16  A    between atoms: C_39  and  C_42
REMARK                            x       y       z     vdW  Elec       q    Type
REMARK                         _______ _______ _______ _____ _____    ______ ____
ROOT
ATOM      1  C   UNL     1      -8.044   3.020 128.134  0.00  0.00    +0.000 C 
ENDROOT
BRANCH   1   2
ATOM      2  O   UNL     1      -8.359   4.399 127.839  0.00  0.00    +0.000 OA
ATOM      3  H   UNL     1      -8.107   4.515 126.902  0.00  0.00    +0.000 HD
ENDBRANCH   1   2
BRANCH   1   4
ATOM      4  C   UNL     1      -8.920   2.773 129.371  0.00  0.00    +0.000 C 
BRANCH   4  12
ATOM      5  C   UNL     1      -7.749   3.532 133.617  0.00  0.00    +0.000 C 
ATOM      6  C   UNL     1      -7.202   4.404 134.836  0.00  0.00    +0.000 C 
ATOM      7  C   UNL     1      -6.358   5.646 134.505  0.00  0.00    +0.000 C 
ATOM      8  C   UNL     1      -5.239   5.409 133.449  0.00  0.00    +0.000 C 
ATOM      9  C   UNL     1      -5.541   4.431 132.290  0.00  0.00    +0.000 C 
ATOM     10  C   UNL     1      -6.598   3.309 132.587  0.00  0.00    +0.000 C 
ATOM     11  C   UNL     1      -7.295   2.759 131.317  0.00  0.00    +0.000 C 
ATOM     12  N   UNL     1      -8.481   3.406 130.628  0.00  0.00    +0.000 NA
ATOM     13  C   UNL     1      -9.616   4.163 131.376  0.00  0.00    +0.000 C 
ATOM     14  C   UNL     1      -9.306   3.969 133.004  0.00  0.00    +0.000 C 
BRANCH  13  15
ATOM     15  C   UNL     1      -9.930   5.863 130.655  0.00  0.00    +0.000 C 
ATOM     16  O   UNL     1      -9.673   6.916 131.280  0.00  0.00    +0.000 OA
ATOM     17  N   UNL     1     -10.607   6.119 129.419  0.00  0.00    +0.000 N 
ATOM     18  H   UNL     1     -10.610   5.361 128.748  0.00  0.00    +0.000 HD
BRANCH  17  19
ATOM     19  C   UNL     1     -11.454   7.383 128.978  0.00  0.00    +0.000 C 
ATOM     20  C   UNL     1     -12.231   8.371 129.909  0.00  0.00    +0.000 C 
ATOM     21  C   UNL     1     -10.545   8.378 128.303  0.00  0.00    +0.000 C 
ATOM     22  C   UNL     1     -12.603   6.823 128.126  0.00  0.00    +0.000 C 
ENDBRANCH  17  19
ENDBRANCH  13  15
ENDBRANCH   4  12
ENDBRANCH   1   4
BRANCH   1  23
ATOM     23  C   UNL     1      -8.084   1.974 126.880  0.00  0.00    +0.000 C 
BRANCH  23  24
ATOM     24  N   UNL     1      -7.190   2.316 125.709  0.00  0.00    +0.000 N 
ATOM     25  C   UNL     1      -7.772   2.909 124.597  0.00  0.00    +0.000 C 
ATOM     26  O   UNL     1      -9.011   2.896 124.640  0.00  0.00    +0.000 OA
ATOM     27  H   UNL     1      -6.236   1.987 125.650  0.00  0.00    +0.000 HD
BRANCH  25  28
ATOM     28  C   UNL     1      -6.925   3.412 123.361  0.00  0.00    +0.000 A 
ATOM     29  C   UNL     1      -7.297   3.461 121.962  0.00  0.00    +0.000 A 
ATOM     30  C   UNL     1      -8.660   3.381 121.626  0.00  0.00    +0.000 C 
ATOM     31  C   UNL     1      -6.581   3.907 120.839  0.00  0.00    +0.000 A 
ATOM     32  C   UNL     1      -5.384   4.462 121.097  0.00  0.00    +0.000 A 
ATOM     33  C   UNL     1      -4.954   4.465 122.439  0.00  0.00    +0.000 A 
ATOM     34  C   UNL     1      -5.701   3.972 123.557  0.00  0.00    +0.000 A 
BRANCH  31  35
ATOM     35  O   UNL     1      -6.949   3.709 119.522  0.00  0.00    +0.000 OA
ATOM     36  H   UNL     1      -7.414   4.471 119.121  0.00  0.00    +0.000 HD
ENDBRANCH  31  35
ENDBRANCH  25  28
ENDBRANCH  23  24
BRANCH  23  37
ATOM     37  C   UNL     1      -7.892   0.475 127.255  0.00  0.00    +0.000 C 
BRANCH  37  38
ATOM     38  S   UNL     1      -8.724  -0.485 125.974  0.00  0.00    +0.000 S 
BRANCH  38  39
ATOM     39  C   UNL     1      -7.595  -1.213 124.921  0.00  0.00    +0.000 A 
ATOM     40  C   UNL     1      -7.490  -0.844 123.599  0.00  0.00    +0.000 A 
ATOM     41  C   UNL     1      -6.575  -1.509 122.814  0.00  0.00    +0.000 A 
ATOM     42  C   UNL     1      -5.712  -2.448 123.390  0.00  0.00    +0.000 A 
ATOM     43  C   UNL     1      -5.782  -2.763 124.746  0.00  0.00    +0.000 A 
ATOM     44  C   UNL     1      -6.738  -2.142 125.518  0.00  0.00    +0.000 A 
ENDBRANCH  38  39
ENDBRANCH  37  38
ENDBRANCH  23  37
ENDBRANCH   1  23
TORSDOF 12
ENDMDL
MODEL 7
REMARK VINA RESULT:      -9.6      3.998      7.009
REMARK  Name = Nelfinavir
REMARK  16 active torsions:
REMARK  status: ('A' for Active; 'I' for Inactive)
REMARK    1  A    between atoms: N_10  and  C_11
REMARK    2  A    between atoms: C_11  and  C_12
REMARK    3  A    between atoms: C_12  and  O_13
REMARK    4  A    between atoms: C_12  and  C_14
REMARK    5  A    between atoms: C_14  and  C_15
REMARK    6  A    between atoms: C_14  and  N_23
REMARK    7  A    between atoms: C_15  and  S_16
REMARK    8  A    between atoms: S_16  and  C_17
REMARK    9  A    between atoms: C_24  and  C_26
REMARK   10  A    between atoms: C_27  and  C_28
REMARK   11  A    between atoms: C_29  and  O_30
REMARK   12  A    between atoms: C_34  and  C_36
REMARK   13  A    between atoms: N_38  and  C_39
REMARK   14  A    between atoms: C_39  and  C_40
REMARK   15  A    between atoms: C_39  and  C_41
REMARK   16  A    between atoms: C_39  and  C_42
REMARK                            x       y       z     vdW  Elec       q    Type
REMARK                         _______ _______ _______ _____ _____    ______ ____
ROOT
ATOM      1  C   UNL     1      -7.930   1.967 127.266  0.00  0.00    +0.000 C 
ENDROOT
BRANCH   1   2
ATOM      2  O   UNL     1      -8.122   3.343 127.662  0.00  0.00    +0.000 OA
ATOM      3  H   UNL     1      -8.731   3.296 128.425  0.00  0.00    +0.000 HD
ENDBRANCH   1   2
BRANCH   1   4
ATOM      4  C   UNL     1      -8.267   1.231 128.572  0.00  0.00    +0.000 C 
BRANCH   4  12
ATOM      5  C   UNL     1      -6.145  -2.057 130.732  0.00  0.00    +0.000 C 
ATOM      6  C   UNL     1      -4.889  -2.959 131.123  0.00  0.00    +0.000 C 
ATOM      7  C   UNL     1      -3.699  -2.991 130.149  0.00  0.00    +0.000 C 
ATOM      8  C   UNL     1      -4.087  -3.202 128.657  0.00  0.00    +0.000 C 
ATOM      9  C   UNL     1      -5.393  -2.545 128.154  0.00  0.00    +0.000 C 
ATOM     10  C   UNL     1      -6.507  -2.303 129.234  0.00  0.00    +0.000 C 
ATOM     11  C   UNL     1      -7.493  -1.165 128.865  0.00  0.00    +0.000 C 
ATOM     12  N   UNL     1      -7.240   0.312 129.096  0.00  0.00    +0.000 NA
ATOM     13  C   UNL     1      -6.453   0.882 130.311  0.00  0.00    +0.000 C 
ATOM     14  C   UNL     1      -6.117  -0.422 131.296  0.00  0.00    +0.000 C 
BRANCH  13  15
ATOM     15  C   UNL     1      -5.097   2.064 129.788  0.00  0.00    +0.000 C 
ATOM     16  O   UNL     1      -4.296   2.571 130.604  0.00  0.00    +0.000 OA
ATOM     17  N   UNL     1      -4.937   2.600 128.469  0.00  0.00    +0.000 N 
ATOM     18  H   UNL     1      -5.353   2.063 127.717  0.00  0.00    +0.000 HD
BRANCH  17  19
ATOM     19  C   UNL     1      -4.297   3.974 128.012  0.00  0.00    +0.000 C 
ATOM     20  C   UNL     1      -4.361   5.343 128.766  0.00  0.00    +0.000 C 
ATOM     21  C   UNL     1      -2.798   3.825 127.946  0.00  0.00    +0.000 C 
ATOM     22  C   UNL     1      -5.004   4.334 126.697  0.00  0.00    +0.000 C 
ENDBRANCH  17  19
ENDBRANCH  13  15
ENDBRANCH   4  12
ENDBRANCH   1   4
BRANCH   1  23
ATOM     23  C   UNL     1      -8.624   1.503 125.863  0.00  0.00    +0.000 C 
BRANCH  23  24
ATOM     24  N   UNL     1      -7.835   1.801 124.607  0.00  0.00    +0.000 N 
ATOM     25  C   UNL     1      -7.853   3.100 124.120  0.00  0.00    +0.000 C 
ATOM     26  O   UNL     1      -8.695   3.813 124.685  0.00  0.00    +0.000 OA
ATOM     27  H   UNL     1      -7.438   1.066 124.038  0.00  0.00    +0.000 HD
BRANCH  25  28
ATOM     28  C   UNL     1      -6.979   3.556 122.884  0.00  0.00    +0.000 A 
ATOM     29  C   UNL     1      -7.348   3.622 121.484  0.00  0.00    +0.000 A 
ATOM     30  C   UNL     1      -8.713   3.613 121.148  0.00  0.00    +0.000 C 
ATOM     31  C   UNL     1      -6.609   4.026 120.361  0.00  0.00    +0.000 A 
ATOM     32  C   UNL     1      -5.384   4.517 120.618  0.00  0.00    +0.000 A 
ATOM     33  C   UNL     1      -4.955   4.500 121.960  0.00  0.00    +0.000 A 
ATOM     34  C   UNL     1      -5.727   4.051 123.079  0.00  0.00    +0.000 A 
BRANCH  31  35
ATOM     35  O   UNL     1      -6.986   3.846 119.044  0.00  0.00    +0.000 OA
ATOM     36  H   UNL     1      -7.789   3.297 118.932  0.00  0.00    +0.000 HD
ENDBRANCH  31  35
ENDBRANCH  25  28
ENDBRANCH  23  24
BRANCH  23  37
ATOM     37  C   UNL     1      -9.124   0.029 125.820  0.00  0.00    +0.000 C 
BRANCH  37  38
ATOM     38  S   UNL     1      -8.799  -0.576 124.152  0.00  0.00    +0.000 S 
BRANCH  38  39
ATOM     39  C   UNL     1      -7.621  -1.811 124.164  0.00  0.00    +0.000 A 
ATOM     40  C   UNL     1      -7.934  -3.112 124.485  0.00  0.00    +0.000 A 
ATOM     41  C   UNL     1      -6.913  -4.036 124.503  0.00  0.00    +0.000 A 
ATOM     42  C   UNL     1      -5.627  -3.665 124.095  0.00  0.00    +0.000 A 
ATOM     43  C   UNL     1      -5.338  -2.358 123.705  0.00  0.00    +0.000 A 
ATOM     44  C   UNL     1      -6.345  -1.420 123.745  0.00  0.00    +0.000 A 
ENDBRANCH  38  39
ENDBRANCH  37  38
ENDBRANCH  23  37
ENDBRANCH   1  23
TORSDOF 12
ENDMDL
MODEL 8
REMARK VINA RESULT:      -9.6      2.932      6.204
REMARK  Name = Nelfinavir
REMARK  16 active torsions:
REMARK  status: ('A' for Active; 'I' for Inactive)
REMARK    1  A    between atoms: N_10  and  C_11
REMARK    2  A    between atoms: C_11  and  C_12
REMARK    3  A    between atoms: C_12  and  O_13
REMARK    4  A    between atoms: C_12  and  C_14
REMARK    5  A    between atoms: C_14  and  C_15
REMARK    6  A    between atoms: C_14  and  N_23
REMARK    7  A    between atoms: C_15  and  S_16
REMARK    8  A    between atoms: S_16  and  C_17
REMARK    9  A    between atoms: C_24  and  C_26
REMARK   10  A    between atoms: C_27  and  C_28
REMARK   11  A    between atoms: C_29  and  O_30
REMARK   12  A    between atoms: C_34  and  C_36
REMARK   13  A    between atoms: N_38  and  C_39
REMARK   14  A    between atoms: C_39  and  C_40
REMARK   15  A    between atoms: C_39  and  C_41
REMARK   16  A    between atoms: C_39  and  C_42
REMARK                            x       y       z     vdW  Elec       q    Type
REMARK                         _______ _______ _______ _____ _____    ______ ____
ROOT
ATOM      1  C   UNL     1      -5.339   3.017 126.424  0.00  0.00    +0.000 C 
ENDROOT
BRANCH   1   2
ATOM      2  O   UNL     1      -3.984   2.927 125.929  0.00  0.00    +0.000 OA
ATOM      3  H   UNL     1      -4.075   2.966 124.956  0.00  0.00    +0.000 HD
ENDBRANCH   1   2
BRANCH   1   4
ATOM      4  C   UNL     1      -5.473   4.530 126.651  0.00  0.00    +0.000 C 
BRANCH   4  12
ATOM      5  C   UNL     1      -2.692   5.684 129.953  0.00  0.00    +0.000 C 
ATOM      6  C   UNL     1      -2.286   6.383 131.329  0.00  0.00    +0.000 C 
ATOM      7  C   UNL     1      -3.180   7.524 131.843  0.00  0.00    +0.000 C 
ATOM      8  C   UNL     1      -3.555   8.589 130.771  0.00  0.00    +0.000 C 
ATOM      9  C   UNL     1      -3.797   8.098 129.325  0.00  0.00    +0.000 C 
ATOM     10  C   UNL     1      -3.050   6.782 128.905  0.00  0.00    +0.000 C 
ATOM     11  C   UNL     1      -3.738   6.021 127.743  0.00  0.00    +0.000 C 
ATOM     12  N   UNL     1      -4.903   5.063 127.902  0.00  0.00    +0.000 NA
ATOM     13  C   UNL     1      -5.099   4.126 129.127  0.00  0.00    +0.000 C 
ATOM     14  C   UNL     1      -3.738   4.312 130.074  0.00  0.00    +0.000 C 
BRANCH  13  15
ATOM     15  C   UNL     1      -6.812   4.276 129.870  0.00  0.00    +0.000 C 
ATOM     16  O   UNL     1      -7.843   3.916 129.259  0.00  0.00    +0.000 OA
ATOM     17  N   UNL     1      -7.117   4.928 131.108  0.00  0.00    +0.000 N 
ATOM     18  H   UNL     1      -6.354   5.006 131.770  0.00  0.00    +0.000 HD
BRANCH  17  19
ATOM     19  C   UNL     1      -8.451   5.650 131.564  0.00  0.00    +0.000 C 
ATOM     20  C   UNL     1      -9.916   5.140 131.365  0.00  0.00    +0.000 C 
ATOM     21  C   UNL     1      -8.459   5.775 133.066  0.00  0.00    +0.000 C 
ATOM     22  C   UNL     1      -8.491   6.965 130.771  0.00  0.00    +0.000 C 
ENDBRANCH  17  19
ENDBRANCH  13  15
ENDBRANCH   4  12
ENDBRANCH   1   4
BRANCH   1  23
ATOM     23  C   UNL     1      -6.483   2.210 125.582  0.00  0.00    +0.000 C 
BRANCH  23  24
ATOM     24  N   UNL     1      -6.484   2.439 124.087  0.00  0.00    +0.000 N 
ATOM     25  C   UNL     1      -7.444   3.291 123.559  0.00  0.00    +0.000 C 
ATOM     26  O   UNL     1      -8.315   3.602 124.385  0.00  0.00    +0.000 OA
ATOM     27  H   UNL     1      -5.923   1.879 123.460  0.00  0.00    +0.000 HD
BRANCH  25  28
ATOM     28  C   UNL     1      -7.475   3.694 122.031  0.00  0.00    +0.000 A 
ATOM     29  C   UNL     1      -6.388   4.151 121.189  0.00  0.00    +0.000 A 
ATOM     30  C   UNL     1      -5.067   3.923 121.614  0.00  0.00    +0.000 C 
ATOM     31  C   UNL     1      -6.370   4.511 119.832  0.00  0.00    +0.000 A 
ATOM     32  C   UNL     1      -7.523   4.324 119.167  0.00  0.00    +0.000 A 
ATOM     33  C   UNL     1      -8.627   3.867 119.914  0.00  0.00    +0.000 A 
ATOM     34  C   UNL     1      -8.616   3.539 121.307  0.00  0.00    +0.000 A 
BRANCH  31  35
ATOM     35  O   UNL     1      -5.325   5.139 119.181  0.00  0.00    +0.000 OA
ATOM     36  H   UNL     1      -4.442   4.903 119.529  0.00  0.00    +0.000 HD
ENDBRANCH  31  35
ENDBRANCH  25  28
ENDBRANCH  23  24
BRANCH  23  37
ATOM     37  C   UNL     1      -6.571   0.683 125.870  0.00  0.00    +0.000 C 
BRANCH  37  38
ATOM     38  S   UNL     1      -8.327   0.286 126.003  0.00  0.00    +0.000 S 
BRANCH  38  39
ATOM     39  C   UNL     1      -8.726  -1.064 125.039  0.00  0.00    +0.000 A 
ATOM     40  C   UNL     1      -9.095  -2.270 125.592  0.00  0.00    +0.000 A 
ATOM     41  C   UNL     1      -9.367  -3.315 124.739  0.00  0.00    +0.000 A 
ATOM     42  C   UNL     1      -9.371  -3.106 123.355  0.00  0.00    +0.000 A 
ATOM     43  C   UNL     1      -9.064  -1.860 122.809  0.00  0.00    +0.000 A 
ATOM     44  C   UNL     1      -8.732  -0.831 123.660  0.00  0.00    +0.000 A 
ENDBRANCH  38  39
ENDBRANCH  37  38
ENDBRANCH  23  37
ENDBRANCH   1  23
TORSDOF 12
ENDMDL
MODEL 9
REMARK VINA RESULT:      -9.5      2.047      5.605
REMARK  Name = Nelfinavir
REMARK  16 active torsions:
REMARK  status: ('A' for Active; 'I' for Inactive)
REMARK    1  A    between atoms: N_10  and  C_11
REMARK    2  A    between atoms: C_11  and  C_12
REMARK    3  A    between atoms: C_12  and  O_13
REMARK    4  A    between atoms: C_12  and  C_14
REMARK    5  A    between atoms: C_14  and  C_15
REMARK    6  A    between atoms: C_14  and  N_23
REMARK    7  A    between atoms: C_15  and  S_16
REMARK    8  A    between atoms: S_16  and  C_17
REMARK    9  A    between atoms: C_24  and  C_26
REMARK   10  A    between atoms: C_27  and  C_28
REMARK   11  A    between atoms: C_29  and  O_30
REMARK   12  A    between atoms: C_34  and  C_36
REMARK   13  A    between atoms: N_38  and  C_39
REMARK   14  A    between atoms: C_39  and  C_40
REMARK   15  A    between atoms: C_39  and  C_41
REMARK   16  A    between atoms: C_39  and  C_42
REMARK                            x       y       z     vdW  Elec       q    Type
REMARK                         _______ _______ _______ _____ _____    ______ ____
ROOT
ATOM      1  C   UNL     1      -6.585   3.570 127.418  0.00  0.00    +0.000 C 
ENDROOT
BRANCH   1   2
ATOM      2  O   UNL     1      -5.799   4.750 127.139  0.00  0.00    +0.000 OA
ATOM      3  H   UNL     1      -5.490   4.627 126.220  0.00  0.00    +0.000 HD
ENDBRANCH   1   2
BRANCH   1   4
ATOM      4  C   UNL     1      -7.855   4.192 128.018  0.00  0.00    +0.000 C 
BRANCH   4  12
ATOM      5  C   UNL     1      -7.647   2.920 132.298  0.00  0.00    +0.000 C 
ATOM      6  C   UNL     1      -7.863   3.083 133.870  0.00  0.00    +0.000 C 
ATOM      7  C   UNL     1      -8.041   4.506 134.425  0.00  0.00    +0.000 C 
ATOM      8  C   UNL     1      -7.005   5.542 133.899  0.00  0.00    +0.000 C 
ATOM      9  C   UNL     1      -6.538   5.410 132.431  0.00  0.00    +0.000 C 
ATOM     10  C   UNL     1      -6.598   3.968 131.812  0.00  0.00    +0.000 C 
ATOM     11  C   UNL     1      -6.705   3.960 130.266  0.00  0.00    +0.000 C 
ATOM     12  N   UNL     1      -7.995   4.124 129.484  0.00  0.00    +0.000 NA
ATOM     13  C   UNL     1      -9.374   3.582 129.956  0.00  0.00    +0.000 C 
ATOM     14  C   UNL     1      -9.077   2.712 131.348  0.00  0.00    +0.000 C 
BRANCH  13  15
ATOM     15  C   UNL     1     -10.707   4.897 129.911  0.00  0.00    +0.000 C 
ATOM     16  O   UNL     1     -11.926   4.620 129.962  0.00  0.00    +0.000 OA
ATOM     17  N   UNL     1     -10.478   6.292 129.677  0.00  0.00    +0.000 N 
ATOM     18  H   UNL     1      -9.547   6.631 129.885  0.00  0.00    +0.000 HD
BRANCH  17  19
ATOM     19  C   UNL     1     -11.438   7.375 129.033  0.00  0.00    +0.000 C 
ATOM     20  C   UNL     1     -12.554   7.132 127.965  0.00  0.00    +0.000 C 
ATOM     21  C   UNL     1     -12.291   7.987 130.115  0.00  0.00    +0.000 C 
ATOM     22  C   UNL     1     -10.512   8.335 128.272  0.00  0.00    +0.000 C 
ENDBRANCH  17  19
ENDBRANCH  13  15
ENDBRANCH   4  12
ENDBRANCH   1   4
BRANCH   1  23
ATOM     23  C   UNL     1      -6.702   2.465 126.221  0.00  0.00    +0.000 C 
BRANCH  23  24
ATOM     24  N   UNL     1      -6.098   2.866 124.894  0.00  0.00    +0.000 N 
ATOM     25  C   UNL     1      -6.962   3.160 123.848  0.00  0.00    +0.000 C 
ATOM     26  O   UNL     1      -8.137   2.855 124.096  0.00  0.00    +0.000 OA
ATOM     27  H   UNL     1      -5.109   2.772 124.706  0.00  0.00    +0.000 HD
BRANCH  25  28
ATOM     28  C   UNL     1      -6.453   3.698 122.452  0.00  0.00    +0.000 A 
ATOM     29  C   UNL     1      -7.155   3.750 121.185  0.00  0.00    +0.000 A 
ATOM     30  C   UNL     1      -8.556   3.635 121.189  0.00  0.00    +0.000 C 
ATOM     31  C   UNL     1      -6.745   4.225 119.929  0.00  0.00    +0.000 A 
ATOM     32  C   UNL     1      -5.535   4.810 119.897  0.00  0.00    +0.000 A 
ATOM     33  C   UNL     1      -4.792   4.812 121.094  0.00  0.00    +0.000 A 
ATOM     34  C   UNL     1      -5.232   4.290 122.352  0.00  0.00    +0.000 A 
BRANCH  31  35
ATOM     35  O   UNL     1      -7.417   4.029 118.738  0.00  0.00    +0.000 OA
ATOM     36  H   UNL     1      -6.856   3.675 118.019  0.00  0.00    +0.000 HD
ENDBRANCH  31  35
ENDBRANCH  25  28
ENDBRANCH  23  24
BRANCH  23  37
ATOM     37  C   UNL     1      -6.229   1.028 126.590  0.00  0.00    +0.000 C 
BRANCH  37  38
ATOM     38  S   UNL     1      -7.207   0.515 128.017  0.00  0.00    +0.000 S 
BRANCH  38  39
ATOM     39  C   UNL     1      -7.767  -1.086 127.835  0.00  0.00    +0.000 A 
ATOM     40  C   UNL     1      -7.720  -1.995 128.868  0.00  0.00    +0.000 A 
ATOM     41  C   UNL     1      -8.162  -3.276 128.620  0.00  0.00    +0.000 A 
ATOM     42  C   UNL     1      -8.741  -3.590 127.386  0.00  0.00    +0.000 A 
ATOM     43  C   UNL     1      -8.846  -2.640 126.371  0.00  0.00    +0.000 A 
ATOM     44  C   UNL     1      -8.349  -1.376 126.597  0.00  0.00    +0.000 A 
ENDBRANCH  38  39
ENDBRANCH  37  38
ENDBRANCH  23  37
ENDBRANCH   1  23
TORSDOF 12
ENDMDL
