MODEL 1
REMARK VINA RESULT:      -6.0      0.000      0.000
REMARK  Name = Neostigmine
REMARK  8 active torsions:
REMARK  status: ('A' for Active; 'I' for Inactive)
REMARK    1  A    between atoms: C_1  and  N_2
REMARK    2  A    between atoms: N_2  and  C_3
REMARK    3  A    between atoms: C_4  and  O_6
REMARK    4  A    between atoms: O_6  and  C_7
REMARK    5  A    between atoms: C_9  and  N_13
REMARK    6  A    between atoms: N_13  and  C_14
REMARK    7  A    between atoms: N_13  and  C_15
REMARK    8  A    between atoms: N_13  and  C_16
REMARK                            x       y       z     vdW  Elec       q    Type
REMARK                         _______ _______ _______ _____ _____    ______ ____
ROOT
ATOM      1  C   UNL     1      -9.644   7.235 130.268  0.00  0.00    +0.000 A 
ATOM      2  C   UNL     1      -8.316   7.076 130.706  0.00  0.00    +0.000 A 
ATOM      3  C   UNL     1      -7.892   6.242 131.797  0.00  0.00    +0.000 A 
ATOM      4  C   UNL     1      -9.010   5.865 132.579  0.00  0.00    +0.000 A 
ATOM      5  C   UNL     1     -10.352   6.031 132.169  0.00  0.00    +0.000 A 
ATOM      6  C   UNL     1     -10.667   6.666 130.981  0.00  0.00    +0.000 A 
ENDROOT
BRANCH   3   7
ATOM      7  N   UNL     1      -6.354   6.224 132.375  0.00  0.00    +0.000 NA
ATOM      8  C   UNL     1      -4.822   5.360 132.277  0.00  0.00    +0.000 C 
ATOM      9  C   UNL     1      -5.662   6.844 131.152  0.00  0.00    +0.000 C 
ATOM     10  C   UNL     1      -6.466   5.250 133.647  0.00  0.00    +0.000 C 
ENDBRANCH   3   7
BRANCH   1  11
ATOM     11  O   UNL     1      -9.840   7.935 129.045  0.00  0.00    +0.000 OA
BRANCH  11  15
ATOM     12  C   UNL     1     -12.427   7.043 126.581  0.00  0.00    +0.000 C 
ATOM     13  N   UNL     1     -11.742   7.698 127.684  0.00  0.00    +0.000 N 
ATOM     14  C   UNL     1     -12.439   8.746 128.406  0.00  0.00    +0.000 C 
ATOM     15  C   UNL     1     -10.443   7.268 127.962  0.00  0.00    +0.000 C 
ATOM     16  O   UNL     1      -9.890   6.391 127.327  0.00  0.00    +0.000 OA
ENDBRANCH  11  15
ENDBRANCH   1  11
TORSDOF 3
ENDMDL
MODEL 2
REMARK VINA RESULT:      -5.8      1.960      2.610
REMARK  Name = Neostigmine
REMARK  8 active torsions:
REMARK  status: ('A' for Active; 'I' for Inactive)
REMARK    1  A    between atoms: C_1  and  N_2
REMARK    2  A    between atoms: N_2  and  C_3
REMARK    3  A    between atoms: C_4  and  O_6
REMARK    4  A    between atoms: O_6  and  C_7
REMARK    5  A    between atoms: C_9  and  N_13
REMARK    6  A    between atoms: N_13  and  C_14
REMARK    7  A    between atoms: N_13  and  C_15
REMARK    8  A    between atoms: N_13  and  C_16
REMARK                            x       y       z     vdW  Elec       q    Type
REMARK                         _______ _______ _______ _____ _____    ______ ____
ROOT
ATOM      1  C   UNL     1     -10.147   6.532 131.388  0.00  0.00    +0.000 A 
ATOM      2  C   UNL     1      -9.779   5.797 132.531  0.00  0.00    +0.000 A 
ATOM      3  C   UNL     1      -8.447   5.688 133.059  0.00  0.00    +0.000 A 
ATOM      4  C   UNL     1      -7.508   6.136 132.098  0.00  0.00    +0.000 A 
ATOM      5  C   UNL     1      -7.855   6.859 130.934  0.00  0.00    +0.000 A 
ATOM      6  C   UNL     1      -9.176   7.107 130.610  0.00  0.00    +0.000 A 
ENDROOT
BRANCH   3   7
ATOM      7  N   UNL     1      -8.044   4.681 134.294  0.00  0.00    +0.000 NA
ATOM      8  C   UNL     1      -6.687   3.843 135.043  0.00  0.00    +0.000 C 
ATOM      9  C   UNL     1      -7.437   5.735 135.234  0.00  0.00    +0.000 C 
ATOM     10  C   UNL     1      -8.169   3.229 133.622  0.00  0.00    +0.000 C 
ENDBRANCH   3   7
BRANCH   1  11
ATOM     11  O   UNL     1     -11.539   6.692 131.145  0.00  0.00    +0.000 OA
BRANCH  11  15
ATOM     12  C   UNL     1     -13.231   7.098 127.899  0.00  0.00    +0.000 C 
ATOM     13  N   UNL     1     -12.662   7.397 129.204  0.00  0.00    +0.000 N 
ATOM     14  C   UNL     1     -12.743   8.760 129.698  0.00  0.00    +0.000 C 
ATOM     15  C   UNL     1     -12.061   6.338 129.887  0.00  0.00    +0.000 C 
ATOM     16  O   UNL     1     -12.006   5.211 129.435  0.00  0.00    +0.000 OA
ENDBRANCH  11  15
ENDBRANCH   1  11
TORSDOF 3
ENDMDL
MODEL 3
REMARK VINA RESULT:      -5.7      1.685      5.913
REMARK  Name = Neostigmine
REMARK  8 active torsions:
REMARK  status: ('A' for Active; 'I' for Inactive)
REMARK    1  A    between atoms: C_1  and  N_2
REMARK    2  A    between atoms: N_2  and  C_3
REMARK    3  A    between atoms: C_4  and  O_6
REMARK    4  A    between atoms: O_6  and  C_7
REMARK    5  A    between atoms: C_9  and  N_13
REMARK    6  A    between atoms: N_13  and  C_14
REMARK    7  A    between atoms: N_13  and  C_15
REMARK    8  A    between atoms: N_13  and  C_16
REMARK                            x       y       z     vdW  Elec       q    Type
REMARK                         _______ _______ _______ _____ _____    ______ ____
ROOT
ATOM      1  C   UNL     1      -8.643   6.759 130.987  0.00  0.00    +0.000 A 
ATOM      2  C   UNL     1      -9.496   7.256 129.983  0.00  0.00    +0.000 A 
ATOM      3  C   UNL     1     -10.925   7.373 130.085  0.00  0.00    +0.000 A 
ATOM      4  C   UNL     1     -11.394   6.619 131.187  0.00  0.00    +0.000 A 
ATOM      5  C   UNL     1     -10.556   6.094 132.198  0.00  0.00    +0.000 A 
ATOM      6  C   UNL     1      -9.180   6.216 132.126  0.00  0.00    +0.000 A 
ENDROOT
BRANCH   3   7
ATOM      7  N   UNL     1     -11.889   7.799 128.824  0.00  0.00    +0.000 NA
ATOM      8  C   UNL     1     -12.610   7.193 127.334  0.00  0.00    +0.000 C 
ATOM      9  C   UNL     1     -13.174   7.100 129.296  0.00  0.00    +0.000 C 
ATOM     10  C   UNL     1     -10.834   8.324 127.733  0.00  0.00    +0.000 C 
ENDBRANCH   3   7
BRANCH   1  11
ATOM     11  O   UNL     1      -7.245   6.917 130.781  0.00  0.00    +0.000 OA
BRANCH  11  15
ATOM     12  C   UNL     1      -4.692   4.287 131.138  0.00  0.00    +0.000 C 
ATOM     13  N   UNL     1      -5.534   5.438 131.423  0.00  0.00    +0.000 N 
ATOM     14  C   UNL     1      -5.358   6.127 132.688  0.00  0.00    +0.000 C 
ATOM     15  C   UNL     1      -6.469   5.791 130.448  0.00  0.00    +0.000 C 
ATOM     16  O   UNL     1      -6.591   5.182 129.403  0.00  0.00    +0.000 OA
ENDBRANCH  11  15
ENDBRANCH   1  11
TORSDOF 3
ENDMDL
MODEL 4
REMARK VINA RESULT:      -5.6      2.357      3.144
REMARK  Name = Neostigmine
REMARK  8 active torsions:
REMARK  status: ('A' for Active; 'I' for Inactive)
REMARK    1  A    between atoms: C_1  and  N_2
REMARK    2  A    between atoms: N_2  and  C_3
REMARK    3  A    between atoms: C_4  and  O_6
REMARK    4  A    between atoms: O_6  and  C_7
REMARK    5  A    between atoms: C_9  and  N_13
REMARK    6  A    between atoms: N_13  and  C_14
REMARK    7  A    between atoms: N_13  and  C_15
REMARK    8  A    between atoms: N_13  and  C_16
REMARK                            x       y       z     vdW  Elec       q    Type
REMARK                         _______ _______ _______ _____ _____    ______ ____
ROOT
ATOM      1  C   UNL     1     -10.216   5.925 130.151  0.00  0.00    +0.000 A 
ATOM      2  C   UNL     1     -10.142   4.743 130.912  0.00  0.00    +0.000 A 
ATOM      3  C   UNL     1      -9.280   4.532 132.043  0.00  0.00    +0.000 A 
ATOM      4  C   UNL     1      -8.285   5.537 132.086  0.00  0.00    +0.000 A 
ATOM      5  C   UNL     1      -8.328   6.724 131.319  0.00  0.00    +0.000 A 
ATOM      6  C   UNL     1      -9.329   6.943 130.390  0.00  0.00    +0.000 A 
ENDROOT
BRANCH   3   7
ATOM      7  N   UNL     1      -9.109   3.078 132.789  0.00  0.00    +0.000 NA
ATOM      8  C   UNL     1      -8.072   1.656 132.884  0.00  0.00    +0.000 C 
ATOM      9  C   UNL     1      -8.021   3.485 133.795  0.00  0.00    +0.000 C 
ATOM     10  C   UNL     1      -9.866   2.075 131.790  0.00  0.00    +0.000 C 
ENDBRANCH   3   7
BRANCH   1  11
ATOM     11  O   UNL     1     -11.274   6.017 129.206  0.00  0.00    +0.000 OA
BRANCH  11  15
ATOM     12  C   UNL     1     -13.156   9.112 128.537  0.00  0.00    +0.000 C 
ATOM     13  N   UNL     1     -12.178   8.041 128.422  0.00  0.00    +0.000 N 
ATOM     14  C   UNL     1     -11.210   8.102 127.342  0.00  0.00    +0.000 C 
ATOM     15  C   UNL     1     -12.253   7.016 129.367  0.00  0.00    +0.000 C 
ATOM     16  O   UNL     1     -13.085   6.997 130.252  0.00  0.00    +0.000 OA
ENDBRANCH  11  15
ENDBRANCH   1  11
TORSDOF 3
ENDMDL
MODEL 5
REMARK VINA RESULT:      -5.4      8.832      9.830
REMARK  Name = Neostigmine
REMARK  8 active torsions:
REMARK  status: ('A' for Active; 'I' for Inactive)
REMARK    1  A    between atoms: C_1  and  N_2
REMARK    2  A    between atoms: N_2  and  C_3
REMARK    3  A    between atoms: C_4  and  O_6
REMARK    4  A    between atoms: O_6  and  C_7
REMARK    5  A    between atoms: C_9  and  N_13
REMARK    6  A    between atoms: N_13  and  C_14
REMARK    7  A    between atoms: N_13  and  C_15
REMARK    8  A    between atoms: N_13  and  C_16
REMARK                            x       y       z     vdW  Elec       q    Type
REMARK                         _______ _______ _______ _____ _____    ______ ____
ROOT
ATOM      1  C   UNL     1      -7.985   2.019 123.723  0.00  0.00    +0.000 A 
ATOM      2  C   UNL     1      -7.441   0.737 123.516  0.00  0.00    +0.000 A 
ATOM      3  C   UNL     1      -8.029  -0.500 123.952  0.00  0.00    +0.000 A 
ATOM      4  C   UNL     1      -9.049  -0.241 124.900  0.00  0.00    +0.000 A 
ATOM      5  C   UNL     1      -9.598   1.039 125.138  0.00  0.00    +0.000 A 
ATOM      6  C   UNL     1      -9.103   2.163 124.503  0.00  0.00    +0.000 A 
ENDROOT
BRANCH   3   7
ATOM      7  N   UNL     1      -7.270  -1.952 123.836  0.00  0.00    +0.000 NA
ATOM      8  C   UNL     1      -5.808  -2.819 124.301  0.00  0.00    +0.000 C 
ATOM      9  C   UNL     1      -7.583  -2.467 125.250  0.00  0.00    +0.000 C 
ATOM     10  C   UNL     1      -6.374  -1.779 122.515  0.00  0.00    +0.000 C 
ENDBRANCH   3   7
BRANCH   1  11
ATOM     11  O   UNL     1      -7.366   3.099 123.036  0.00  0.00    +0.000 OA
BRANCH  11  15
ATOM     12  C   UNL     1      -7.111   4.214 119.536  0.00  0.00    +0.000 C 
ATOM     13  N   UNL     1      -6.751   3.870 120.902  0.00  0.00    +0.000 N 
ATOM     14  C   UNL     1      -5.366   4.019 121.311  0.00  0.00    +0.000 C 
ATOM     15  C   UNL     1      -7.779   3.406 121.726  0.00  0.00    +0.000 C 
ATOM     16  O   UNL     1      -8.926   3.287 121.343  0.00  0.00    +0.000 OA
ENDBRANCH  11  15
ENDBRANCH   1  11
TORSDOF 3
ENDMDL
MODEL 6
REMARK VINA RESULT:      -5.4     10.333     11.756
REMARK  Name = Neostigmine
REMARK  8 active torsions:
REMARK  status: ('A' for Active; 'I' for Inactive)
REMARK    1  A    between atoms: C_1  and  N_2
REMARK    2  A    between atoms: N_2  and  C_3
REMARK    3  A    between atoms: C_4  and  O_6
REMARK    4  A    between atoms: O_6  and  C_7
REMARK    5  A    between atoms: C_9  and  N_13
REMARK    6  A    between atoms: N_13  and  C_14
REMARK    7  A    between atoms: N_13  and  C_15
REMARK    8  A    between atoms: N_13  and  C_16
REMARK                            x       y       z     vdW  Elec       q    Type
REMARK                         _______ _______ _______ _____ _____    ______ ____
ROOT
ATOM      1  C   UNL     1      -7.163  -2.891 128.775  0.00  0.00    +0.000 A 
ATOM      2  C   UNL     1      -6.708  -2.433 127.524  0.00  0.00    +0.000 A 
ATOM      3  C   UNL     1      -7.453  -2.481 126.296  0.00  0.00    +0.000 A 
ATOM      4  C   UNL     1      -8.565  -3.347 126.440  0.00  0.00    +0.000 A 
ATOM      5  C   UNL     1      -9.029  -3.834 127.683  0.00  0.00    +0.000 A 
ATOM      6  C   UNL     1      -8.358  -3.556 128.860  0.00  0.00    +0.000 A 
ENDROOT
BRANCH   3   7
ATOM      7  N   UNL     1      -6.813  -2.091 124.834  0.00  0.00    +0.000 NA
ATOM      8  C   UNL     1      -5.622  -2.596 123.638  0.00  0.00    +0.000 C 
ATOM      9  C   UNL     1      -7.561  -3.136 123.992  0.00  0.00    +0.000 C 
ATOM     10  C   UNL     1      -5.564  -1.164 125.231  0.00  0.00    +0.000 C 
ENDBRANCH   3   7
BRANCH   1  11
ATOM     11  O   UNL     1      -6.367  -2.566 129.908  0.00  0.00    +0.000 OA
BRANCH  11  15
ATOM     12  C   UNL     1      -5.620  -4.797 132.741  0.00  0.00    +0.000 C 
ATOM     13  N   UNL     1      -6.225  -3.749 131.935  0.00  0.00    +0.000 N 
ATOM     14  C   UNL     1      -7.277  -2.943 132.526  0.00  0.00    +0.000 C 
ATOM     15  C   UNL     1      -5.747  -3.603 130.631  0.00  0.00    +0.000 C 
ATOM     16  O   UNL     1      -4.869  -4.305 130.170  0.00  0.00    +0.000 OA
ENDBRANCH  11  15
ENDBRANCH   1  11
TORSDOF 3
ENDMDL
MODEL 7
REMARK VINA RESULT:      -5.3      9.086      9.905
REMARK  Name = Neostigmine
REMARK  8 active torsions:
REMARK  status: ('A' for Active; 'I' for Inactive)
REMARK    1  A    between atoms: C_1  and  N_2
REMARK    2  A    between atoms: N_2  and  C_3
REMARK    3  A    between atoms: C_4  and  O_6
REMARK    4  A    between atoms: O_6  and  C_7
REMARK    5  A    between atoms: C_9  and  N_13
REMARK    6  A    between atoms: N_13  and  C_14
REMARK    7  A    between atoms: N_13  and  C_15
REMARK    8  A    between atoms: N_13  and  C_16
REMARK                            x       y       z     vdW  Elec       q    Type
REMARK                         _______ _______ _______ _____ _____    ______ ____
ROOT
ATOM      1  C   UNL     1      -8.207  -0.959 123.727  0.00  0.00    +0.000 A 
ATOM      2  C   UNL     1      -7.803  -1.330 125.024  0.00  0.00    +0.000 A 
ATOM      3  C   UNL     1      -7.948  -2.638 125.600  0.00  0.00    +0.000 A 
ATOM      4  C   UNL     1      -8.845  -3.411 124.824  0.00  0.00    +0.000 A 
ATOM      5  C   UNL     1      -9.280  -3.050 123.528  0.00  0.00    +0.000 A 
ATOM      6  C   UNL     1      -8.911  -1.847 122.956  0.00  0.00    +0.000 A 
ENDROOT
BRANCH   3   7
ATOM      7  N   UNL     1      -7.616  -2.974 127.174  0.00  0.00    +0.000 NA
ATOM      8  C   UNL     1      -7.997  -2.497 128.827  0.00  0.00    +0.000 C 
ATOM      9  C   UNL     1      -8.897  -3.759 127.496  0.00  0.00    +0.000 C 
ATOM     10  C   UNL     1      -6.397  -1.982 127.499  0.00  0.00    +0.000 C 
ENDBRANCH   3   7
BRANCH   1  11
ATOM     11  O   UNL     1      -7.790   0.319 123.264  0.00  0.00    +0.000 OA
BRANCH  11  15
ATOM     12  C   UNL     1      -8.382   3.525 124.977  0.00  0.00    +0.000 C 
ATOM     13  N   UNL     1      -7.722   2.324 124.490  0.00  0.00    +0.000 N 
ATOM     14  C   UNL     1      -6.332   2.106 124.847  0.00  0.00    +0.000 C 
ATOM     15  C   UNL     1      -8.484   1.466 123.695  0.00  0.00    +0.000 C 
ATOM     16  O   UNL     1      -9.645   1.689 123.411  0.00  0.00    +0.000 OA
ENDBRANCH  11  15
ENDBRANCH   1  11
TORSDOF 3
ENDMDL
MODEL 8
REMARK VINA RESULT:      -5.3      9.148     10.506
REMARK  Name = Neostigmine
REMARK  8 active torsions:
REMARK  status: ('A' for Active; 'I' for Inactive)
REMARK    1  A    between atoms: C_1  and  N_2
REMARK    2  A    between atoms: N_2  and  C_3
REMARK    3  A    between atoms: C_4  and  O_6
REMARK    4  A    between atoms: O_6  and  C_7
REMARK    5  A    between atoms: C_9  and  N_13
REMARK    6  A    between atoms: N_13  and  C_14
REMARK    7  A    between atoms: N_13  and  C_15
REMARK    8  A    between atoms: N_13  and  C_16
REMARK                            x       y       z     vdW  Elec       q    Type
REMARK                         _______ _______ _______ _____ _____    ______ ____
ROOT
ATOM      1  C   UNL     1      -7.773   0.648 123.785  0.00  0.00    +0.000 A 
ATOM      2  C   UNL     1      -6.959   1.690 123.301  0.00  0.00    +0.000 A 
ATOM      3  C   UNL     1      -7.430   2.897 122.680  0.00  0.00    +0.000 A 
ATOM      4  C   UNL     1      -8.792   2.754 122.319  0.00  0.00    +0.000 A 
ATOM      5  C   UNL     1      -9.624   1.708 122.777  0.00  0.00    +0.000 A 
ATOM      6  C   UNL     1      -9.125   0.684 123.561  0.00  0.00    +0.000 A 
ENDROOT
BRANCH   3   7
ATOM      7  N   UNL     1      -6.435   4.001 121.979  0.00  0.00    +0.000 NA
ATOM      8  C   UNL     1      -4.965   4.165 121.021  0.00  0.00    +0.000 C 
ATOM      9  C   UNL     1      -6.921   3.834 120.531  0.00  0.00    +0.000 C 
ATOM     10  C   UNL     1      -5.346   4.275 123.127  0.00  0.00    +0.000 C 
ENDBRANCH   3   7
BRANCH   1  11
ATOM     11  O   UNL     1      -7.134  -0.364 124.553  0.00  0.00    +0.000 OA
BRANCH  11  15
ATOM     12  C   UNL     1      -8.141  -3.903 124.705  0.00  0.00    +0.000 C 
ATOM     13  N   UNL     1      -7.982  -2.500 125.051  0.00  0.00    +0.000 N 
ATOM     14  C   UNL     1      -8.585  -2.018 126.280  0.00  0.00    +0.000 C 
ATOM     15  C   UNL     1      -7.259  -1.709 124.156  0.00  0.00    +0.000 C 
ATOM     16  O   UNL     1      -6.777  -2.149 123.131  0.00  0.00    +0.000 OA
ENDBRANCH  11  15
ENDBRANCH   1  11
TORSDOF 3
ENDMDL
MODEL 9
REMARK VINA RESULT:      -5.3      9.011      9.489
REMARK  Name = Neostigmine
REMARK  8 active torsions:
REMARK  status: ('A' for Active; 'I' for Inactive)
REMARK    1  A    between atoms: C_1  and  N_2
REMARK    2  A    between atoms: N_2  and  C_3
REMARK    3  A    between atoms: C_4  and  O_6
REMARK    4  A    between atoms: O_6  and  C_7
REMARK    5  A    between atoms: C_9  and  N_13
REMARK    6  A    between atoms: N_13  and  C_14
REMARK    7  A    between atoms: N_13  and  C_15
REMARK    8  A    between atoms: N_13  and  C_16
REMARK                            x       y       z     vdW  Elec       q    Type
REMARK                         _______ _______ _______ _____ _____    ______ ____
ROOT
ATOM      1  C   UNL     1      -8.125  -2.039 126.720  0.00  0.00    +0.000 A 
ATOM      2  C   UNL     1      -7.647  -1.599 127.969  0.00  0.00    +0.000 A 
ATOM      3  C   UNL     1      -7.665  -2.365 129.185  0.00  0.00    +0.000 A 
ATOM      4  C   UNL     1      -8.522  -3.482 129.040  0.00  0.00    +0.000 A 
ATOM      5  C   UNL     1      -9.028  -3.932 127.799  0.00  0.00    +0.000 A 
ATOM      6  C   UNL     1      -8.780  -3.240 126.628  0.00  0.00    +0.000 A 
ENDROOT
BRANCH   3   7
ATOM      7  N   UNL     1      -7.253  -1.744 130.650  0.00  0.00    +0.000 NA
ATOM      8  C   UNL     1      -7.725  -1.707 132.347  0.00  0.00    +0.000 C 
ATOM      9  C   UNL     1      -6.603  -3.006 131.238  0.00  0.00    +0.000 C 
ATOM     10  C   UNL     1      -8.098  -0.380 130.706  0.00  0.00    +0.000 C 
ENDBRANCH   3   7
BRANCH   1  11
ATOM     11  O   UNL     1      -7.830  -1.222 125.594  0.00  0.00    +0.000 OA
BRANCH  11  15
ATOM     12  C   UNL     1      -9.827  -0.506 122.583  0.00  0.00    +0.000 C 
ATOM     13  N   UNL     1      -8.769  -1.002 123.450  0.00  0.00    +0.000 N 
ATOM     14  C   UNL     1      -7.682  -1.755 122.852  0.00  0.00    +0.000 C 
ATOM     15  C   UNL     1      -8.889  -0.722 124.812  0.00  0.00    +0.000 C 
ATOM     16  O   UNL     1      -9.822  -0.096 125.276  0.00  0.00    +0.000 OA
ENDBRANCH  11  15
ENDBRANCH   1  11
TORSDOF 3
ENDMDL
