MODEL 1
REMARK VINA RESULT:      -7.1      0.000      0.000
REMARK  Name = Nepafenac
REMARK  5 active torsions:
REMARK  status: ('A' for Active; 'I' for Inactive)
REMARK    1  A    between atoms: C_2  and  C_4
REMARK    2  A    between atoms: C_4  and  C_5
REMARK    3  A    between atoms: C_9  and  C_10
REMARK    4  A    between atoms: C_10  and  C_12
REMARK    5  A    between atoms: C_18  and  N_19
REMARK                            x       y       z     vdW  Elec       q    Type
REMARK                         _______ _______ _______ _____ _____    ______ ____
ROOT
ATOM      1  C   UNL     1      -8.094   5.818 132.434  0.00  0.00    +0.000 A 
ATOM      2  C   UNL     1      -7.338   6.536 131.487  0.00  0.00    +0.000 A 
ATOM      3  C   UNL     1      -7.954   7.221 130.447  0.00  0.00    +0.000 A 
ATOM      4  C   UNL     1      -9.343   7.252 130.377  0.00  0.00    +0.000 A 
ATOM      5  C   UNL     1     -10.136   6.586 131.338  0.00  0.00    +0.000 A 
ATOM      6  C   UNL     1      -9.506   5.822 132.359  0.00  0.00    +0.000 A 
ENDROOT
BRANCH   6   7
ATOM      7  N   UNL     1     -10.215   5.093 133.306  0.00  0.00    +0.000 N 
ATOM      8  H   UNL     1     -10.512   5.516 134.171  0.00  0.00    +0.000 HD
ATOM      9  H   UNL     1     -10.636   4.199 133.129  0.00  0.00    +0.000 HD
ENDBRANCH   6   7
BRANCH   5  10
ATOM     10  C   UNL     1     -11.627   6.745 131.178  0.00  0.00    +0.000 C 
ATOM     11  O   UNL     1     -12.398   6.417 132.081  0.00  0.00    +0.000 OA
BRANCH  10  12
ATOM     12  C   UNL     1     -12.246   7.295 129.951  0.00  0.00    +0.000 A 
ATOM     13  C   UNL     1     -12.732   6.415 128.977  0.00  0.00    +0.000 A 
ATOM     14  C   UNL     1     -13.377   6.926 127.848  0.00  0.00    +0.000 A 
ATOM     15  C   UNL     1     -13.635   8.295 127.745  0.00  0.00    +0.000 A 
ATOM     16  C   UNL     1     -13.187   9.167 128.736  0.00  0.00    +0.000 A 
ATOM     17  C   UNL     1     -12.442   8.677 129.810  0.00  0.00    +0.000 A 
ENDBRANCH  10  12
ENDBRANCH   5  10
BRANCH   1  18
ATOM     18  C   UNL     1      -7.350   5.024 133.492  0.00  0.00    +0.000 C 
BRANCH  18  20
ATOM     19  N   UNL     1      -6.145   3.157 132.503  0.00  0.00    +0.000 N 
ATOM     20  C   UNL     1      -7.254   3.540 133.194  0.00  0.00    +0.000 C 
ATOM     21  O   UNL     1      -8.077   2.687 133.527  0.00  0.00    +0.000 OA
ATOM     22  H   UNL     1      -6.064   2.168 132.308  0.00  0.00    +0.000 HD
ATOM     23  H   UNL     1      -5.393   3.777 132.240  0.00  0.00    +0.000 HD
ENDBRANCH  18  20
ENDBRANCH   1  18
TORSDOF 5
ENDMDL
MODEL 2
REMARK VINA RESULT:      -7.1      1.785      1.896
REMARK  Name = Nepafenac
REMARK  5 active torsions:
REMARK  status: ('A' for Active; 'I' for Inactive)
REMARK    1  A    between atoms: C_2  and  C_4
REMARK    2  A    between atoms: C_4  and  C_5
REMARK    3  A    between atoms: C_9  and  C_10
REMARK    4  A    between atoms: C_10  and  C_12
REMARK    5  A    between atoms: C_18  and  N_19
REMARK                            x       y       z     vdW  Elec       q    Type
REMARK                         _______ _______ _______ _____ _____    ______ ____
ROOT
ATOM      1  C   UNL     1      -8.949   4.020 130.771  0.00  0.00    +0.000 A 
ATOM      2  C   UNL     1      -7.864   4.910 130.903  0.00  0.00    +0.000 A 
ATOM      3  C   UNL     1      -8.065   6.282 130.972  0.00  0.00    +0.000 A 
ATOM      4  C   UNL     1      -9.364   6.783 130.977  0.00  0.00    +0.000 A 
ATOM      5  C   UNL     1     -10.478   5.919 130.898  0.00  0.00    +0.000 A 
ATOM      6  C   UNL     1     -10.271   4.519 130.750  0.00  0.00    +0.000 A 
ENDROOT
BRANCH   6   7
ATOM      7  N   UNL     1     -11.313   3.611 130.609  0.00  0.00    +0.000 N 
ATOM      8  H   UNL     1     -12.218   3.792 131.013  0.00  0.00    +0.000 HD
ATOM      9  H   UNL     1     -11.306   2.841 129.964  0.00  0.00    +0.000 HD
ENDBRANCH   6   7
BRANCH   5  10
ATOM     10  C   UNL     1     -11.829   6.586 130.968  0.00  0.00    +0.000 C 
ATOM     11  O   UNL     1     -12.494   6.559 132.003  0.00  0.00    +0.000 OA
BRANCH  10  12
ATOM     12  C   UNL     1     -12.428   7.303 129.819  0.00  0.00    +0.000 A 
ATOM     13  C   UNL     1     -13.036   6.567 128.796  0.00  0.00    +0.000 A 
ATOM     14  C   UNL     1     -13.662   7.238 127.743  0.00  0.00    +0.000 A 
ATOM     15  C   UNL     1     -13.777   8.630 127.767  0.00  0.00    +0.000 A 
ATOM     16  C   UNL     1     -13.207   9.361 128.808  0.00  0.00    +0.000 A 
ATOM     17  C   UNL     1     -12.482   8.704 129.804  0.00  0.00    +0.000 A 
ENDBRANCH  10  12
ENDBRANCH   5  10
BRANCH   1  18
ATOM     18  C   UNL     1      -8.648   2.541 130.616  0.00  0.00    +0.000 C 
BRANCH  18  20
ATOM     19  N   UNL     1      -8.155   1.822 132.886  0.00  0.00    +0.000 N 
ATOM     20  C   UNL     1      -9.008   1.708 131.831  0.00  0.00    +0.000 C 
ATOM     21  O   UNL     1      -9.986   0.967 131.928  0.00  0.00    +0.000 OA
ATOM     22  H   UNL     1      -8.391   1.281 133.707  0.00  0.00    +0.000 HD
ATOM     23  H   UNL     1      -7.363   2.448 132.916  0.00  0.00    +0.000 HD
ENDBRANCH  18  20
ENDBRANCH   1  18
TORSDOF 5
ENDMDL
MODEL 3
REMARK VINA RESULT:      -7.1      2.261      2.335
REMARK  Name = Nepafenac
REMARK  5 active torsions:
REMARK  status: ('A' for Active; 'I' for Inactive)
REMARK    1  A    between atoms: C_2  and  C_4
REMARK    2  A    between atoms: C_4  and  C_5
REMARK    3  A    between atoms: C_9  and  C_10
REMARK    4  A    between atoms: C_10  and  C_12
REMARK    5  A    between atoms: C_18  and  N_19
REMARK                            x       y       z     vdW  Elec       q    Type
REMARK                         _______ _______ _______ _____ _____    ______ ____
ROOT
ATOM      1  C   UNL     1      -8.777   4.160 130.763  0.00  0.00    +0.000 A 
ATOM      2  C   UNL     1      -7.730   5.096 130.876  0.00  0.00    +0.000 A 
ATOM      3  C   UNL     1      -7.988   6.459 130.931  0.00  0.00    +0.000 A 
ATOM      4  C   UNL     1      -9.306   6.906 130.941  0.00  0.00    +0.000 A 
ATOM      5  C   UNL     1     -10.384   5.994 130.882  0.00  0.00    +0.000 A 
ATOM      6  C   UNL     1     -10.119   4.603 130.748  0.00  0.00    +0.000 A 
ENDROOT
BRANCH   6   7
ATOM      7  N   UNL     1     -11.123   3.650 130.626  0.00  0.00    +0.000 N 
ATOM      8  H   UNL     1     -11.995   3.747 131.122  0.00  0.00    +0.000 HD
ATOM      9  H   UNL     1     -11.137   2.934 129.923  0.00  0.00    +0.000 HD
ENDBRANCH   6   7
BRANCH   5  10
ATOM     10  C   UNL     1     -11.761   6.605 130.956  0.00  0.00    +0.000 C 
ATOM     11  O   UNL     1     -12.418   6.557 131.996  0.00  0.00    +0.000 OA
BRANCH  10  12
ATOM     12  C   UNL     1     -12.397   7.287 129.806  0.00  0.00    +0.000 A 
ATOM     13  C   UNL     1     -13.027   6.520 128.819  0.00  0.00    +0.000 A 
ATOM     14  C   UNL     1     -13.686   7.160 127.767  0.00  0.00    +0.000 A 
ATOM     15  C   UNL     1     -13.813   8.551 127.758  0.00  0.00    +0.000 A 
ATOM     16  C   UNL     1     -13.221   9.313 128.765  0.00  0.00    +0.000 A 
ATOM     17  C   UNL     1     -12.464   8.687 129.757  0.00  0.00    +0.000 A 
ENDBRANCH  10  12
ENDBRANCH   5  10
BRANCH   1  18
ATOM     18  C   UNL     1      -8.415   2.693 130.622  0.00  0.00    +0.000 C 
BRANCH  18  20
ATOM     19  N   UNL     1      -7.035   1.768 128.846  0.00  0.00    +0.000 N 
ATOM     20  C   UNL     1      -8.270   2.230 129.185  0.00  0.00    +0.000 C 
ATOM     21  O   UNL     1      -9.161   2.238 128.336  0.00  0.00    +0.000 OA
ATOM     22  H   UNL     1      -6.928   1.445 127.894  0.00  0.00    +0.000 HD
ATOM     23  H   UNL     1      -6.264   1.672 129.491  0.00  0.00    +0.000 HD
ENDBRANCH  18  20
ENDBRANCH   1  18
TORSDOF 5
ENDMDL
MODEL 4
REMARK VINA RESULT:      -6.7      2.711      6.944
REMARK  Name = Nepafenac
REMARK  5 active torsions:
REMARK  status: ('A' for Active; 'I' for Inactive)
REMARK    1  A    between atoms: C_2  and  C_4
REMARK    2  A    between atoms: C_4  and  C_5
REMARK    3  A    between atoms: C_9  and  C_10
REMARK    4  A    between atoms: C_10  and  C_12
REMARK    5  A    between atoms: C_18  and  N_19
REMARK                            x       y       z     vdW  Elec       q    Type
REMARK                         _______ _______ _______ _____ _____    ______ ____
ROOT
ATOM      1  C   UNL     1      -9.463   6.827 130.941  0.00  0.00    +0.000 A 
ATOM      2  C   UNL     1      -8.187   7.206 130.481  0.00  0.00    +0.000 A 
ATOM      3  C   UNL     1      -7.041   6.888 131.198  0.00  0.00    +0.000 A 
ATOM      4  C   UNL     1      -7.149   6.126 132.357  0.00  0.00    +0.000 A 
ATOM      5  C   UNL     1      -8.408   5.683 132.822  0.00  0.00    +0.000 A 
ATOM      6  C   UNL     1      -9.588   6.072 132.130  0.00  0.00    +0.000 A 
ENDROOT
BRANCH   6   7
ATOM      7  N   UNL     1     -10.864   5.726 132.556  0.00  0.00    +0.000 N 
ATOM      8  H   UNL     1     -11.464   5.152 131.986  0.00  0.00    +0.000 HD
ATOM      9  H   UNL     1     -11.196   5.845 133.496  0.00  0.00    +0.000 HD
ENDBRANCH   6   7
BRANCH   5  10
ATOM     10  C   UNL     1      -8.380   4.819 134.058  0.00  0.00    +0.000 C 
ATOM     11  O   UNL     1      -9.126   3.845 134.165  0.00  0.00    +0.000 OA
BRANCH  10  12
ATOM     12  C   UNL     1      -7.472   5.081 135.198  0.00  0.00    +0.000 A 
ATOM     13  C   UNL     1      -7.807   6.076 136.124  0.00  0.00    +0.000 A 
ATOM     14  C   UNL     1      -6.989   6.282 137.238  0.00  0.00    +0.000 A 
ATOM     15  C   UNL     1      -5.909   5.431 137.485  0.00  0.00    +0.000 A 
ATOM     16  C   UNL     1      -5.601   4.414 136.583  0.00  0.00    +0.000 A 
ATOM     17  C   UNL     1      -6.345   4.274 135.411  0.00  0.00    +0.000 A 
ENDBRANCH  10  12
ENDBRANCH   5  10
BRANCH   1  18
ATOM     18  C   UNL     1     -10.675   7.283 130.150  0.00  0.00    +0.000 C 
BRANCH  18  20
ATOM     19  N   UNL     1     -10.601   8.716 128.187  0.00  0.00    +0.000 N 
ATOM     20  C   UNL     1     -10.413   7.455 128.667  0.00  0.00    +0.000 C 
ATOM     21  O   UNL     1     -10.049   6.569 127.895  0.00  0.00    +0.000 OA
ATOM     22  H   UNL     1     -10.418   8.847 127.201  0.00  0.00    +0.000 HD
ATOM     23  H   UNL     1     -10.842   9.514 128.757  0.00  0.00    +0.000 HD
ENDBRANCH  18  20
ENDBRANCH   1  18
TORSDOF 5
ENDMDL
MODEL 5
REMARK VINA RESULT:      -6.6      9.227      9.896
REMARK  Name = Nepafenac
REMARK  5 active torsions:
REMARK  status: ('A' for Active; 'I' for Inactive)
REMARK    1  A    between atoms: C_2  and  C_4
REMARK    2  A    between atoms: C_4  and  C_5
REMARK    3  A    between atoms: C_9  and  C_10
REMARK    4  A    between atoms: C_10  and  C_12
REMARK    5  A    between atoms: C_18  and  N_19
REMARK                            x       y       z     vdW  Elec       q    Type
REMARK                         _______ _______ _______ _____ _____    ______ ____
ROOT
ATOM      1  C   UNL     1      -7.041  -0.728 124.929  0.00  0.00    +0.000 A 
ATOM      2  C   UNL     1      -6.000  -0.424 125.829  0.00  0.00    +0.000 A 
ATOM      3  C   UNL     1      -5.535   0.876 125.976  0.00  0.00    +0.000 A 
ATOM      4  C   UNL     1      -6.151   1.906 125.272  0.00  0.00    +0.000 A 
ATOM      5  C   UNL     1      -7.231   1.647 124.399  0.00  0.00    +0.000 A 
ATOM      6  C   UNL     1      -7.658   0.307 124.190  0.00  0.00    +0.000 A 
ENDROOT
BRANCH   6   7
ATOM      7  N   UNL     1      -8.674  -0.034 123.306  0.00  0.00    +0.000 N 
ATOM      8  H   UNL     1      -9.640  -0.022 123.594  0.00  0.00    +0.000 HD
ATOM      9  H   UNL     1      -8.551  -0.122 122.313  0.00  0.00    +0.000 HD
ENDBRANCH   6   7
BRANCH   5  10
ATOM     10  C   UNL     1      -7.843   2.859 123.740  0.00  0.00    +0.000 C 
ATOM     11  O   UNL     1      -8.613   3.593 124.359  0.00  0.00    +0.000 OA
BRANCH  10  12
ATOM     12  C   UNL     1      -7.561   3.232 122.336  0.00  0.00    +0.000 A 
ATOM     13  C   UNL     1      -8.630   3.476 121.465  0.00  0.00    +0.000 A 
ATOM     14  C   UNL     1      -8.371   3.894 120.158  0.00  0.00    +0.000 A 
ATOM     15  C   UNL     1      -7.063   4.176 119.756  0.00  0.00    +0.000 A 
ATOM     16  C   UNL     1      -6.002   3.974 120.637  0.00  0.00    +0.000 A 
ATOM     17  C   UNL     1      -6.243   3.447 121.907  0.00  0.00    +0.000 A 
ENDBRANCH  10  12
ENDBRANCH   5  10
BRANCH   1  18
ATOM     18  C   UNL     1      -7.439  -2.183 124.758  0.00  0.00    +0.000 C 
BRANCH  18  20
ATOM     19  N   UNL     1      -8.400  -3.134 126.779  0.00  0.00    +0.000 N 
ATOM     20  C   UNL     1      -8.661  -2.585 125.560  0.00  0.00    +0.000 C 
ATOM     21  O   UNL     1      -9.830  -2.450 125.202  0.00  0.00    +0.000 OA
ATOM     22  H   UNL     1      -9.207  -3.396 127.329  0.00  0.00    +0.000 HD
ATOM     23  H   UNL     1      -7.477  -3.230 127.177  0.00  0.00    +0.000 HD
ENDBRANCH  18  20
ENDBRANCH   1  18
TORSDOF 5
ENDMDL
MODEL 6
REMARK VINA RESULT:      -6.6      2.037      2.568
REMARK  Name = Nepafenac
REMARK  5 active torsions:
REMARK  status: ('A' for Active; 'I' for Inactive)
REMARK    1  A    between atoms: C_2  and  C_4
REMARK    2  A    between atoms: C_4  and  C_5
REMARK    3  A    between atoms: C_9  and  C_10
REMARK    4  A    between atoms: C_10  and  C_12
REMARK    5  A    between atoms: C_18  and  N_19
REMARK                            x       y       z     vdW  Elec       q    Type
REMARK                         _______ _______ _______ _____ _____    ______ ____
ROOT
ATOM      1  C   UNL     1      -7.853   5.383 133.389  0.00  0.00    +0.000 A 
ATOM      2  C   UNL     1      -6.808   6.144 132.828  0.00  0.00    +0.000 A 
ATOM      3  C   UNL     1      -6.873   6.594 131.516  0.00  0.00    +0.000 A 
ATOM      4  C   UNL     1      -8.017   6.345 130.763  0.00  0.00    +0.000 A 
ATOM      5  C   UNL     1      -9.106   5.629 131.308  0.00  0.00    +0.000 A 
ATOM      6  C   UNL     1      -9.010   5.102 132.626  0.00  0.00    +0.000 A 
ENDROOT
BRANCH   6   7
ATOM      7  N   UNL     1     -10.013   4.341 133.212  0.00  0.00    +0.000 N 
ATOM      8  H   UNL     1     -10.838   4.775 133.595  0.00  0.00    +0.000 HD
ATOM      9  H   UNL     1     -10.086   3.343 133.126  0.00  0.00    +0.000 HD
ENDBRANCH   6   7
BRANCH   5  10
ATOM     10  C   UNL     1     -10.305   5.476 130.405  0.00  0.00    +0.000 C 
ATOM     11  O   UNL     1     -10.670   4.364 130.023  0.00  0.00    +0.000 OA
BRANCH  10  12
ATOM     12  C   UNL     1     -11.101   6.631 129.931  0.00  0.00    +0.000 A 
ATOM     13  C   UNL     1     -12.057   7.198 130.782  0.00  0.00    +0.000 A 
ATOM     14  C   UNL     1     -12.764   8.329 130.366  0.00  0.00    +0.000 A 
ATOM     15  C   UNL     1     -12.441   8.955 129.160  0.00  0.00    +0.000 A 
ATOM     16  C   UNL     1     -11.459   8.414 128.332  0.00  0.00    +0.000 A 
ATOM     17  C   UNL     1     -10.829   7.221 128.688  0.00  0.00    +0.000 A 
ENDBRANCH  10  12
ENDBRANCH   5  10
BRANCH   1  18
ATOM     18  C   UNL     1      -7.676   4.853 134.800  0.00  0.00    +0.000 C 
BRANCH  18  20
ATOM     19  N   UNL     1      -8.447   6.595 136.312  0.00  0.00    +0.000 N 
ATOM     20  C   UNL     1      -7.365   5.926 135.826  0.00  0.00    +0.000 C 
ATOM     21  O   UNL     1      -6.244   6.219 136.240  0.00  0.00    +0.000 OA
ATOM     22  H   UNL     1      -8.254   7.305 137.005  0.00  0.00    +0.000 HD
ATOM     23  H   UNL     1      -9.405   6.383 136.073  0.00  0.00    +0.000 HD
ENDBRANCH  18  20
ENDBRANCH   1  18
TORSDOF 5
ENDMDL
MODEL 7
REMARK VINA RESULT:      -6.5      9.316     11.329
REMARK  Name = Nepafenac
REMARK  5 active torsions:
REMARK  status: ('A' for Active; 'I' for Inactive)
REMARK    1  A    between atoms: C_2  and  C_4
REMARK    2  A    between atoms: C_4  and  C_5
REMARK    3  A    between atoms: C_9  and  C_10
REMARK    4  A    between atoms: C_10  and  C_12
REMARK    5  A    between atoms: C_18  and  N_19
REMARK                            x       y       z     vdW  Elec       q    Type
REMARK                         _______ _______ _______ _____ _____    ______ ____
ROOT
ATOM      1  C   UNL     1      -8.933   1.046 123.425  0.00  0.00    +0.000 A 
ATOM      2  C   UNL     1      -9.840   0.367 122.587  0.00  0.00    +0.000 A 
ATOM      3  C   UNL     1      -9.870  -1.020 122.536  0.00  0.00    +0.000 A 
ATOM      4  C   UNL     1      -9.036  -1.754 123.375  0.00  0.00    +0.000 A 
ATOM      5  C   UNL     1      -8.149  -1.108 124.265  0.00  0.00    +0.000 A 
ATOM      6  C   UNL     1      -8.063   0.312 124.263  0.00  0.00    +0.000 A 
ENDROOT
BRANCH   6   7
ATOM      7  N   UNL     1      -7.177   1.017 125.067  0.00  0.00    +0.000 N 
ATOM      8  H   UNL     1      -6.929   1.971 124.856  0.00  0.00    +0.000 HD
ATOM      9  H   UNL     1      -6.883   0.718 125.979  0.00  0.00    +0.000 HD
ENDBRANCH   6   7
BRANCH   5  10
ATOM     10  C   UNL     1      -7.341  -2.018 125.156  0.00  0.00    +0.000 C 
ATOM     11  O   UNL     1      -6.253  -2.461 124.787  0.00  0.00    +0.000 OA
BRANCH  10  12
ATOM     12  C   UNL     1      -7.797  -2.429 126.504  0.00  0.00    +0.000 A 
ATOM     13  C   UNL     1      -8.648  -3.532 126.632  0.00  0.00    +0.000 A 
ATOM     14  C   UNL     1      -9.028  -3.965 127.904  0.00  0.00    +0.000 A 
ATOM     15  C   UNL     1      -8.474  -3.374 129.042  0.00  0.00    +0.000 A 
ATOM     16  C   UNL     1      -7.593  -2.301 128.914  0.00  0.00    +0.000 A 
ATOM     17  C   UNL     1      -7.299  -1.790 127.649  0.00  0.00    +0.000 A 
ENDBRANCH  10  12
ENDBRANCH   5  10
BRANCH   1  18
ATOM     18  C   UNL     1      -8.898   2.562 123.364  0.00  0.00    +0.000 C 
BRANCH  18  20
ATOM     19  N   UNL     1      -8.491   3.762 121.288  0.00  0.00    +0.000 N 
ATOM     20  C   UNL     1      -7.923   3.115 122.343  0.00  0.00    +0.000 C 
ATOM     21  O   UNL     1      -6.696   3.029 122.402  0.00  0.00    +0.000 OA
ATOM     22  H   UNL     1      -7.851   4.146 120.606  0.00  0.00    +0.000 HD
ATOM     23  H   UNL     1      -9.482   3.930 121.188  0.00  0.00    +0.000 HD
ENDBRANCH  18  20
ENDBRANCH   1  18
TORSDOF 5
ENDMDL
MODEL 8
REMARK VINA RESULT:      -6.5      9.026     10.694
REMARK  Name = Nepafenac
REMARK  5 active torsions:
REMARK  status: ('A' for Active; 'I' for Inactive)
REMARK    1  A    between atoms: C_2  and  C_4
REMARK    2  A    between atoms: C_4  and  C_5
REMARK    3  A    between atoms: C_9  and  C_10
REMARK    4  A    between atoms: C_10  and  C_12
REMARK    5  A    between atoms: C_18  and  N_19
REMARK                            x       y       z     vdW  Elec       q    Type
REMARK                         _______ _______ _______ _____ _____    ______ ____
ROOT
ATOM      1  C   UNL     1      -7.779  -1.930 129.008  0.00  0.00    +0.000 A 
ATOM      2  C   UNL     1      -8.311  -3.170 129.413  0.00  0.00    +0.000 A 
ATOM      3  C   UNL     1      -8.925  -4.019 128.502  0.00  0.00    +0.000 A 
ATOM      4  C   UNL     1      -8.957  -3.670 127.155  0.00  0.00    +0.000 A 
ATOM      5  C   UNL     1      -8.388  -2.458 126.704  0.00  0.00    +0.000 A 
ATOM      6  C   UNL     1      -7.827  -1.553 127.646  0.00  0.00    +0.000 A 
ENDROOT
BRANCH   6   7
ATOM      7  N   UNL     1      -7.300  -0.318 127.288  0.00  0.00    +0.000 N 
ATOM      8  H   UNL     1      -7.840   0.527 127.390  0.00  0.00    +0.000 HD
ATOM      9  H   UNL     1      -6.328  -0.154 127.099  0.00  0.00    +0.000 HD
ENDBRANCH   6   7
BRANCH   5  10
ATOM     10  C   UNL     1      -8.442  -2.227 125.214  0.00  0.00    +0.000 C 
ATOM     11  O   UNL     1      -9.470  -1.816 124.675  0.00  0.00    +0.000 OA
BRANCH  10  12
ATOM     12  C   UNL     1      -7.285  -2.473 124.324  0.00  0.00    +0.000 A 
ATOM     13  C   UNL     1      -7.219  -1.819 123.089  0.00  0.00    +0.000 A 
ATOM     14  C   UNL     1      -6.098  -1.995 122.275  0.00  0.00    +0.000 A 
ATOM     15  C   UNL     1      -5.002  -2.727 122.737  0.00  0.00    +0.000 A 
ATOM     16  C   UNL     1      -5.050  -3.345 123.986  0.00  0.00    +0.000 A 
ATOM     17  C   UNL     1      -6.212  -3.268 124.755  0.00  0.00    +0.000 A 
ENDBRANCH  10  12
ENDBRANCH   5  10
BRANCH   1  18
ATOM     18  C   UNL     1      -7.200  -1.016 130.072  0.00  0.00    +0.000 C 
BRANCH  18  20
ATOM     19  N   UNL     1      -8.716  -0.185 131.782  0.00  0.00    +0.000 N 
ATOM     20  C   UNL     1      -8.162   0.049 130.560  0.00  0.00    +0.000 C 
ATOM     21  O   UNL     1      -8.463   1.076 129.953  0.00  0.00    +0.000 OA
ATOM     22  H   UNL     1      -9.351   0.524 132.124  0.00  0.00    +0.000 HD
ATOM     23  H   UNL     1      -8.483  -0.969 132.375  0.00  0.00    +0.000 HD
ENDBRANCH  18  20
ENDBRANCH   1  18
TORSDOF 5
ENDMDL
MODEL 9
REMARK VINA RESULT:      -6.5      1.843      2.402
REMARK  Name = Nepafenac
REMARK  5 active torsions:
REMARK  status: ('A' for Active; 'I' for Inactive)
REMARK    1  A    between atoms: C_2  and  C_4
REMARK    2  A    between atoms: C_4  and  C_5
REMARK    3  A    between atoms: C_9  and  C_10
REMARK    4  A    between atoms: C_10  and  C_12
REMARK    5  A    between atoms: C_18  and  N_19
REMARK                            x       y       z     vdW  Elec       q    Type
REMARK                         _______ _______ _______ _____ _____    ______ ____
ROOT
ATOM      1  C   UNL     1      -8.813   3.912 132.527  0.00  0.00    +0.000 A 
ATOM      2  C   UNL     1      -8.833   2.887 131.560  0.00  0.00    +0.000 A 
ATOM      3  C   UNL     1      -9.749   2.902 130.517  0.00  0.00    +0.000 A 
ATOM      4  C   UNL     1     -10.619   3.980 130.386  0.00  0.00    +0.000 A 
ATOM      5  C   UNL     1     -10.594   5.051 131.307  0.00  0.00    +0.000 A 
ATOM      6  C   UNL     1      -9.709   5.000 132.419  0.00  0.00    +0.000 A 
ENDROOT
BRANCH   6   7
ATOM      7  N   UNL     1      -9.665   5.986 133.397  0.00  0.00    +0.000 N 
ATOM      8  H   UNL     1     -10.497   6.264 133.892  0.00  0.00    +0.000 HD
ATOM      9  H   UNL     1      -8.817   6.337 133.804  0.00  0.00    +0.000 HD
ENDBRANCH   6   7
BRANCH   5  10
ATOM     10  C   UNL     1     -11.551   6.182 131.019  0.00  0.00    +0.000 C 
ATOM     11  O   UNL     1     -12.359   6.556 131.869  0.00  0.00    +0.000 OA
BRANCH  10  12
ATOM     12  C   UNL     1     -11.577   6.897 129.723  0.00  0.00    +0.000 A 
ATOM     13  C   UNL     1     -10.499   7.719 129.374  0.00  0.00    +0.000 A 
ATOM     14  C   UNL     1     -10.486   8.343 128.124  0.00  0.00    +0.000 A 
ATOM     15  C   UNL     1     -11.484   8.061 127.188  0.00  0.00    +0.000 A 
ATOM     16  C   UNL     1     -12.536   7.209 127.521  0.00  0.00    +0.000 A 
ATOM     17  C   UNL     1     -12.615   6.673 128.807  0.00  0.00    +0.000 A 
ENDBRANCH  10  12
ENDBRANCH   5  10
BRANCH   1  18
ATOM     18  C   UNL     1      -7.842   3.785 133.686  0.00  0.00    +0.000 C 
BRANCH  18  20
ATOM     19  N   UNL     1      -5.450   3.810 133.245  0.00  0.00    +0.000 N 
ATOM     20  C   UNL     1      -6.555   4.565 133.499  0.00  0.00    +0.000 C 
ATOM     21  O   UNL     1      -6.443   5.789 133.552  0.00  0.00    +0.000 OA
ATOM     22  H   UNL     1      -4.587   4.318 133.107  0.00  0.00    +0.000 HD
ATOM     23  H   UNL     1      -5.458   2.807 133.127  0.00  0.00    +0.000 HD
ENDBRANCH  18  20
ENDBRANCH   1  18
TORSDOF 5
ENDMDL
