MODEL 1
REMARK VINA RESULT:      -8.8      0.000      0.000
REMARK  Name = Neratinib
REMARK  15 active torsions:
REMARK  status: ('A' for Active; 'I' for Inactive)
REMARK    1  A    between atoms: C_1  and  C_2
REMARK    2  A    between atoms: C_2  and  O_3
REMARK    3  A    between atoms: O_3  and  C_4
REMARK    4  A    between atoms: C_5  and  N_6
REMARK    5  A    between atoms: C_7  and  C_9
REMARK    6  A    between atoms: C_10  and  C_11
REMARK    7  A    between atoms: C_11  and  N_12
REMARK    8  A    between atoms: N_12  and  C_13
REMARK    9  A    between atoms: N_12  and  C_14
REMARK   10  A    between atoms: C_17  and  N_18
REMARK   11  A    between atoms: N_18  and  C_19
REMARK   12  A    between atoms: C_22  and  O_23
REMARK   13  A    between atoms: O_23  and  C_24
REMARK   14  A    between atoms: C_24  and  C_25
REMARK   15  A    between atoms: C_34  and  C_39
REMARK                            x       y       z     vdW  Elec       q    Type
REMARK                         _______ _______ _______ _____ _____    ______ ____
ROOT
ATOM      1  C   UNL     1      -7.956  -1.729 125.966  0.00  0.00    +0.000 A 
ATOM      2  C   UNL     1      -7.857  -0.368 126.278  0.00  0.00    +0.000 A 
ATOM      3  C   UNL     1      -7.670  -0.029 127.627  0.00  0.00    +0.000 A 
ATOM      4  C   UNL     1      -7.626  -0.942 128.695  0.00  0.00    +0.000 A 
ATOM      5  C   UNL     1      -7.468  -0.549 130.071  0.00  0.00    +0.000 A 
ATOM      6  C   UNL     1      -7.514  -1.577 131.025  0.00  0.00    +0.000 A 
ATOM      7  C   UNL     1      -7.652  -2.882 130.589  0.00  0.00    +0.000 A 
ATOM      8  N   UNL     1      -7.777  -3.260 129.300  0.00  0.00    +0.000 NA
ATOM      9  C   UNL     1      -7.779  -2.305 128.361  0.00  0.00    +0.000 A 
ATOM     10  C   UNL     1      -7.938  -2.670 127.020  0.00  0.00    +0.000 A 
ENDROOT
BRANCH   2  11
ATOM     11  N   UNL     1      -7.992   0.665 125.304  0.00  0.00    +0.000 N 
ATOM     12  C   UNL     1      -9.181   1.142 124.788  0.00  0.00    +0.000 C 
ATOM     13  O   UNL     1     -10.303   0.713 125.036  0.00  0.00    +0.000 OA
ATOM     14  H   UNL     1      -7.143   1.035 124.910  0.00  0.00    +0.000 HD
BRANCH  12  15
ATOM     15  C   UNL     1      -9.044   2.297 123.859  0.00  0.00    +0.000 C 
ATOM     16  C   UNL     1      -7.977   2.282 123.039  0.00  0.00    +0.000 C 
BRANCH  16  17
ATOM     17  C   UNL     1      -7.680   3.306 121.988  0.00  0.00    +0.000 C 
BRANCH  17  18
ATOM     18  N   UNL     1      -6.236   3.476 121.749  0.00  0.00    +0.000 NA
ATOM     19  C   UNL     1      -5.979   4.212 120.506  0.00  0.00    +0.000 C 
ATOM     20  C   UNL     1      -5.634   4.212 122.866  0.00  0.00    +0.000 C 
ENDBRANCH  17  18
ENDBRANCH  16  17
ENDBRANCH  12  15
ENDBRANCH   2  11
BRANCH   5  21
ATOM     21  N   UNL     1      -7.248   0.821 130.424  0.00  0.00    +0.000 N 
ATOM     22  H   UNL     1      -6.311   1.201 130.318  0.00  0.00    +0.000 HD
BRANCH  21  23
ATOM     23  C   UNL     1      -8.196   1.806 130.764  0.00  0.00    +0.000 A 
ATOM     24  C   UNL     1      -8.958   2.437 129.781  0.00  0.00    +0.000 A 
ATOM     25  C   UNL     1      -9.710   3.582 130.079  0.00  0.00    +0.000 A 
ATOM     26  C   UNL     1      -9.777   4.085 131.390  0.00  0.00    +0.000 A 
ATOM     27  C   UNL     1      -9.059   3.402 132.391  0.00  0.00    +0.000 A 
ATOM     28 CL   UNL     1      -8.965   3.821 134.074  0.00  0.00    +0.000 Cl
ATOM     29  C   UNL     1      -8.289   2.272 132.072  0.00  0.00    +0.000 A 
BRANCH  26  30
ATOM     30  O   UNL     1     -10.560   5.211 131.494  0.00  0.00    +0.000 OA
BRANCH  30  31
ATOM     31  C   UNL     1     -10.060   6.399 130.883  0.00  0.00    +0.000 C 
BRANCH  31  32
ATOM     32  C   UNL     1     -10.988   6.930 129.826  0.00  0.00    +0.000 A 
ATOM     33  C   UNL     1     -10.512   7.860 128.908  0.00  0.00    +0.000 A 
ATOM     34  C   UNL     1     -11.383   8.337 127.940  0.00  0.00    +0.000 A 
ATOM     35  C   UNL     1     -12.688   7.860 127.904  0.00  0.00    +0.000 A 
ATOM     36  C   UNL     1     -13.069   6.904 128.830  0.00  0.00    +0.000 A 
ATOM     37  N   UNL     1     -12.248   6.428 129.785  0.00  0.00    +0.000 NA
ENDBRANCH  31  32
ENDBRANCH  30  31
ENDBRANCH  26  30
ENDBRANCH  21  23
ENDBRANCH   5  21
BRANCH   6  38
ATOM     38  C   UNL     1      -7.457  -1.424 132.449  0.00  0.00    +0.000 C 
ATOM     39  N   UNL     1      -7.439  -1.372 133.602  0.00  0.00    +0.000 NA
ENDBRANCH   6  38
BRANCH   1  40
ATOM     40  O   UNL     1      -8.172  -2.249 124.710  0.00  0.00    +0.000 OA
BRANCH  40  42
ATOM     41  C   UNL     1      -9.756  -3.288 123.224  0.00  0.00    +0.000 C 
ATOM     42  C   UNL     1      -9.153  -3.287 124.616  0.00  0.00    +0.000 C 
ENDBRANCH  40  42
ENDBRANCH   1  40
TORSDOF 12
ENDMDL
MODEL 2
REMARK VINA RESULT:      -8.5      3.961      5.822
REMARK  Name = Neratinib
REMARK  15 active torsions:
REMARK  status: ('A' for Active; 'I' for Inactive)
REMARK    1  A    between atoms: C_1  and  C_2
REMARK    2  A    between atoms: C_2  and  O_3
REMARK    3  A    between atoms: O_3  and  C_4
REMARK    4  A    between atoms: C_5  and  N_6
REMARK    5  A    between atoms: C_7  and  C_9
REMARK    6  A    between atoms: C_10  and  C_11
REMARK    7  A    between atoms: C_11  and  N_12
REMARK    8  A    between atoms: N_12  and  C_13
REMARK    9  A    between atoms: N_12  and  C_14
REMARK   10  A    between atoms: C_17  and  N_18
REMARK   11  A    between atoms: N_18  and  C_19
REMARK   12  A    between atoms: C_22  and  O_23
REMARK   13  A    between atoms: O_23  and  C_24
REMARK   14  A    between atoms: C_24  and  C_25
REMARK   15  A    between atoms: C_34  and  C_39
REMARK                            x       y       z     vdW  Elec       q    Type
REMARK                         _______ _______ _______ _____ _____    ______ ____
ROOT
ATOM      1  C   UNL     1      -4.623   3.698 126.854  0.00  0.00    +0.000 A 
ATOM      2  C   UNL     1      -5.495   3.358 127.896  0.00  0.00    +0.000 A 
ATOM      3  C   UNL     1      -5.324   4.020 129.121  0.00  0.00    +0.000 A 
ATOM      4  C   UNL     1      -4.316   4.959 129.402  0.00  0.00    +0.000 A 
ATOM      5  C   UNL     1      -4.153   5.589 130.686  0.00  0.00    +0.000 A 
ATOM      6  C   UNL     1      -3.054   6.451 130.825  0.00  0.00    +0.000 A 
ATOM      7  C   UNL     1      -2.244   6.677 129.728  0.00  0.00    +0.000 A 
ATOM      8  N   UNL     1      -2.404   6.108 128.515  0.00  0.00    +0.000 NA
ATOM      9  C   UNL     1      -3.418   5.247 128.353  0.00  0.00    +0.000 A 
ATOM     10  C   UNL     1      -3.585   4.621 127.113  0.00  0.00    +0.000 A 
ENDROOT
BRANCH   2  11
ATOM     11  N   UNL     1      -6.493   2.345 127.775  0.00  0.00    +0.000 N 
ATOM     12  C   UNL     1      -7.785   2.530 127.324  0.00  0.00    +0.000 C 
ATOM     13  O   UNL     1      -8.298   3.600 127.015  0.00  0.00    +0.000 OA
ATOM     14  H   UNL     1      -6.253   1.427 128.110  0.00  0.00    +0.000 HD
BRANCH  12  15
ATOM     15  C   UNL     1      -8.590   1.285 127.198  0.00  0.00    +0.000 C 
ATOM     16  C   UNL     1      -8.321   0.502 126.138  0.00  0.00    +0.000 C 
BRANCH  16  17
ATOM     17  C   UNL     1      -8.963  -0.819 125.852  0.00  0.00    +0.000 C 
BRANCH  17  18
ATOM     18  N   UNL     1      -9.363  -0.967 124.441  0.00  0.00    +0.000 NA
ATOM     19  C   UNL     1      -8.754   0.068 123.597  0.00  0.00    +0.000 C 
ATOM     20  C   UNL     1      -8.946  -2.284 123.946  0.00  0.00    +0.000 C 
ENDBRANCH  17  18
ENDBRANCH  16  17
ENDBRANCH  12  15
ENDBRANCH   2  11
BRANCH   5  21
ATOM     21  N   UNL     1      -5.090   5.359 131.743  0.00  0.00    +0.000 N 
ATOM     22  H   UNL     1      -4.730   5.170 132.675  0.00  0.00    +0.000 HD
BRANCH  21  23
ATOM     23  C   UNL     1      -6.491   5.510 131.725  0.00  0.00    +0.000 A 
ATOM     24  C   UNL     1      -7.091   6.554 131.019  0.00  0.00    +0.000 A 
ATOM     25  C   UNL     1      -8.447   6.859 131.201  0.00  0.00    +0.000 A 
ATOM     26  C   UNL     1      -9.259   6.079 132.044  0.00  0.00    +0.000 A 
ATOM     27  C   UNL     1      -8.662   4.986 132.701  0.00  0.00    +0.000 A 
ATOM     28 CL   UNL     1      -9.434   3.882 133.797  0.00  0.00    +0.000 Cl
ATOM     29  C   UNL     1      -7.297   4.709 132.529  0.00  0.00    +0.000 A 
BRANCH  26  30
ATOM     30  O   UNL     1     -10.558   6.526 132.101  0.00  0.00    +0.000 OA
BRANCH  30  31
ATOM     31  C   UNL     1     -11.515   5.823 131.311  0.00  0.00    +0.000 C 
BRANCH  31  32
ATOM     32  C   UNL     1     -12.106   6.685 130.230  0.00  0.00    +0.000 A 
ATOM     33  C   UNL     1     -12.249   8.050 130.450  0.00  0.00    +0.000 A 
ATOM     34  C   UNL     1     -12.796   8.829 129.441  0.00  0.00    +0.000 A 
ATOM     35  C   UNL     1     -13.162   8.228 128.242  0.00  0.00    +0.000 A 
ATOM     36  C   UNL     1     -12.949   6.869 128.090  0.00  0.00    +0.000 A 
ATOM     37  N   UNL     1     -12.427   6.088 129.054  0.00  0.00    +0.000 NA
ENDBRANCH  31  32
ENDBRANCH  30  31
ENDBRANCH  26  30
ENDBRANCH  21  23
ENDBRANCH   5  21
BRANCH   6  38
ATOM     38  C   UNL     1      -2.647   7.128 132.021  0.00  0.00    +0.000 C 
ATOM     39  N   UNL     1      -2.272   7.718 132.940  0.00  0.00    +0.000 NA
ENDBRANCH   6  38
BRANCH   1  40
ATOM     40  O   UNL     1      -4.616   3.135 125.599  0.00  0.00    +0.000 OA
BRANCH  40  42
ATOM     41  C   UNL     1      -6.415   3.041 124.000  0.00  0.00    +0.000 C 
ATOM     42  C   UNL     1      -5.283   3.875 124.570  0.00  0.00    +0.000 C 
ENDBRANCH  40  42
ENDBRANCH   1  40
TORSDOF 12
ENDMDL
MODEL 3
REMARK VINA RESULT:      -8.2      3.581      5.737
REMARK  Name = Neratinib
REMARK  15 active torsions:
REMARK  status: ('A' for Active; 'I' for Inactive)
REMARK    1  A    between atoms: C_1  and  C_2
REMARK    2  A    between atoms: C_2  and  O_3
REMARK    3  A    between atoms: O_3  and  C_4
REMARK    4  A    between atoms: C_5  and  N_6
REMARK    5  A    between atoms: C_7  and  C_9
REMARK    6  A    between atoms: C_10  and  C_11
REMARK    7  A    between atoms: C_11  and  N_12
REMARK    8  A    between atoms: N_12  and  C_13
REMARK    9  A    between atoms: N_12  and  C_14
REMARK   10  A    between atoms: C_17  and  N_18
REMARK   11  A    between atoms: N_18  and  C_19
REMARK   12  A    between atoms: C_22  and  O_23
REMARK   13  A    between atoms: O_23  and  C_24
REMARK   14  A    between atoms: C_24  and  C_25
REMARK   15  A    between atoms: C_34  and  C_39
REMARK                            x       y       z     vdW  Elec       q    Type
REMARK                         _______ _______ _______ _____ _____    ______ ____
ROOT
ATOM      1  C   UNL     1      -5.518   3.389 126.017  0.00  0.00    +0.000 A 
ATOM      2  C   UNL     1      -6.357   2.967 127.056  0.00  0.00    +0.000 A 
ATOM      3  C   UNL     1      -6.196   3.587 128.305  0.00  0.00    +0.000 A 
ATOM      4  C   UNL     1      -5.227   4.558 128.610  0.00  0.00    +0.000 A 
ATOM      5  C   UNL     1      -5.072   5.144 129.916  0.00  0.00    +0.000 A 
ATOM      6  C   UNL     1      -4.012   6.048 130.074  0.00  0.00    +0.000 A 
ATOM      7  C   UNL     1      -3.231   6.355 128.976  0.00  0.00    +0.000 A 
ATOM      8  N   UNL     1      -3.384   5.829 127.743  0.00  0.00    +0.000 NA
ATOM      9  C   UNL     1      -4.360   4.930 127.560  0.00  0.00    +0.000 A 
ATOM     10  C   UNL     1      -4.519   4.347 126.298  0.00  0.00    +0.000 A 
ENDROOT
BRANCH   2  11
ATOM     11  N   UNL     1      -7.310   1.915 126.908  0.00  0.00    +0.000 N 
ATOM     12  C   UNL     1      -8.467   1.970 126.155  0.00  0.00    +0.000 C 
ATOM     13  O   UNL     1      -8.890   2.947 125.547  0.00  0.00    +0.000 OA
ATOM     14  H   UNL     1      -7.158   1.083 127.452  0.00  0.00    +0.000 HD
BRANCH  12  15
ATOM     15  C   UNL     1      -9.233   0.696 126.089  0.00  0.00    +0.000 C 
ATOM     16  C   UNL     1      -8.544  -0.398 125.716  0.00  0.00    +0.000 C 
BRANCH  16  17
ATOM     17  C   UNL     1      -9.098  -1.787 125.643  0.00  0.00    +0.000 C 
BRANCH  17  18
ATOM     18  N   UNL     1      -8.072  -2.823 125.853  0.00  0.00    +0.000 NA
ATOM     19  C   UNL     1      -8.103  -3.836 124.791  0.00  0.00    +0.000 C 
ATOM     20  C   UNL     1      -6.742  -2.204 125.874  0.00  0.00    +0.000 C 
ENDBRANCH  17  18
ENDBRANCH  16  17
ENDBRANCH  12  15
ENDBRANCH   2  11
BRANCH   5  21
ATOM     21  N   UNL     1      -5.981   4.828 130.976  0.00  0.00    +0.000 N 
ATOM     22  H   UNL     1      -5.698   4.135 131.664  0.00  0.00    +0.000 HD
BRANCH  21  23
ATOM     23  C   UNL     1      -7.193   5.463 131.315  0.00  0.00    +0.000 A 
ATOM     24  C   UNL     1      -7.940   5.042 132.415  0.00  0.00    +0.000 A 
ATOM     25  C   UNL     1      -9.253   5.493 132.607  0.00  0.00    +0.000 A 
ATOM     26  C   UNL     1      -9.831   6.437 131.739  0.00  0.00    +0.000 A 
ATOM     27  C   UNL     1      -9.045   6.910 130.670  0.00  0.00    +0.000 A 
ATOM     28 CL   UNL     1      -9.521   8.059 129.457  0.00  0.00    +0.000 Cl
ATOM     29  C   UNL     1      -7.741   6.429 130.475  0.00  0.00    +0.000 A 
BRANCH  26  30
ATOM     30  O   UNL     1     -11.122   6.761 132.081  0.00  0.00    +0.000 OA
BRANCH  30  31
ATOM     31  C   UNL     1     -12.158   6.227 131.259  0.00  0.00    +0.000 C 
BRANCH  31  32
ATOM     32  C   UNL     1     -12.610   7.202 130.207  0.00  0.00    +0.000 A 
ATOM     33  C   UNL     1     -13.023   6.723 128.968  0.00  0.00    +0.000 A 
ATOM     34  C   UNL     1     -13.438   7.638 128.012  0.00  0.00    +0.000 A 
ATOM     35  C   UNL     1     -13.447   8.992 128.324  0.00  0.00    +0.000 A 
ATOM     36  C   UNL     1     -13.058   9.381 129.595  0.00  0.00    +0.000 A 
ATOM     37  N   UNL     1     -12.645   8.517 130.541  0.00  0.00    +0.000 NA
ENDBRANCH  31  32
ENDBRANCH  30  31
ENDBRANCH  26  30
ENDBRANCH  21  23
ENDBRANCH   5  21
BRANCH   6  38
ATOM     38  C   UNL     1      -3.616   6.695 131.291  0.00  0.00    +0.000 C 
ATOM     39  N   UNL     1      -3.227   7.225 132.240  0.00  0.00    +0.000 NA
ENDBRANCH   6  38
BRANCH   1  40
ATOM     40  O   UNL     1      -5.506   2.877 124.739  0.00  0.00    +0.000 OA
BRANCH  40  42
ATOM     41  C   UNL     1      -6.712   2.981 122.657  0.00  0.00    +0.000 C 
ATOM     42  C   UNL     1      -5.935   3.763 123.700  0.00  0.00    +0.000 C 
ENDBRANCH  40  42
ENDBRANCH   1  40
TORSDOF 12
ENDMDL
MODEL 4
REMARK VINA RESULT:      -8.1      3.459      8.867
REMARK  Name = Neratinib
REMARK  15 active torsions:
REMARK  status: ('A' for Active; 'I' for Inactive)
REMARK    1  A    between atoms: C_1  and  C_2
REMARK    2  A    between atoms: C_2  and  O_3
REMARK    3  A    between atoms: O_3  and  C_4
REMARK    4  A    between atoms: C_5  and  N_6
REMARK    5  A    between atoms: C_7  and  C_9
REMARK    6  A    between atoms: C_10  and  C_11
REMARK    7  A    between atoms: C_11  and  N_12
REMARK    8  A    between atoms: N_12  and  C_13
REMARK    9  A    between atoms: N_12  and  C_14
REMARK   10  A    between atoms: C_17  and  N_18
REMARK   11  A    between atoms: N_18  and  C_19
REMARK   12  A    between atoms: C_22  and  O_23
REMARK   13  A    between atoms: O_23  and  C_24
REMARK   14  A    between atoms: C_24  and  C_25
REMARK   15  A    between atoms: C_34  and  C_39
REMARK                            x       y       z     vdW  Elec       q    Type
REMARK                         _______ _______ _______ _____ _____    ______ ____
ROOT
ATOM      1  C   UNL     1      -7.391   4.769 131.851  0.00  0.00    +0.000 A 
ATOM      2  C   UNL     1      -8.024   5.079 130.641  0.00  0.00    +0.000 A 
ATOM      3  C   UNL     1      -7.311   4.827 129.458  0.00  0.00    +0.000 A 
ATOM      4  C   UNL     1      -5.995   4.338 129.393  0.00  0.00    +0.000 A 
ATOM      5  C   UNL     1      -5.285   4.127 128.158  0.00  0.00    +0.000 A 
ATOM      6  C   UNL     1      -3.953   3.700 128.266  0.00  0.00    +0.000 A 
ATOM      7  C   UNL     1      -3.432   3.463 129.524  0.00  0.00    +0.000 A 
ATOM      8  N   UNL     1      -4.098   3.635 130.686  0.00  0.00    +0.000 NA
ATOM      9  C   UNL     1      -5.360   4.081 130.627  0.00  0.00    +0.000 A 
ATOM     10  C   UNL     1      -6.060   4.297 131.819  0.00  0.00    +0.000 A 
ENDROOT
BRANCH   2  11
ATOM     11  N   UNL     1      -9.316   5.680 130.571  0.00  0.00    +0.000 N 
ATOM     12  C   UNL     1     -10.504   5.020 130.323  0.00  0.00    +0.000 C 
ATOM     13  O   UNL     1     -10.631   3.828 130.063  0.00  0.00    +0.000 OA
ATOM     14  H   UNL     1      -9.357   6.683 130.644  0.00  0.00    +0.000 HD
BRANCH  12  15
ATOM     15  C   UNL     1     -11.723   5.870 130.406  0.00  0.00    +0.000 C 
ATOM     16  C   UNL     1     -11.544   7.192 130.227  0.00  0.00    +0.000 C 
BRANCH  16  17
ATOM     17  C   UNL     1     -12.635   8.217 130.207  0.00  0.00    +0.000 C 
BRANCH  17  18
ATOM     18  N   UNL     1     -12.794   8.856 128.889  0.00  0.00    +0.000 NA
ATOM     19  C   UNL     1     -13.579   8.017 127.975  0.00  0.00    +0.000 C 
ATOM     20  C   UNL     1     -13.475  10.146 129.045  0.00  0.00    +0.000 C 
ENDBRANCH  17  18
ENDBRANCH  16  17
ENDBRANCH  12  15
ENDBRANCH   2  11
BRANCH   5  21
ATOM     21  N   UNL     1      -5.933   4.320 126.896  0.00  0.00    +0.000 N 
ATOM     22  H   UNL     1      -5.708   5.155 126.361  0.00  0.00    +0.000 HD
BRANCH  21  23
ATOM     23  C   UNL     1      -6.752   3.424 126.180  0.00  0.00    +0.000 A 
ATOM     24  C   UNL     1      -7.490   3.852 125.076  0.00  0.00    +0.000 A 
ATOM     25  C   UNL     1      -8.489   3.041 124.522  0.00  0.00    +0.000 A 
ATOM     26  C   UNL     1      -8.729   1.746 125.013  0.00  0.00    +0.000 A 
ATOM     27  C   UNL     1      -7.933   1.295 126.085  0.00  0.00    +0.000 A 
ATOM     28 CL   UNL     1      -8.034  -0.247 126.879  0.00  0.00    +0.000 Cl
ATOM     29  C   UNL     1      -6.954   2.129 126.647  0.00  0.00    +0.000 A 
BRANCH  26  30
ATOM     30  O   UNL     1      -9.744   1.099 124.349  0.00  0.00    +0.000 OA
BRANCH  30  31
ATOM     31  C   UNL     1      -9.384   0.373 123.176  0.00  0.00    +0.000 C 
BRANCH  31  32
ATOM     32  C   UNL     1      -8.787  -0.970 123.497  0.00  0.00    +0.000 A 
ATOM     33  C   UNL     1      -7.439  -1.194 123.243  0.00  0.00    +0.000 A 
ATOM     34  C   UNL     1      -6.907  -2.438 123.547  0.00  0.00    +0.000 A 
ATOM     35  C   UNL     1      -7.727  -3.409 124.111  0.00  0.00    +0.000 A 
ATOM     36  C   UNL     1      -9.049  -3.090 124.369  0.00  0.00    +0.000 A 
ATOM     37  N   UNL     1      -9.594  -1.894 124.078  0.00  0.00    +0.000 NA
ENDBRANCH  31  32
ENDBRANCH  30  31
ENDBRANCH  26  30
ENDBRANCH  21  23
ENDBRANCH   5  21
BRANCH   6  38
ATOM     38  C   UNL     1      -3.032   3.499 127.188  0.00  0.00    +0.000 C 
ATOM     39  N   UNL     1      -2.259   3.406 126.334  0.00  0.00    +0.000 NA
ENDBRANCH   6  38
BRANCH   1  40
ATOM     40  O   UNL     1      -7.917   4.975 133.106  0.00  0.00    +0.000 OA
BRANCH  40  42
ATOM     41  C   UNL     1      -9.354   3.058 133.347  0.00  0.00    +0.000 C 
ATOM     42  C   UNL     1      -8.150   3.803 133.894  0.00  0.00    +0.000 C 
ENDBRANCH  40  42
ENDBRANCH   1  40
TORSDOF 12
ENDMDL
MODEL 5
REMARK VINA RESULT:      -8.1      2.270      6.141
REMARK  Name = Neratinib
REMARK  15 active torsions:
REMARK  status: ('A' for Active; 'I' for Inactive)
REMARK    1  A    between atoms: C_1  and  C_2
REMARK    2  A    between atoms: C_2  and  O_3
REMARK    3  A    between atoms: O_3  and  C_4
REMARK    4  A    between atoms: C_5  and  N_6
REMARK    5  A    between atoms: C_7  and  C_9
REMARK    6  A    between atoms: C_10  and  C_11
REMARK    7  A    between atoms: C_11  and  N_12
REMARK    8  A    between atoms: N_12  and  C_13
REMARK    9  A    between atoms: N_12  and  C_14
REMARK   10  A    between atoms: C_17  and  N_18
REMARK   11  A    between atoms: N_18  and  C_19
REMARK   12  A    between atoms: C_22  and  O_23
REMARK   13  A    between atoms: O_23  and  C_24
REMARK   14  A    between atoms: C_24  and  C_25
REMARK   15  A    between atoms: C_34  and  C_39
REMARK                            x       y       z     vdW  Elec       q    Type
REMARK                         _______ _______ _______ _____ _____    ______ ____
ROOT
ATOM      1  C   UNL     1      -8.980  -1.367 125.558  0.00  0.00    +0.000 A 
ATOM      2  C   UNL     1      -8.339  -1.115 126.777  0.00  0.00    +0.000 A 
ATOM      3  C   UNL     1      -7.830   0.177 126.981  0.00  0.00    +0.000 A 
ATOM      4  C   UNL     1      -7.866   1.221 126.040  0.00  0.00    +0.000 A 
ATOM      5  C   UNL     1      -7.298   2.524 126.276  0.00  0.00    +0.000 A 
ATOM      6  C   UNL     1      -7.355   3.434 125.209  0.00  0.00    +0.000 A 
ATOM      7  C   UNL     1      -7.986   3.049 124.041  0.00  0.00    +0.000 A 
ATOM      8  N   UNL     1      -8.541   1.839 123.821  0.00  0.00    +0.000 NA
ATOM      9  C   UNL     1      -8.471   0.927 124.800  0.00  0.00    +0.000 A 
ATOM     10  C   UNL     1      -9.011  -0.345 124.583  0.00  0.00    +0.000 A 
ENDROOT
BRANCH   2  11
ATOM     11  N   UNL     1      -8.140  -2.116 127.773  0.00  0.00    +0.000 N 
ATOM     12  C   UNL     1      -6.928  -2.669 128.136  0.00  0.00    +0.000 C 
ATOM     13  O   UNL     1      -5.841  -2.435 127.619  0.00  0.00    +0.000 OA
ATOM     14  H   UNL     1      -8.965  -2.499 128.205  0.00  0.00    +0.000 HD
BRANCH  12  15
ATOM     15  C   UNL     1      -6.989  -3.621 129.279  0.00  0.00    +0.000 C 
ATOM     16  C   UNL     1      -5.886  -3.710 130.043  0.00  0.00    +0.000 C 
BRANCH  16  17
ATOM     17  C   UNL     1      -5.750  -4.553 131.273  0.00  0.00    +0.000 C 
BRANCH  17  18
ATOM     18  N   UNL     1      -4.555  -4.218 132.067  0.00  0.00    +0.000 NA
ATOM     19  C   UNL     1      -3.928  -2.976 131.598  0.00  0.00    +0.000 C 
ATOM     20  C   UNL     1      -4.928  -4.055 133.476  0.00  0.00    +0.000 C 
ENDBRANCH  17  18
ENDBRANCH  16  17
ENDBRANCH  12  15
ENDBRANCH   2  11
BRANCH   5  21
ATOM     21  N   UNL     1      -6.738   2.862 127.549  0.00  0.00    +0.000 N 
ATOM     22  H   UNL     1      -5.727   2.825 127.656  0.00  0.00    +0.000 HD
BRANCH  21  23
ATOM     23  C   UNL     1      -7.381   3.407 128.677  0.00  0.00    +0.000 A 
ATOM     24  C   UNL     1      -8.649   2.967 129.063  0.00  0.00    +0.000 A 
ATOM     25  C   UNL     1      -9.394   3.672 130.018  0.00  0.00    +0.000 A 
ATOM     26  C   UNL     1      -8.861   4.799 130.668  0.00  0.00    +0.000 A 
ATOM     27  C   UNL     1      -7.555   5.197 130.323  0.00  0.00    +0.000 A 
ATOM     28 CL   UNL     1      -6.676   6.552 130.963  0.00  0.00    +0.000 Cl
ATOM     29  C   UNL     1      -6.830   4.497 129.345  0.00  0.00    +0.000 A 
BRANCH  26  30
ATOM     30  O   UNL     1      -9.733   5.361 131.570  0.00  0.00    +0.000 OA
BRANCH  30  31
ATOM     31  C   UNL     1     -10.010   6.751 131.416  0.00  0.00    +0.000 C 
BRANCH  31  32
ATOM     32  C   UNL     1     -10.668   7.060 130.100  0.00  0.00    +0.000 A 
ATOM     33  C   UNL     1     -11.962   6.609 129.864  0.00  0.00    +0.000 A 
ATOM     34  C   UNL     1     -12.553   6.905 128.645  0.00  0.00    +0.000 A 
ATOM     35  C   UNL     1     -11.846   7.655 127.711  0.00  0.00    +0.000 A 
ATOM     36  C   UNL     1     -10.578   8.099 128.042  0.00  0.00    +0.000 A 
ATOM     37  N   UNL     1      -9.977   7.822 129.215  0.00  0.00    +0.000 NA
ENDBRANCH  31  32
ENDBRANCH  30  31
ENDBRANCH  26  30
ENDBRANCH  21  23
ENDBRANCH   5  21
BRANCH   6  38
ATOM     38  C   UNL     1      -6.795   4.752 125.182  0.00  0.00    +0.000 C 
ATOM     39  N   UNL     1      -6.272   5.782 125.162  0.00  0.00    +0.000 NA
ENDBRANCH   6  38
BRANCH   1  40
ATOM     40  O   UNL     1      -9.510  -2.576 125.167  0.00  0.00    +0.000 OA
BRANCH  40  42
ATOM     41  C   UNL     1      -7.574  -3.840 124.494  0.00  0.00    +0.000 C 
ATOM     42  C   UNL     1      -8.881  -3.210 124.048  0.00  0.00    +0.000 C 
ENDBRANCH  40  42
ENDBRANCH   1  40
TORSDOF 12
ENDMDL
MODEL 6
REMARK VINA RESULT:      -8.1      3.041      9.120
REMARK  Name = Neratinib
REMARK  15 active torsions:
REMARK  status: ('A' for Active; 'I' for Inactive)
REMARK    1  A    between atoms: C_1  and  C_2
REMARK    2  A    between atoms: C_2  and  O_3
REMARK    3  A    between atoms: O_3  and  C_4
REMARK    4  A    between atoms: C_5  and  N_6
REMARK    5  A    between atoms: C_7  and  C_9
REMARK    6  A    between atoms: C_10  and  C_11
REMARK    7  A    between atoms: C_11  and  N_12
REMARK    8  A    between atoms: N_12  and  C_13
REMARK    9  A    between atoms: N_12  and  C_14
REMARK   10  A    between atoms: C_17  and  N_18
REMARK   11  A    between atoms: N_18  and  C_19
REMARK   12  A    between atoms: C_22  and  O_23
REMARK   13  A    between atoms: O_23  and  C_24
REMARK   14  A    between atoms: C_24  and  C_25
REMARK   15  A    between atoms: C_34  and  C_39
REMARK                            x       y       z     vdW  Elec       q    Type
REMARK                         _______ _______ _______ _____ _____    ______ ____
ROOT
ATOM      1  C   UNL     1      -8.072   4.804 134.630  0.00  0.00    +0.000 A 
ATOM      2  C   UNL     1      -8.916   4.289 133.639  0.00  0.00    +0.000 A 
ATOM      3  C   UNL     1      -8.552   3.065 133.056  0.00  0.00    +0.000 A 
ATOM      4  C   UNL     1      -7.383   2.342 133.351  0.00  0.00    +0.000 A 
ATOM      5  C   UNL     1      -7.028   1.106 132.702  0.00  0.00    +0.000 A 
ATOM      6  C   UNL     1      -5.793   0.544 133.059  0.00  0.00    +0.000 A 
ATOM      7  C   UNL     1      -5.033   1.172 134.029  0.00  0.00    +0.000 A 
ATOM      8  N   UNL     1      -5.370   2.317 134.658  0.00  0.00    +0.000 NA
ATOM      9  C   UNL     1      -6.523   2.907 134.316  0.00  0.00    +0.000 A 
ATOM     10  C   UNL     1      -6.878   4.112 134.932  0.00  0.00    +0.000 A 
ENDROOT
BRANCH   2  11
ATOM     11  N   UNL     1     -10.076   4.975 133.172  0.00  0.00    +0.000 N 
ATOM     12  C   UNL     1     -10.088   6.054 132.310  0.00  0.00    +0.000 C 
ATOM     13  O   UNL     1      -9.104   6.633 131.861  0.00  0.00    +0.000 OA
ATOM     14  H   UNL     1     -10.961   4.687 133.555  0.00  0.00    +0.000 HD
BRANCH  12  15
ATOM     15  C   UNL     1     -11.442   6.516 131.900  0.00  0.00    +0.000 C 
ATOM     16  C   UNL     1     -11.601   6.823 130.600  0.00  0.00    +0.000 C 
BRANCH  16  17
ATOM     17  C   UNL     1     -12.888   7.245 129.962  0.00  0.00    +0.000 C 
BRANCH  17  18
ATOM     18  N   UNL     1     -12.724   8.390 129.049  0.00  0.00    +0.000 NA
ATOM     19  C   UNL     1     -12.992   9.664 129.728  0.00  0.00    +0.000 C 
ATOM     20  C   UNL     1     -11.353   8.413 128.528  0.00  0.00    +0.000 C 
ENDBRANCH  17  18
ENDBRANCH  16  17
ENDBRANCH  12  15
ENDBRANCH   2  11
BRANCH   5  21
ATOM     21  N   UNL     1      -7.917   0.484 131.768  0.00  0.00    +0.000 N 
ATOM     22  H   UNL     1      -8.780   0.078 132.121  0.00  0.00    +0.000 HD
BRANCH  21  23
ATOM     23  C   UNL     1      -7.853   0.481 130.361  0.00  0.00    +0.000 A 
ATOM     24  C   UNL     1      -8.133   1.635 129.628  0.00  0.00    +0.000 A 
ATOM     25  C   UNL     1      -8.319   1.578 128.240  0.00  0.00    +0.000 A 
ATOM     26  C   UNL     1      -8.159   0.371 127.535  0.00  0.00    +0.000 A 
ATOM     27  C   UNL     1      -7.809  -0.776 128.274  0.00  0.00    +0.000 A 
ATOM     28 CL   UNL     1      -7.565  -2.380 127.652  0.00  0.00    +0.000 Cl
ATOM     29  C   UNL     1      -7.652  -0.709 129.667  0.00  0.00    +0.000 A 
BRANCH  26  30
ATOM     30  O   UNL     1      -8.380   0.504 126.185  0.00  0.00    +0.000 OA
BRANCH  30  31
ATOM     31  C   UNL     1      -7.247   0.810 125.375  0.00  0.00    +0.000 C 
BRANCH  31  32
ATOM     32  C   UNL     1      -6.750  -0.388 124.614  0.00  0.00    +0.000 A 
ATOM     33  C   UNL     1      -5.627  -1.068 125.073  0.00  0.00    +0.000 A 
ATOM     34  C   UNL     1      -5.185  -2.171 124.358  0.00  0.00    +0.000 A 
ATOM     35  C   UNL     1      -5.885  -2.572 123.226  0.00  0.00    +0.000 A 
ATOM     36  C   UNL     1      -7.016  -1.864 122.861  0.00  0.00    +0.000 A 
ATOM     37  N   UNL     1      -7.465  -0.786 123.531  0.00  0.00    +0.000 NA
ENDBRANCH  31  32
ENDBRANCH  30  31
ENDBRANCH  26  30
ENDBRANCH  21  23
ENDBRANCH   5  21
BRANCH   6  38
ATOM     38  C   UNL     1      -5.196  -0.632 132.498  0.00  0.00    +0.000 C 
ATOM     39  N   UNL     1      -4.672  -1.584 132.109  0.00  0.00    +0.000 NA
ENDBRANCH   6  38
BRANCH   1  40
ATOM     40  O   UNL     1      -8.247   6.000 135.288  0.00  0.00    +0.000 OA
BRANCH  40  42
ATOM     41  C   UNL     1      -8.334   7.068 137.444  0.00  0.00    +0.000 C 
ATOM     42  C   UNL     1      -7.549   6.147 136.530  0.00  0.00    +0.000 C 
ENDBRANCH  40  42
ENDBRANCH   1  40
TORSDOF 12
ENDMDL
MODEL 7
REMARK VINA RESULT:      -8.0      2.903      4.617
REMARK  Name = Neratinib
REMARK  15 active torsions:
REMARK  status: ('A' for Active; 'I' for Inactive)
REMARK    1  A    between atoms: C_1  and  C_2
REMARK    2  A    between atoms: C_2  and  O_3
REMARK    3  A    between atoms: O_3  and  C_4
REMARK    4  A    between atoms: C_5  and  N_6
REMARK    5  A    between atoms: C_7  and  C_9
REMARK    6  A    between atoms: C_10  and  C_11
REMARK    7  A    between atoms: C_11  and  N_12
REMARK    8  A    between atoms: N_12  and  C_13
REMARK    9  A    between atoms: N_12  and  C_14
REMARK   10  A    between atoms: C_17  and  N_18
REMARK   11  A    between atoms: N_18  and  C_19
REMARK   12  A    between atoms: C_22  and  O_23
REMARK   13  A    between atoms: O_23  and  C_24
REMARK   14  A    between atoms: C_24  and  C_25
REMARK   15  A    between atoms: C_34  and  C_39
REMARK                            x       y       z     vdW  Elec       q    Type
REMARK                         _______ _______ _______ _____ _____    ______ ____
ROOT
ATOM      1  C   UNL     1      -5.367   3.202 125.502  0.00  0.00    +0.000 A 
ATOM      2  C   UNL     1      -6.427   2.549 126.145  0.00  0.00    +0.000 A 
ATOM      3  C   UNL     1      -6.441   2.573 127.548  0.00  0.00    +0.000 A 
ATOM      4  C   UNL     1      -5.450   3.152 128.360  0.00  0.00    +0.000 A 
ATOM      5  C   UNL     1      -5.485   3.122 129.799  0.00  0.00    +0.000 A 
ATOM      6  C   UNL     1      -4.384   3.685 130.463  0.00  0.00    +0.000 A 
ATOM      7  C   UNL     1      -3.382   4.268 129.711  0.00  0.00    +0.000 A 
ATOM      8  N   UNL     1      -3.354   4.322 128.363  0.00  0.00    +0.000 NA
ATOM      9  C   UNL     1      -4.366   3.759 127.690  0.00  0.00    +0.000 A 
ATOM     10  C   UNL     1      -4.344   3.774 126.291  0.00  0.00    +0.000 A 
ENDROOT
BRANCH   2  11
ATOM     11  N   UNL     1      -7.439   1.832 125.441  0.00  0.00    +0.000 N 
ATOM     12  C   UNL     1      -8.603   2.368 124.926  0.00  0.00    +0.000 C 
ATOM     13  O   UNL     1      -8.981   3.529 125.044  0.00  0.00    +0.000 OA
ATOM     14  H   UNL     1      -7.326   0.834 125.371  0.00  0.00    +0.000 HD
BRANCH  12  15
ATOM     15  C   UNL     1      -9.440   1.417 124.145  0.00  0.00    +0.000 C 
ATOM     16  C   UNL     1      -8.789   0.415 123.527  0.00  0.00    +0.000 C 
BRANCH  16  17
ATOM     17  C   UNL     1      -9.437  -0.685 122.744  0.00  0.00    +0.000 C 
BRANCH  17  18
ATOM     18  N   UNL     1      -8.675  -1.945 122.791  0.00  0.00    +0.000 NA
ATOM     19  C   UNL     1      -7.228  -1.699 122.826  0.00  0.00    +0.000 C 
ATOM     20  C   UNL     1      -9.052  -2.705 123.987  0.00  0.00    +0.000 C 
ENDBRANCH  17  18
ENDBRANCH  16  17
ENDBRANCH  12  15
ENDBRANCH   2  11
BRANCH   5  21
ATOM     21  N   UNL     1      -6.605   2.569 130.497  0.00  0.00    +0.000 N 
ATOM     22  H   UNL     1      -6.498   1.660 130.939  0.00  0.00    +0.000 HD
BRANCH  21  23
ATOM     23  C   UNL     1      -7.836   3.180 130.809  0.00  0.00    +0.000 A 
ATOM     24  C   UNL     1      -8.969   2.951 130.026  0.00  0.00    +0.000 A 
ATOM     25  C   UNL     1     -10.117   3.741 130.175  0.00  0.00    +0.000 A 
ATOM     26  C   UNL     1     -10.189   4.739 131.164  0.00  0.00    +0.000 A 
ATOM     27  C   UNL     1      -9.065   4.918 131.995  0.00  0.00    +0.000 A 
ATOM     28 CL   UNL     1      -8.892   6.080 133.274  0.00  0.00    +0.000 Cl
ATOM     29  C   UNL     1      -7.913   4.137 131.816  0.00  0.00    +0.000 A 
BRANCH  26  30
ATOM     30  O   UNL     1     -11.387   5.411 131.162  0.00  0.00    +0.000 OA
BRANCH  30  31
ATOM     31  C   UNL     1     -11.355   6.780 130.764  0.00  0.00    +0.000 C 
BRANCH  31  32
ATOM     32  C   UNL     1     -11.590   6.951 129.289  0.00  0.00    +0.000 A 
ATOM     33  C   UNL     1     -12.881   6.833 128.787  0.00  0.00    +0.000 A 
ATOM     34  C   UNL     1     -13.078   6.995 127.424  0.00  0.00    +0.000 A 
ATOM     35  C   UNL     1     -11.990   7.289 126.610  0.00  0.00    +0.000 A 
ATOM     36  C   UNL     1     -10.744   7.430 127.196  0.00  0.00    +0.000 A 
ATOM     37  N   UNL     1     -10.522   7.271 128.515  0.00  0.00    +0.000 NA
ENDBRANCH  31  32
ENDBRANCH  30  31
ENDBRANCH  26  30
ENDBRANCH  21  23
ENDBRANCH   5  21
BRANCH   6  38
ATOM     38  C   UNL     1      -4.160   3.704 131.878  0.00  0.00    +0.000 C 
ATOM     39  N   UNL     1      -3.936   3.656 133.010  0.00  0.00    +0.000 NA
ENDBRANCH   6  38
BRANCH   1  40
ATOM     40  O   UNL     1      -5.168   3.257 124.142  0.00  0.00    +0.000 OA
BRANCH  40  42
ATOM     41  C   UNL     1      -6.350   3.752 122.103  0.00  0.00    +0.000 C 
ATOM     42  C   UNL     1      -5.875   4.287 123.441  0.00  0.00    +0.000 C 
ENDBRANCH  40  42
ENDBRANCH   1  40
TORSDOF 12
ENDMDL
MODEL 8
REMARK VINA RESULT:      -7.8      2.608      7.881
REMARK  Name = Neratinib
REMARK  15 active torsions:
REMARK  status: ('A' for Active; 'I' for Inactive)
REMARK    1  A    between atoms: C_1  and  C_2
REMARK    2  A    between atoms: C_2  and  O_3
REMARK    3  A    between atoms: O_3  and  C_4
REMARK    4  A    between atoms: C_5  and  N_6
REMARK    5  A    between atoms: C_7  and  C_9
REMARK    6  A    between atoms: C_10  and  C_11
REMARK    7  A    between atoms: C_11  and  N_12
REMARK    8  A    between atoms: N_12  and  C_13
REMARK    9  A    between atoms: N_12  and  C_14
REMARK   10  A    between atoms: C_17  and  N_18
REMARK   11  A    between atoms: N_18  and  C_19
REMARK   12  A    between atoms: C_22  and  O_23
REMARK   13  A    between atoms: O_23  and  C_24
REMARK   14  A    between atoms: C_24  and  C_25
REMARK   15  A    between atoms: C_34  and  C_39
REMARK                            x       y       z     vdW  Elec       q    Type
REMARK                         _______ _______ _______ _____ _____    ______ ____
ROOT
ATOM      1  C   UNL     1      -7.807   3.210 133.769  0.00  0.00    +0.000 A 
ATOM      2  C   UNL     1      -8.610   2.565 132.820  0.00  0.00    +0.000 A 
ATOM      3  C   UNL     1      -8.268   1.248 132.476  0.00  0.00    +0.000 A 
ATOM      4  C   UNL     1      -7.154   0.544 132.968  0.00  0.00    +0.000 A 
ATOM      5  C   UNL     1      -6.818  -0.795 132.561  0.00  0.00    +0.000 A 
ATOM      6  C   UNL     1      -5.635  -1.332 133.091  0.00  0.00    +0.000 A 
ATOM      7  C   UNL     1      -4.910  -0.577 133.994  0.00  0.00    +0.000 A 
ATOM      8  N   UNL     1      -5.231   0.669 134.399  0.00  0.00    +0.000 NA
ATOM      9  C   UNL     1      -6.331   1.233 133.883  0.00  0.00    +0.000 A 
ATOM     10  C   UNL     1      -6.668   2.537 134.264  0.00  0.00    +0.000 A 
ENDROOT
BRANCH   2  11
ATOM     11  N   UNL     1      -9.706   3.202 132.165  0.00  0.00    +0.000 N 
ATOM     12  C   UNL     1      -9.715   3.661 130.863  0.00  0.00    +0.000 C 
ATOM     13  O   UNL     1      -8.768   3.650 130.084  0.00  0.00    +0.000 OA
ATOM     14  H   UNL     1     -10.522   3.393 132.723  0.00  0.00    +0.000 HD
BRANCH  12  15
ATOM     15  C   UNL     1     -11.023   4.194 130.395  0.00  0.00    +0.000 C 
ATOM     16  C   UNL     1     -11.168   5.532 130.422  0.00  0.00    +0.000 C 
BRANCH  16  17
ATOM     17  C   UNL     1     -12.371   6.282 129.940  0.00  0.00    +0.000 C 
BRANCH  17  18
ATOM     18  N   UNL     1     -12.393   6.448 128.477  0.00  0.00    +0.000 NA
ATOM     19  C   UNL     1     -13.661   7.030 128.019  0.00  0.00    +0.000 C 
ATOM     20  C   UNL     1     -11.294   7.327 128.063  0.00  0.00    +0.000 C 
ENDBRANCH  17  18
ENDBRANCH  16  17
ENDBRANCH  12  15
ENDBRANCH   2  11
BRANCH   5  21
ATOM     21  N   UNL     1      -7.674  -1.534 131.683  0.00  0.00    +0.000 N 
ATOM     22  H   UNL     1      -8.563  -1.868 132.045  0.00  0.00    +0.000 HD
BRANCH  21  23
ATOM     23  C   UNL     1      -7.539  -1.749 130.297  0.00  0.00    +0.000 A 
ATOM     24  C   UNL     1      -6.931  -0.796 129.479  0.00  0.00    +0.000 A 
ATOM     25  C   UNL     1      -7.019  -0.884 128.083  0.00  0.00    +0.000 A 
ATOM     26  C   UNL     1      -7.660  -1.972 127.464  0.00  0.00    +0.000 A 
ATOM     27  C   UNL     1      -8.213  -2.966 128.296  0.00  0.00    +0.000 A 
ATOM     28 CL   UNL     1      -9.062  -4.393 127.788  0.00  0.00    +0.000 Cl
ATOM     29  C   UNL     1      -8.140  -2.850 129.693  0.00  0.00    +0.000 A 
BRANCH  26  30
ATOM     30  O   UNL     1      -7.650  -1.891 126.092  0.00  0.00    +0.000 OA
BRANCH  30  31
ATOM     31  C   UNL     1      -8.890  -1.582 125.458  0.00  0.00    +0.000 C 
BRANCH  31  32
ATOM     32  C   UNL     1      -8.858  -0.248 124.764  0.00  0.00    +0.000 A 
ATOM     33  C   UNL     1      -7.707   0.140 124.087  0.00  0.00    +0.000 A 
ATOM     34  C   UNL     1      -7.698   1.373 123.452  0.00  0.00    +0.000 A 
ATOM     35  C   UNL     1      -8.838   2.168 123.494  0.00  0.00    +0.000 A 
ATOM     36  C   UNL     1      -9.955   1.688 124.156  0.00  0.00    +0.000 A 
ATOM     37  N   UNL     1      -9.991   0.500 124.786  0.00  0.00    +0.000 NA
ENDBRANCH  31  32
ENDBRANCH  30  31
ENDBRANCH  26  30
ENDBRANCH  21  23
ENDBRANCH   5  21
BRANCH   6  38
ATOM     38  C   UNL     1      -5.060  -2.606 132.776  0.00  0.00    +0.000 C 
ATOM     39  N   UNL     1      -4.537  -3.595 132.489  0.00  0.00    +0.000 NA
ENDBRANCH   6  38
BRANCH   1  40
ATOM     40  O   UNL     1      -7.967   4.505 134.205  0.00  0.00    +0.000 OA
BRANCH  40  42
ATOM     41  C   UNL     1      -7.606   6.132 132.467  0.00  0.00    +0.000 C 
ATOM     42  C   UNL     1      -7.030   5.462 133.700  0.00  0.00    +0.000 C 
ENDBRANCH  40  42
ENDBRANCH   1  40
TORSDOF 12
ENDMDL
MODEL 9
REMARK VINA RESULT:      -7.8      2.645      7.884
REMARK  Name = Neratinib
REMARK  15 active torsions:
REMARK  status: ('A' for Active; 'I' for Inactive)
REMARK    1  A    between atoms: C_1  and  C_2
REMARK    2  A    between atoms: C_2  and  O_3
REMARK    3  A    between atoms: O_3  and  C_4
REMARK    4  A    between atoms: C_5  and  N_6
REMARK    5  A    between atoms: C_7  and  C_9
REMARK    6  A    between atoms: C_10  and  C_11
REMARK    7  A    between atoms: C_11  and  N_12
REMARK    8  A    between atoms: N_12  and  C_13
REMARK    9  A    between atoms: N_12  and  C_14
REMARK   10  A    between atoms: C_17  and  N_18
REMARK   11  A    between atoms: N_18  and  C_19
REMARK   12  A    between atoms: C_22  and  O_23
REMARK   13  A    between atoms: O_23  and  C_24
REMARK   14  A    between atoms: C_24  and  C_25
REMARK   15  A    between atoms: C_34  and  C_39
REMARK                            x       y       z     vdW  Elec       q    Type
REMARK                         _______ _______ _______ _____ _____    ______ ____
ROOT
ATOM      1  C   UNL     1      -7.002  -0.831 129.785  0.00  0.00    +0.000 A 
ATOM      2  C   UNL     1      -7.443   0.319 129.118  0.00  0.00    +0.000 A 
ATOM      3  C   UNL     1      -8.083   0.140 127.882  0.00  0.00    +0.000 A 
ATOM      4  C   UNL     1      -8.271  -1.095 127.236  0.00  0.00    +0.000 A 
ATOM      5  C   UNL     1      -8.901  -1.231 125.948  0.00  0.00    +0.000 A 
ATOM      6  C   UNL     1      -8.949  -2.525 125.409  0.00  0.00    +0.000 A 
ATOM      7  C   UNL     1      -8.446  -3.574 126.154  0.00  0.00    +0.000 A 
ATOM      8  N   UNL     1      -7.875  -3.458 127.372  0.00  0.00    +0.000 NA
ATOM      9  C   UNL     1      -7.773  -2.234 127.904  0.00  0.00    +0.000 A 
ATOM     10  C   UNL     1      -7.156  -2.084 129.151  0.00  0.00    +0.000 A 
ENDROOT
BRANCH   2  11
ATOM     11  N   UNL     1      -7.220   1.638 129.612  0.00  0.00    +0.000 N 
ATOM     12  C   UNL     1      -8.135   2.673 129.601  0.00  0.00    +0.000 C 
ATOM     13  O   UNL     1      -9.259   2.642 129.111  0.00  0.00    +0.000 OA
ATOM     14  H   UNL     1      -6.292   1.852 129.938  0.00  0.00    +0.000 HD
BRANCH  12  15
ATOM     15  C   UNL     1      -7.680   3.920 130.274  0.00  0.00    +0.000 C 
ATOM     16  C   UNL     1      -8.461   5.004 130.115  0.00  0.00    +0.000 C 
BRANCH  16  17
ATOM     17  C   UNL     1      -8.228   6.339 130.752  0.00  0.00    +0.000 C 
BRANCH  17  18
ATOM     18  N   UNL     1      -9.478   7.000 131.167  0.00  0.00    +0.000 NA
ATOM     19  C   UNL     1     -10.411   7.143 130.043  0.00  0.00    +0.000 C 
ATOM     20  C   UNL     1     -10.126   6.212 132.221  0.00  0.00    +0.000 C 
ENDBRANCH  17  18
ENDBRANCH  16  17
ENDBRANCH  12  15
ENDBRANCH   2  11
BRANCH   5  21
ATOM     21  N   UNL     1      -9.469  -0.097 125.285  0.00  0.00    +0.000 N 
ATOM     22  H   UNL     1     -10.475   0.043 125.343  0.00  0.00    +0.000 HD
BRANCH  21  23
ATOM     23  C   UNL     1      -8.809   0.983 124.666  0.00  0.00    +0.000 A 
ATOM     24  C   UNL     1      -7.959   0.777 123.579  0.00  0.00    +0.000 A 
ATOM     25  C   UNL     1      -7.111   1.797 123.126  0.00  0.00    +0.000 A 
ATOM     26  C   UNL     1      -7.143   3.078 123.704  0.00  0.00    +0.000 A 
ATOM     27  C   UNL     1      -8.053   3.299 124.757  0.00  0.00    +0.000 A 
ATOM     28 CL   UNL     1      -8.280   4.774 125.645  0.00  0.00    +0.000 Cl
ATOM     29  C   UNL     1      -8.877   2.260 125.218  0.00  0.00    +0.000 A 
BRANCH  26  30
ATOM     30  O   UNL     1      -6.245   3.948 123.133  0.00  0.00    +0.000 OA
BRANCH  30  31
ATOM     31  C   UNL     1      -5.511   3.467 122.009  0.00  0.00    +0.000 C 
BRANCH  31  32
ATOM     32  C   UNL     1      -5.847   4.211 120.747  0.00  0.00    +0.000 A 
ATOM     33  C   UNL     1      -6.971   3.840 120.017  0.00  0.00    +0.000 A 
ATOM     34  C   UNL     1      -7.266   4.540 118.856  0.00  0.00    +0.000 A 
ATOM     35  C   UNL     1      -6.447   5.596 118.473  0.00  0.00    +0.000 A 
ATOM     36  C   UNL     1      -5.371   5.926 119.279  0.00  0.00    +0.000 A 
ATOM     37  N   UNL     1      -5.057   5.261 120.406  0.00  0.00    +0.000 NA
ENDBRANCH  31  32
ENDBRANCH  30  31
ENDBRANCH  26  30
ENDBRANCH  21  23
ENDBRANCH   5  21
BRANCH   6  38
ATOM     38  C   UNL     1      -9.455  -2.893 124.120  0.00  0.00    +0.000 C 
ATOM     39  N   UNL     1      -9.790  -3.186 123.054  0.00  0.00    +0.000 NA
ENDBRANCH   6  38
BRANCH   1  40
ATOM     40  O   UNL     1      -6.329  -0.852 130.985  0.00  0.00    +0.000 OA
BRANCH  40  42
ATOM     41  C   UNL     1      -4.193  -1.942 131.205  0.00  0.00    +0.000 C 
ATOM     42  C   UNL     1      -5.698  -2.089 131.334  0.00  0.00    +0.000 C 
ENDBRANCH  40  42
ENDBRANCH   1  40
TORSDOF 12
ENDMDL
