MODEL 1
REMARK VINA RESULT:      -9.4      0.000      0.000
REMARK  Name = Netarsudil
REMARK  11 active torsions:
REMARK  status: ('A' for Active; 'I' for Inactive)
REMARK    1  A    between atoms: C_1  and  C_2
REMARK    2  A    between atoms: C_4  and  C_5
REMARK    3  A    between atoms: C_6  and  C_9
REMARK    4  A    between atoms: C_9  and  O_11
REMARK    5  A    between atoms: O_11  and  C_12
REMARK    6  A    between atoms: C_12  and  C_13
REMARK    7  A    between atoms: C_16  and  C_19
REMARK    8  A    between atoms: C_19  and  C_20
REMARK    9  A    between atoms: C_19  and  C_22
REMARK   10  A    between atoms: C_20  and  N_21
REMARK   11  A    between atoms: N_24  and  C_25
REMARK                            x       y       z     vdW  Elec       q    Type
REMARK                         _______ _______ _______ _____ _____    ______ ____
ROOT
ATOM      1  C   UNL     1      -8.739   3.847 133.972  0.00  0.00    +0.000 C 
ENDROOT
BRANCH   1   5
ATOM      2  C   UNL     1      -7.309   0.004 132.523  0.00  0.00    +0.000 A 
ATOM      3  C   UNL     1      -8.551   0.488 132.139  0.00  0.00    +0.000 A 
ATOM      4  C   UNL     1      -8.908   1.800 132.454  0.00  0.00    +0.000 A 
ATOM      5  C   UNL     1      -8.189   2.554 133.367  0.00  0.00    +0.000 A 
ATOM      6  C   UNL     1      -6.975   2.016 133.735  0.00  0.00    +0.000 A 
ATOM      7  C   UNL     1      -6.540   0.785 133.341  0.00  0.00    +0.000 A 
BRANCH   2   8
ATOM      8  C   UNL     1      -6.708  -1.264 132.010  0.00  0.00    +0.000 C 
BRANCH   8   9
ATOM      9  O   UNL     1      -6.899  -1.348 130.569  0.00  0.00    +0.000 OA
BRANCH   9  10
ATOM     10  C   UNL     1      -6.669  -2.566 130.029  0.00  0.00    +0.000 C 
ATOM     11  O   UNL     1      -6.002  -3.415 130.597  0.00  0.00    +0.000 OA
BRANCH  10  17
ATOM     12  C   UNL     1      -9.087  -3.364 124.769  0.00  0.00    +0.000 C 
ATOM     13  C   UNL     1      -8.456  -3.146 126.110  0.00  0.00    +0.000 A 
ATOM     14  C   UNL     1      -7.263  -2.432 126.251  0.00  0.00    +0.000 A 
ATOM     15  C   UNL     1      -6.672  -2.254 127.519  0.00  0.00    +0.000 A 
ATOM     16  C   UNL     1      -5.390  -1.488 127.667  0.00  0.00    +0.000 C 
ATOM     17  C   UNL     1      -7.291  -2.781 128.670  0.00  0.00    +0.000 A 
ATOM     18  C   UNL     1      -8.482  -3.485 128.512  0.00  0.00    +0.000 A 
ATOM     19  C   UNL     1      -9.056  -3.672 127.250  0.00  0.00    +0.000 A 
ENDBRANCH  10  17
ENDBRANCH   9  10
ENDBRANCH   8   9
ENDBRANCH   2   8
ENDBRANCH   1   5
BRANCH   1  20
ATOM     20  C   UNL     1      -9.210   4.862 132.891  0.00  0.00    +0.000 C 
ATOM     21  O   UNL     1      -8.603   5.896 132.625  0.00  0.00    +0.000 OA
ATOM     22  N   UNL     1     -10.372   4.671 132.193  0.00  0.00    +0.000 N 
ATOM     23  H   UNL     1     -10.981   3.890 132.390  0.00  0.00    +0.000 HD
BRANCH  22  24
ATOM     24  C   UNL     1     -10.765   5.624 131.192  0.00  0.00    +0.000 A 
ATOM     25  C   UNL     1     -10.177   5.591 129.948  0.00  0.00    +0.000 A 
ATOM     26  C   UNL     1     -10.406   6.645 129.074  0.00  0.00    +0.000 A 
ATOM     27  C   UNL     1     -11.378   7.594 129.254  0.00  0.00    +0.000 A 
ATOM     28  C   UNL     1     -11.655   8.389 128.219  0.00  0.00    +0.000 A 
ATOM     29  N   UNL     1     -12.531   9.225 128.589  0.00  0.00    +0.000 NA
ATOM     30  C   UNL     1     -13.430  10.112 128.923  0.00  0.00    +0.000 A 
ATOM     31  C   UNL     1     -13.106   9.172 130.147  0.00  0.00    +0.000 A 
ATOM     32  C   UNL     1     -12.122   7.792 130.412  0.00  0.00    +0.000 A 
ATOM     33  C   UNL     1     -11.716   6.675 131.424  0.00  0.00    +0.000 A 
ENDBRANCH  22  24
ENDBRANCH   1  20
BRANCH   1  34
ATOM     34  C   UNL     1      -7.646   4.499 134.843  0.00  0.00    +0.000 C 
BRANCH  34  35
ATOM     35  N   UNL     1      -8.151   5.611 135.647  0.00  0.00    +0.000 NA
ATOM     36  H   UNL     1      -7.455   6.347 135.728  0.00  0.00    +0.000 HD
ATOM     37  H   UNL     1      -8.473   5.318 136.558  0.00  0.00    +0.000 HD
ENDBRANCH  34  35
ENDBRANCH   1  34
TORSDOF 9
ENDMDL
MODEL 2
REMARK VINA RESULT:      -9.3      3.142      4.799
REMARK  Name = Netarsudil
REMARK  11 active torsions:
REMARK  status: ('A' for Active; 'I' for Inactive)
REMARK    1  A    between atoms: C_1  and  C_2
REMARK    2  A    between atoms: C_4  and  C_5
REMARK    3  A    between atoms: C_6  and  C_9
REMARK    4  A    between atoms: C_9  and  O_11
REMARK    5  A    between atoms: O_11  and  C_12
REMARK    6  A    between atoms: C_12  and  C_13
REMARK    7  A    between atoms: C_16  and  C_19
REMARK    8  A    between atoms: C_19  and  C_20
REMARK    9  A    between atoms: C_19  and  C_22
REMARK   10  A    between atoms: C_20  and  N_21
REMARK   11  A    between atoms: N_24  and  C_25
REMARK                            x       y       z     vdW  Elec       q    Type
REMARK                         _______ _______ _______ _____ _____    ______ ____
ROOT
ATOM      1  C   UNL     1      -7.821   2.260 129.351  0.00  0.00    +0.000 C 
ENDROOT
BRANCH   1   5
ATOM      2  C   UNL     1      -7.836   1.207 125.132  0.00  0.00    +0.000 A 
ATOM      3  C   UNL     1      -6.731   1.819 125.705  0.00  0.00    +0.000 A 
ATOM      4  C   UNL     1      -6.667   1.969 127.091  0.00  0.00    +0.000 A 
ATOM      5  C   UNL     1      -7.778   1.783 127.898  0.00  0.00    +0.000 A 
ATOM      6  C   UNL     1      -8.856   1.197 127.273  0.00  0.00    +0.000 A 
ATOM      7  C   UNL     1      -8.902   0.920 125.938  0.00  0.00    +0.000 A 
BRANCH   2   8
ATOM      8  C   UNL     1      -7.895   0.740 123.713  0.00  0.00    +0.000 C 
BRANCH   8   9
ATOM      9  O   UNL     1      -6.674   0.017 123.386  0.00  0.00    +0.000 OA
BRANCH   9  10
ATOM     10  C   UNL     1      -6.797  -1.328 123.344  0.00  0.00    +0.000 C 
ATOM     11  O   UNL     1      -6.536  -1.976 122.344  0.00  0.00    +0.000 OA
BRANCH  10  17
ATOM     12  C   UNL     1      -8.741  -3.733 128.304  0.00  0.00    +0.000 C 
ATOM     13  C   UNL     1      -8.260  -3.118 127.025  0.00  0.00    +0.000 A 
ATOM     14  C   UNL     1      -9.009  -3.195 125.848  0.00  0.00    +0.000 A 
ATOM     15  C   UNL     1      -8.531  -2.629 124.648  0.00  0.00    +0.000 A 
ATOM     16  C   UNL     1      -9.337  -2.715 123.385  0.00  0.00    +0.000 C 
ATOM     17  C   UNL     1      -7.293  -1.957 124.625  0.00  0.00    +0.000 A 
ATOM     18  C   UNL     1      -6.562  -1.884 125.808  0.00  0.00    +0.000 A 
ATOM     19  C   UNL     1      -7.033  -2.461 126.992  0.00  0.00    +0.000 A 
ENDBRANCH  10  17
ENDBRANCH   9  10
ENDBRANCH   8   9
ENDBRANCH   2   8
ENDBRANCH   1   5
BRANCH   1  20
ATOM     20  C   UNL     1      -8.908   3.346 129.594  0.00  0.00    +0.000 C 
ATOM     21  O   UNL     1     -10.113   3.112 129.573  0.00  0.00    +0.000 OA
ATOM     22  N   UNL     1      -8.572   4.656 129.807  0.00  0.00    +0.000 N 
ATOM     23  H   UNL     1      -7.611   4.963 129.769  0.00  0.00    +0.000 HD
BRANCH  22  24
ATOM     24  C   UNL     1      -9.604   5.627 130.043  0.00  0.00    +0.000 A 
ATOM     25  C   UNL     1     -10.223   5.683 131.270  0.00  0.00    +0.000 A 
ATOM     26  C   UNL     1     -11.358   6.470 131.409  0.00  0.00    +0.000 A 
ATOM     27  C   UNL     1     -11.765   7.399 130.488  0.00  0.00    +0.000 A 
ATOM     28  C   UNL     1     -12.715   8.258 130.864  0.00  0.00    +0.000 A 
ATOM     29  N   UNL     1     -12.993   8.995 129.874  0.00  0.00    +0.000 NA
ATOM     30  C   UNL     1     -13.320   9.779 128.880  0.00  0.00    +0.000 A 
ATOM     31  C   UNL     1     -12.194   8.768 128.434  0.00  0.00    +0.000 A 
ATOM     32  C   UNL     1     -11.263   7.547 129.200  0.00  0.00    +0.000 A 
ATOM     33  C   UNL     1     -10.089   6.531 129.037  0.00  0.00    +0.000 A 
ENDBRANCH  22  24
ENDBRANCH   1  20
BRANCH   1  34
ATOM     34  C   UNL     1      -6.439   2.826 129.735  0.00  0.00    +0.000 C 
BRANCH  34  35
ATOM     35  N   UNL     1      -6.282   3.006 131.177  0.00  0.00    +0.000 NA
ATOM     36  H   UNL     1      -5.542   3.672 131.383  0.00  0.00    +0.000 HD
ATOM     37  H   UNL     1      -6.127   2.135 131.665  0.00  0.00    +0.000 HD
ENDBRANCH  34  35
ENDBRANCH   1  34
TORSDOF 9
ENDMDL
MODEL 3
REMARK VINA RESULT:      -9.3      6.776     10.004
REMARK  Name = Netarsudil
REMARK  11 active torsions:
REMARK  status: ('A' for Active; 'I' for Inactive)
REMARK    1  A    between atoms: C_1  and  C_2
REMARK    2  A    between atoms: C_4  and  C_5
REMARK    3  A    between atoms: C_6  and  C_9
REMARK    4  A    between atoms: C_9  and  O_11
REMARK    5  A    between atoms: O_11  and  C_12
REMARK    6  A    between atoms: C_12  and  C_13
REMARK    7  A    between atoms: C_16  and  C_19
REMARK    8  A    between atoms: C_19  and  C_20
REMARK    9  A    between atoms: C_19  and  C_22
REMARK   10  A    between atoms: C_20  and  N_21
REMARK   11  A    between atoms: N_24  and  C_25
REMARK                            x       y       z     vdW  Elec       q    Type
REMARK                         _______ _______ _______ _____ _____    ______ ____
ROOT
ATOM      1  C   UNL     1      -4.855  -3.286 129.202  0.00  0.00    +0.000 C 
ENDROOT
BRANCH   1   5
ATOM      2  C   UNL     1      -7.464  -0.638 126.945  0.00  0.00    +0.000 A 
ATOM      3  C   UNL     1      -6.092  -0.438 126.957  0.00  0.00    +0.000 A 
ATOM      4  C   UNL     1      -5.259  -1.405 127.521  0.00  0.00    +0.000 A 
ATOM      5  C   UNL     1      -5.757  -2.427 128.313  0.00  0.00    +0.000 A 
ATOM      6  C   UNL     1      -7.127  -2.565 128.286  0.00  0.00    +0.000 A 
ATOM      7  C   UNL     1      -7.965  -1.707 127.637  0.00  0.00    +0.000 A 
BRANCH   2   8
ATOM      8  C   UNL     1      -8.424   0.172 126.134  0.00  0.00    +0.000 C 
BRANCH   8   9
ATOM      9  O   UNL     1      -9.312  -0.716 125.398  0.00  0.00    +0.000 OA
BRANCH   9  10
ATOM     10  C   UNL     1      -8.938  -0.976 124.125  0.00  0.00    +0.000 C 
ATOM     11  O   UNL     1      -9.551  -0.541 123.163  0.00  0.00    +0.000 OA
BRANCH  10  17
ATOM     12  C   UNL     1      -4.201  -4.366 123.651  0.00  0.00    +0.000 C 
ATOM     13  C   UNL     1      -5.424  -3.510 123.784  0.00  0.00    +0.000 A 
ATOM     14  C   UNL     1      -6.619  -4.015 124.302  0.00  0.00    +0.000 A 
ATOM     15  C   UNL     1      -7.766  -3.200 124.400  0.00  0.00    +0.000 A 
ATOM     16  C   UNL     1      -9.049  -3.746 124.955  0.00  0.00    +0.000 C 
ATOM     17  C   UNL     1      -7.715  -1.852 123.993  0.00  0.00    +0.000 A 
ATOM     18  C   UNL     1      -6.514  -1.364 123.485  0.00  0.00    +0.000 A 
ATOM     19  C   UNL     1      -5.384  -2.180 123.374  0.00  0.00    +0.000 A 
ENDBRANCH  10  17
ENDBRANCH   9  10
ENDBRANCH   8   9
ENDBRANCH   2   8
ENDBRANCH   1   5
BRANCH   1  20
ATOM     20  C   UNL     1      -5.594  -3.829 130.459  0.00  0.00    +0.000 C 
ATOM     21  O   UNL     1      -6.023  -4.975 130.548  0.00  0.00    +0.000 OA
ATOM     22  N   UNL     1      -5.845  -3.027 131.540  0.00  0.00    +0.000 N 
ATOM     23  H   UNL     1      -5.598  -2.047 131.535  0.00  0.00    +0.000 HD
BRANCH  22  24
ATOM     24  C   UNL     1      -6.516  -3.569 132.688  0.00  0.00    +0.000 A 
ATOM     25  C   UNL     1      -7.774  -3.122 133.020  0.00  0.00    +0.000 A 
ATOM     26  C   UNL     1      -8.312  -3.492 134.245  0.00  0.00    +0.000 A 
ATOM     27  C   UNL     1      -7.795  -4.479 135.044  0.00  0.00    +0.000 A 
ATOM     28  C   UNL     1      -8.552  -4.903 136.058  0.00  0.00    +0.000 A 
ATOM     29  N   UNL     1      -7.891  -5.768 136.705  0.00  0.00    +0.000 NA
ATOM     30  C   UNL     1      -7.250  -6.662 137.410  0.00  0.00    +0.000 A 
ATOM     31  C   UNL     1      -6.355  -6.164 136.210  0.00  0.00    +0.000 A 
ATOM     32  C   UNL     1      -6.560  -5.098 134.883  0.00  0.00    +0.000 A 
ATOM     33  C   UNL     1      -5.924  -4.533 133.573  0.00  0.00    +0.000 A 
ENDBRANCH  22  24
ENDBRANCH   1  20
BRANCH   1  34
ATOM     34  C   UNL     1      -3.641  -2.444 129.646  0.00  0.00    +0.000 C 
BRANCH  34  35
ATOM     35  N   UNL     1      -3.025  -2.944 130.875  0.00  0.00    +0.000 NA
ATOM     36  H   UNL     1      -3.037  -2.234 131.602  0.00  0.00    +0.000 HD
ATOM     37  H   UNL     1      -2.089  -3.293 130.727  0.00  0.00    +0.000 HD
ENDBRANCH  34  35
ENDBRANCH   1  34
TORSDOF 9
ENDMDL
MODEL 4
REMARK VINA RESULT:      -9.3      5.529      6.969
REMARK  Name = Netarsudil
REMARK  11 active torsions:
REMARK  status: ('A' for Active; 'I' for Inactive)
REMARK    1  A    between atoms: C_1  and  C_2
REMARK    2  A    between atoms: C_4  and  C_5
REMARK    3  A    between atoms: C_6  and  C_9
REMARK    4  A    between atoms: C_9  and  O_11
REMARK    5  A    between atoms: O_11  and  C_12
REMARK    6  A    between atoms: C_12  and  C_13
REMARK    7  A    between atoms: C_16  and  C_19
REMARK    8  A    between atoms: C_19  and  C_20
REMARK    9  A    between atoms: C_19  and  C_22
REMARK   10  A    between atoms: C_20  and  N_21
REMARK   11  A    between atoms: N_24  and  C_25
REMARK                            x       y       z     vdW  Elec       q    Type
REMARK                         _______ _______ _______ _____ _____    ______ ____
ROOT
ATOM      1  C   UNL     1      -5.098   3.516 127.660  0.00  0.00    +0.000 C 
ENDROOT
BRANCH   1   5
ATOM      2  C   UNL     1      -6.541   0.159 130.019  0.00  0.00    +0.000 A 
ATOM      3  C   UNL     1      -7.431   1.016 129.388  0.00  0.00    +0.000 A 
ATOM      4  C   UNL     1      -6.952   1.962 128.482  0.00  0.00    +0.000 A 
ATOM      5  C   UNL     1      -5.604   2.269 128.388  0.00  0.00    +0.000 A 
ATOM      6  C   UNL     1      -4.766   1.402 129.055  0.00  0.00    +0.000 A 
ATOM      7  C   UNL     1      -5.203   0.384 129.851  0.00  0.00    +0.000 A 
BRANCH   2   8
ATOM      8  C   UNL     1      -6.948  -1.062 130.779  0.00  0.00    +0.000 C 
BRANCH   8   9
ATOM      9  O   UNL     1      -7.753  -1.924 129.926  0.00  0.00    +0.000 OA
BRANCH   9  10
ATOM     10  C   UNL     1      -7.060  -2.617 128.994  0.00  0.00    +0.000 C 
ATOM     11  O   UNL     1      -6.101  -3.315 129.279  0.00  0.00    +0.000 OA
BRANCH  10  17
ATOM     12  C   UNL     1      -8.986  -1.987 123.512  0.00  0.00    +0.000 C 
ATOM     13  C   UNL     1      -8.502  -2.165 124.918  0.00  0.00    +0.000 A 
ATOM     14  C   UNL     1      -9.102  -3.078 125.790  0.00  0.00    +0.000 A 
ATOM     15  C   UNL     1      -8.647  -3.217 127.117  0.00  0.00    +0.000 A 
ATOM     16  C   UNL     1      -9.294  -4.197 128.051  0.00  0.00    +0.000 C 
ATOM     17  C   UNL     1      -7.562  -2.446 127.579  0.00  0.00    +0.000 A 
ATOM     18  C   UNL     1      -6.972  -1.545 126.696  0.00  0.00    +0.000 A 
ATOM     19  C   UNL     1      -7.437  -1.399 125.385  0.00  0.00    +0.000 A 
ENDBRANCH  10  17
ENDBRANCH   9  10
ENDBRANCH   8   9
ENDBRANCH   2   8
ENDBRANCH   1   5
BRANCH   1  20
ATOM     20  C   UNL     1      -5.846   3.773 126.320  0.00  0.00    +0.000 C 
ATOM     21  O   UNL     1      -6.366   4.847 126.033  0.00  0.00    +0.000 OA
ATOM     22  N   UNL     1      -6.001   2.781 125.390  0.00  0.00    +0.000 N 
ATOM     23  H   UNL     1      -5.675   1.841 125.565  0.00  0.00    +0.000 HD
BRANCH  22  24
ATOM     24  C   UNL     1      -6.685   3.062 124.158  0.00  0.00    +0.000 A 
ATOM     25  C   UNL     1      -8.034   2.814 124.052  0.00  0.00    +0.000 A 
ATOM     26  C   UNL     1      -8.629   2.882 122.800  0.00  0.00    +0.000 A 
ATOM     27  C   UNL     1      -8.030   3.428 121.694  0.00  0.00    +0.000 A 
ATOM     28  C   UNL     1      -8.803   3.661 120.632  0.00  0.00    +0.000 A 
ATOM     29  N   UNL     1      -8.070   4.112 119.704  0.00  0.00    +0.000 NA
ATOM     30  C   UNL     1      -7.356   4.576 118.712  0.00  0.00    +0.000 A 
ATOM     31  C   UNL     1      -6.440   4.304 119.968  0.00  0.00    +0.000 A 
ATOM     32  C   UNL     1      -6.690   3.785 121.583  0.00  0.00    +0.000 A 
ATOM     33  C   UNL     1      -6.026   3.543 122.975  0.00  0.00    +0.000 A 
ENDBRANCH  22  24
ENDBRANCH   1  20
BRANCH   1  34
ATOM     34  C   UNL     1      -3.589   3.356 127.382  0.00  0.00    +0.000 C 
BRANCH  34  35
ATOM     35  N   UNL     1      -3.225   3.723 126.014  0.00  0.00    +0.000 NA
ATOM     36  H   UNL     1      -2.963   4.703 125.957  0.00  0.00    +0.000 HD
ATOM     37  H   UNL     1      -3.950   3.505 125.346  0.00  0.00    +0.000 HD
ENDBRANCH  34  35
ENDBRANCH   1  34
TORSDOF 9
ENDMDL
MODEL 5
REMARK VINA RESULT:      -9.2      3.312      4.839
REMARK  Name = Netarsudil
REMARK  11 active torsions:
REMARK  status: ('A' for Active; 'I' for Inactive)
REMARK    1  A    between atoms: C_1  and  C_2
REMARK    2  A    between atoms: C_4  and  C_5
REMARK    3  A    between atoms: C_6  and  C_9
REMARK    4  A    between atoms: C_9  and  O_11
REMARK    5  A    between atoms: O_11  and  C_12
REMARK    6  A    between atoms: C_12  and  C_13
REMARK    7  A    between atoms: C_16  and  C_19
REMARK    8  A    between atoms: C_19  and  C_20
REMARK    9  A    between atoms: C_19  and  C_22
REMARK   10  A    between atoms: C_20  and  N_21
REMARK   11  A    between atoms: N_24  and  C_25
REMARK                            x       y       z     vdW  Elec       q    Type
REMARK                         _______ _______ _______ _____ _____    ______ ____
ROOT
ATOM      1  C   UNL     1      -8.102   2.316 129.865  0.00  0.00    +0.000 C 
ENDROOT
BRANCH   1   5
ATOM      2  C   UNL     1      -7.546   0.870 125.802  0.00  0.00    +0.000 A 
ATOM      3  C   UNL     1      -7.556  -0.012 126.872  0.00  0.00    +0.000 A 
ATOM      4  C   UNL     1      -7.928   0.442 128.137  0.00  0.00    +0.000 A 
ATOM      5  C   UNL     1      -8.027   1.794 128.429  0.00  0.00    +0.000 A 
ATOM      6  C   UNL     1      -7.985   2.627 127.333  0.00  0.00    +0.000 A 
ATOM      7  C   UNL     1      -7.748   2.198 126.061  0.00  0.00    +0.000 A 
BRANCH   2   8
ATOM      8  C   UNL     1      -7.443   0.452 124.370  0.00  0.00    +0.000 C 
BRANCH   8   9
ATOM      9  O   UNL     1      -8.769   0.140 123.856  0.00  0.00    +0.000 OA
BRANCH   9  10
ATOM     10  C   UNL     1      -8.871  -1.045 123.214  0.00  0.00    +0.000 C 
ATOM     11  O   UNL     1      -9.865  -1.361 122.580  0.00  0.00    +0.000 OA
BRANCH  10  17
ATOM     12  C   UNL     1      -4.201  -4.511 123.795  0.00  0.00    +0.000 C 
ATOM     13  C   UNL     1      -5.405  -3.629 123.663  0.00  0.00    +0.000 A 
ATOM     14  C   UNL     1      -6.532  -3.802 124.470  0.00  0.00    +0.000 A 
ATOM     15  C   UNL     1      -7.665  -2.975 124.318  0.00  0.00    +0.000 A 
ATOM     16  C   UNL     1      -8.875  -3.165 125.184  0.00  0.00    +0.000 C 
ATOM     17  C   UNL     1      -7.666  -1.945 123.356  0.00  0.00    +0.000 A 
ATOM     18  C   UNL     1      -6.532  -1.783 122.564  0.00  0.00    +0.000 A 
ATOM     19  C   UNL     1      -5.417  -2.616 122.708  0.00  0.00    +0.000 A 
ENDBRANCH  10  17
ENDBRANCH   9  10
ENDBRANCH   8   9
ENDBRANCH   2   8
ENDBRANCH   1   5
BRANCH   1  20
ATOM     20  C   UNL     1      -9.173   3.431 130.043  0.00  0.00    +0.000 C 
ATOM     21  O   UNL     1     -10.379   3.233 129.929  0.00  0.00    +0.000 OA
ATOM     22  N   UNL     1      -8.815   4.727 130.300  0.00  0.00    +0.000 N 
ATOM     23  H   UNL     1      -7.846   5.007 130.338  0.00  0.00    +0.000 HD
BRANCH  22  24
ATOM     24  C   UNL     1      -9.834   5.725 130.472  0.00  0.00    +0.000 A 
ATOM     25  C   UNL     1     -10.542   5.784 131.651  0.00  0.00    +0.000 A 
ATOM     26  C   UNL     1     -11.661   6.602 131.717  0.00  0.00    +0.000 A 
ATOM     27  C   UNL     1     -11.971   7.555 130.782  0.00  0.00    +0.000 A 
ATOM     28  C   UNL     1     -12.922   8.436 131.099  0.00  0.00    +0.000 A 
ATOM     29  N   UNL     1     -13.103   9.195 130.102  0.00  0.00    +0.000 NA
ATOM     30  C   UNL     1     -13.331  10.002 129.099  0.00  0.00    +0.000 A 
ATOM     31  C   UNL     1     -12.204   8.963 128.723  0.00  0.00    +0.000 A 
ATOM     32  C   UNL     1     -11.369   7.706 129.537  0.00  0.00    +0.000 A 
ATOM     33  C   UNL     1     -10.216   6.657 129.448  0.00  0.00    +0.000 A 
ENDBRANCH  22  24
ENDBRANCH   1  20
BRANCH   1  34
ATOM     34  C   UNL     1      -6.720   2.865 130.273  0.00  0.00    +0.000 C 
BRANCH  34  35
ATOM     35  N   UNL     1      -6.662   3.268 131.677  0.00  0.00    +0.000 NA
ATOM     36  H   UNL     1      -5.781   2.990 132.100  0.00  0.00    +0.000 HD
ATOM     37  H   UNL     1      -7.444   2.921 132.214  0.00  0.00    +0.000 HD
ENDBRANCH  34  35
ENDBRANCH   1  34
TORSDOF 9
ENDMDL
MODEL 6
REMARK VINA RESULT:      -9.2      3.890      7.535
REMARK  Name = Netarsudil
REMARK  11 active torsions:
REMARK  status: ('A' for Active; 'I' for Inactive)
REMARK    1  A    between atoms: C_1  and  C_2
REMARK    2  A    between atoms: C_4  and  C_5
REMARK    3  A    between atoms: C_6  and  C_9
REMARK    4  A    between atoms: C_9  and  O_11
REMARK    5  A    between atoms: O_11  and  C_12
REMARK    6  A    between atoms: C_12  and  C_13
REMARK    7  A    between atoms: C_16  and  C_19
REMARK    8  A    between atoms: C_19  and  C_20
REMARK    9  A    between atoms: C_19  and  C_22
REMARK   10  A    between atoms: C_20  and  N_21
REMARK   11  A    between atoms: N_24  and  C_25
REMARK                            x       y       z     vdW  Elec       q    Type
REMARK                         _______ _______ _______ _____ _____    ______ ____
ROOT
ATOM      1  C   UNL     1      -7.131  -2.658 129.385  0.00  0.00    +0.000 C 
ENDROOT
BRANCH   1   5
ATOM      2  C   UNL     1      -7.972  -2.936 125.127  0.00  0.00    +0.000 A 
ATOM      3  C   UNL     1      -8.902  -3.364 126.062  0.00  0.00    +0.000 A 
ATOM      4  C   UNL     1      -8.699  -3.088 127.414  0.00  0.00    +0.000 A 
ATOM      5  C   UNL     1      -7.476  -2.645 127.895  0.00  0.00    +0.000 A 
ATOM      6  C   UNL     1      -6.579  -2.258 126.924  0.00  0.00    +0.000 A 
ATOM      7  C   UNL     1      -6.801  -2.398 125.585  0.00  0.00    +0.000 A 
BRANCH   2   8
ATOM      8  C   UNL     1      -8.210  -2.921 123.652  0.00  0.00    +0.000 C 
BRANCH   8   9
ATOM      9  O   UNL     1      -7.785  -1.641 123.102  0.00  0.00    +0.000 OA
BRANCH   9  10
ATOM     10  C   UNL     1      -8.669  -0.630 123.252  0.00  0.00    +0.000 C 
ATOM     11  O   UNL     1      -9.848  -0.745 122.959  0.00  0.00    +0.000 OA
BRANCH  10  17
ATOM     12  C   UNL     1      -6.414   4.334 125.358  0.00  0.00    +0.000 C 
ATOM     13  C   UNL     1      -7.005   3.062 124.832  0.00  0.00    +0.000 A 
ATOM     14  C   UNL     1      -7.926   2.320 125.575  0.00  0.00    +0.000 A 
ATOM     15  C   UNL     1      -8.457   1.114 125.073  0.00  0.00    +0.000 A 
ATOM     16  C   UNL     1      -9.445   0.317 125.875  0.00  0.00    +0.000 C 
ATOM     17  C   UNL     1      -8.078   0.649 123.798  0.00  0.00    +0.000 A 
ATOM     18  C   UNL     1      -7.163   1.404 123.068  0.00  0.00    +0.000 A 
ATOM     19  C   UNL     1      -6.627   2.591 123.577  0.00  0.00    +0.000 A 
ENDBRANCH  10  17
ENDBRANCH   9  10
ENDBRANCH   8   9
ENDBRANCH   2   8
ENDBRANCH   1   5
BRANCH   1  20
ATOM     20  C   UNL     1      -7.485  -1.319 130.094  0.00  0.00    +0.000 C 
ATOM     21  O   UNL     1      -7.445  -0.227 129.534  0.00  0.00    +0.000 OA
ATOM     22  N   UNL     1      -7.828  -1.283 131.419  0.00  0.00    +0.000 N 
ATOM     23  H   UNL     1      -7.818  -2.118 131.986  0.00  0.00    +0.000 HD
BRANCH  22  24
ATOM     24  C   UNL     1      -8.164  -0.029 132.033  0.00  0.00    +0.000 A 
ATOM     25  C   UNL     1      -9.414   0.514 131.842  0.00  0.00    +0.000 A 
ATOM     26  C   UNL     1      -9.645   1.819 132.256  0.00  0.00    +0.000 A 
ATOM     27  C   UNL     1      -8.802   2.525 133.074  0.00  0.00    +0.000 A 
ATOM     28  C   UNL     1      -9.268   3.661 133.598  0.00  0.00    +0.000 A 
ATOM     29  N   UNL     1      -8.338   4.191 134.274  0.00  0.00    +0.000 NA
ATOM     30  C   UNL     1      -7.411   4.782 134.981  0.00  0.00    +0.000 A 
ATOM     31  C   UNL     1      -6.859   3.438 134.366  0.00  0.00    +0.000 A 
ATOM     32  C   UNL     1      -7.509   2.156 133.430  0.00  0.00    +0.000 A 
ATOM     33  C   UNL     1      -7.239   0.749 132.809  0.00  0.00    +0.000 A 
ENDBRANCH  22  24
ENDBRANCH   1  20
BRANCH   1  34
ATOM     34  C   UNL     1      -5.623  -2.939 129.549  0.00  0.00    +0.000 C 
BRANCH  34  35
ATOM     35  N   UNL     1      -4.923  -1.872 130.262  0.00  0.00    +0.000 NA
ATOM     36  H   UNL     1      -3.975  -1.761 129.912  0.00  0.00    +0.000 HD
ATOM     37  H   UNL     1      -4.923  -2.008 131.263  0.00  0.00    +0.000 HD
ENDBRANCH  34  35
ENDBRANCH   1  34
TORSDOF 9
ENDMDL
MODEL 7
REMARK VINA RESULT:      -9.0      3.386      5.772
REMARK  Name = Netarsudil
REMARK  11 active torsions:
REMARK  status: ('A' for Active; 'I' for Inactive)
REMARK    1  A    between atoms: C_1  and  C_2
REMARK    2  A    between atoms: C_4  and  C_5
REMARK    3  A    between atoms: C_6  and  C_9
REMARK    4  A    between atoms: C_9  and  O_11
REMARK    5  A    between atoms: O_11  and  C_12
REMARK    6  A    between atoms: C_12  and  C_13
REMARK    7  A    between atoms: C_16  and  C_19
REMARK    8  A    between atoms: C_19  and  C_20
REMARK    9  A    between atoms: C_19  and  C_22
REMARK   10  A    between atoms: C_20  and  N_21
REMARK   11  A    between atoms: N_24  and  C_25
REMARK                            x       y       z     vdW  Elec       q    Type
REMARK                         _______ _______ _______ _____ _____    ______ ____
ROOT
ATOM      1  C   UNL     1      -7.572  -1.537 131.117  0.00  0.00    +0.000 C 
ENDROOT
BRANCH   1   5
ATOM      2  C   UNL     1      -8.559  -2.828 127.083  0.00  0.00    +0.000 A 
ATOM      3  C   UNL     1      -8.025  -1.568 127.313  0.00  0.00    +0.000 A 
ATOM      4  C   UNL     1      -7.536  -1.247 128.579  0.00  0.00    +0.000 A 
ATOM      5  C   UNL     1      -7.806  -2.033 129.689  0.00  0.00    +0.000 A 
ATOM      6  C   UNL     1      -8.360  -3.262 129.407  0.00  0.00    +0.000 A 
ATOM      7  C   UNL     1      -8.735  -3.657 128.157  0.00  0.00    +0.000 A 
BRANCH   2   8
ATOM      8  C   UNL     1      -8.851  -3.381 125.726  0.00  0.00    +0.000 C 
BRANCH   8   9
ATOM      9  O   UNL     1      -9.609  -2.407 124.954  0.00  0.00    +0.000 OA
BRANCH   9  10
ATOM     10  C   UNL     1      -9.123  -2.148 123.720  0.00  0.00    +0.000 C 
ATOM     11  O   UNL     1      -9.022  -3.013 122.864  0.00  0.00    +0.000 OA
BRANCH  10  17
ATOM     12  C   UNL     1      -7.514   3.407 122.877  0.00  0.00    +0.000 C 
ATOM     13  C   UNL     1      -7.910   1.979 123.102  0.00  0.00    +0.000 A 
ATOM     14  C   UNL     1      -6.971   1.004 123.446  0.00  0.00    +0.000 A 
ATOM     15  C   UNL     1      -7.357  -0.339 123.633  0.00  0.00    +0.000 A 
ATOM     16  C   UNL     1      -6.346  -1.385 124.000  0.00  0.00    +0.000 C 
ATOM     17  C   UNL     1      -8.709  -0.714 123.493  0.00  0.00    +0.000 A 
ATOM     18  C   UNL     1      -9.633   0.272 123.155  0.00  0.00    +0.000 A 
ATOM     19  C   UNL     1      -9.241   1.600 122.955  0.00  0.00    +0.000 A 
ENDBRANCH  10  17
ENDBRANCH   9  10
ENDBRANCH   8   9
ENDBRANCH   2   8
ENDBRANCH   1   5
BRANCH   1  20
ATOM     20  C   UNL     1      -8.248  -0.163 131.394  0.00  0.00    +0.000 C 
ATOM     21  O   UNL     1      -9.398  -0.048 131.809  0.00  0.00    +0.000 OA
ATOM     22  N   UNL     1      -7.597   1.014 131.144  0.00  0.00    +0.000 N 
ATOM     23  H   UNL     1      -6.675   1.027 130.730  0.00  0.00    +0.000 HD
BRANCH  22  24
ATOM     24  C   UNL     1      -8.249   2.262 131.426  0.00  0.00    +0.000 A 
ATOM     25  C   UNL     1      -7.961   2.937 132.590  0.00  0.00    +0.000 A 
ATOM     26  C   UNL     1      -8.754   4.018 132.949  0.00  0.00    +0.000 A 
ATOM     27  C   UNL     1      -9.646   4.629 132.107  0.00  0.00    +0.000 A 
ATOM     28  C   UNL     1     -10.147   5.803 132.493  0.00  0.00    +0.000 A 
ATOM     29  N   UNL     1     -10.982   6.181 131.620  0.00  0.00    +0.000 NA
ATOM     30  C   UNL     1     -11.857   6.613 130.751  0.00  0.00    +0.000 A 
ATOM     31  C   UNL     1     -11.265   5.225 130.290  0.00  0.00    +0.000 A 
ATOM     32  C   UNL     1     -10.064   4.147 130.870  0.00  0.00    +0.000 A 
ATOM     33  C   UNL     1      -9.255   2.843 130.581  0.00  0.00    +0.000 A 
ENDBRANCH  22  24
ENDBRANCH   1  20
BRANCH   1  34
ATOM     34  C   UNL     1      -6.055  -1.419 131.366  0.00  0.00    +0.000 C 
BRANCH  34  35
ATOM     35  N   UNL     1      -5.739  -0.825 132.663  0.00  0.00    +0.000 NA
ATOM     36  H   UNL     1      -6.580  -0.689 133.217  0.00  0.00    +0.000 HD
ATOM     37  H   UNL     1      -5.220   0.037 132.581  0.00  0.00    +0.000 HD
ENDBRANCH  34  35
ENDBRANCH   1  34
TORSDOF 9
ENDMDL
MODEL 8
REMARK VINA RESULT:      -9.0      3.371      9.602
REMARK  Name = Netarsudil
REMARK  11 active torsions:
REMARK  status: ('A' for Active; 'I' for Inactive)
REMARK    1  A    between atoms: C_1  and  C_2
REMARK    2  A    between atoms: C_4  and  C_5
REMARK    3  A    between atoms: C_6  and  C_9
REMARK    4  A    between atoms: C_9  and  O_11
REMARK    5  A    between atoms: O_11  and  C_12
REMARK    6  A    between atoms: C_12  and  C_13
REMARK    7  A    between atoms: C_16  and  C_19
REMARK    8  A    between atoms: C_19  and  C_20
REMARK    9  A    between atoms: C_19  and  C_22
REMARK   10  A    between atoms: C_20  and  N_21
REMARK   11  A    between atoms: N_24  and  C_25
REMARK                            x       y       z     vdW  Elec       q    Type
REMARK                         _______ _______ _______ _____ _____    ______ ____
ROOT
ATOM      1  C   UNL     1      -6.528  -1.125 131.806  0.00  0.00    +0.000 C 
ENDROOT
BRANCH   1   5
ATOM      2  C   UNL     1      -8.528   2.502 133.132  0.00  0.00    +0.000 A 
ATOM      3  C   UNL     1      -9.173   1.604 132.294  0.00  0.00    +0.000 A 
ATOM      4  C   UNL     1      -8.593   0.361 132.039  0.00  0.00    +0.000 A 
ATOM      5  C   UNL     1      -7.275   0.087 132.366  0.00  0.00    +0.000 A 
ATOM      6  C   UNL     1      -6.674   1.024 133.178  0.00  0.00    +0.000 A 
ATOM      7  C   UNL     1      -7.262   2.196 133.550  0.00  0.00    +0.000 A 
BRANCH   2   8
ATOM      8  C   UNL     1      -9.167   3.728 133.700  0.00  0.00    +0.000 C 
BRANCH   8   9
ATOM      9  O   UNL     1      -9.874   4.442 132.646  0.00  0.00    +0.000 OA
BRANCH   9  10
ATOM     10  C   UNL     1      -9.826   5.790 132.734  0.00  0.00    +0.000 C 
ATOM     11  O   UNL     1      -9.286   6.364 133.665  0.00  0.00    +0.000 OA
BRANCH  10  17
ATOM     12  C   UNL     1     -12.431   8.649 128.353  0.00  0.00    +0.000 C 
ATOM     13  C   UNL     1     -11.746   7.924 129.470  0.00  0.00    +0.000 A 
ATOM     14  C   UNL     1     -10.360   7.753 129.492  0.00  0.00    +0.000 A 
ATOM     15  C   UNL     1      -9.734   7.049 130.542  0.00  0.00    +0.000 A 
ATOM     16  C   UNL     1      -8.245   6.865 130.561  0.00  0.00    +0.000 C 
ATOM     17  C   UNL     1     -10.503   6.521 131.598  0.00  0.00    +0.000 A 
ATOM     18  C   UNL     1     -11.883   6.705 131.564  0.00  0.00    +0.000 A 
ATOM     19  C   UNL     1     -12.500   7.391 130.512  0.00  0.00    +0.000 A 
ENDBRANCH  10  17
ENDBRANCH   9  10
ENDBRANCH   8   9
ENDBRANCH   2   8
ENDBRANCH   1   5
BRANCH   1  20
ATOM     20  C   UNL     1      -6.677  -1.260 130.263  0.00  0.00    +0.000 C 
ATOM     21  O   UNL     1      -6.889  -0.307 129.519  0.00  0.00    +0.000 OA
ATOM     22  N   UNL     1      -6.619  -2.481 129.646  0.00  0.00    +0.000 N 
ATOM     23  H   UNL     1      -6.523  -3.334 130.178  0.00  0.00    +0.000 HD
BRANCH  22  24
ATOM     24  C   UNL     1      -6.746  -2.563 128.217  0.00  0.00    +0.000 A 
ATOM     25  C   UNL     1      -5.654  -2.313 127.418  0.00  0.00    +0.000 A 
ATOM     26  C   UNL     1      -5.845  -2.181 126.050  0.00  0.00    +0.000 A 
ATOM     27  C   UNL     1      -6.998  -2.533 125.398  0.00  0.00    +0.000 A 
ATOM     28  C   UNL     1      -6.952  -2.596 124.066  0.00  0.00    +0.000 A 
ATOM     29  N   UNL     1      -8.112  -2.883 123.646  0.00  0.00    +0.000 NA
ATOM     30  C   UNL     1      -9.291  -3.172 123.162  0.00  0.00    +0.000 A 
ATOM     31  C   UNL     1      -9.347  -3.101 124.737  0.00  0.00    +0.000 A 
ATOM     32  C   UNL     1      -8.210  -2.856 125.998  0.00  0.00    +0.000 A 
ATOM     33  C   UNL     1      -7.984  -2.838 127.543  0.00  0.00    +0.000 A 
ENDBRANCH  22  24
ENDBRANCH   1  20
BRANCH   1  34
ATOM     34  C   UNL     1      -7.064  -2.402 132.485  0.00  0.00    +0.000 C 
BRANCH  34  35
ATOM     35  N   UNL     1      -6.109  -3.508 132.442  0.00  0.00    +0.000 NA
ATOM     36  H   UNL     1      -5.995  -3.926 133.362  0.00  0.00    +0.000 HD
ATOM     37  H   UNL     1      -5.216  -3.238 132.057  0.00  0.00    +0.000 HD
ENDBRANCH  34  35
ENDBRANCH   1  34
TORSDOF 9
ENDMDL
MODEL 9
REMARK VINA RESULT:      -8.9      2.292      2.699
REMARK  Name = Netarsudil
REMARK  11 active torsions:
REMARK  status: ('A' for Active; 'I' for Inactive)
REMARK    1  A    between atoms: C_1  and  C_2
REMARK    2  A    between atoms: C_4  and  C_5
REMARK    3  A    between atoms: C_6  and  C_9
REMARK    4  A    between atoms: C_9  and  O_11
REMARK    5  A    between atoms: O_11  and  C_12
REMARK    6  A    between atoms: C_12  and  C_13
REMARK    7  A    between atoms: C_16  and  C_19
REMARK    8  A    between atoms: C_19  and  C_20
REMARK    9  A    between atoms: C_19  and  C_22
REMARK   10  A    between atoms: C_20  and  N_21
REMARK   11  A    between atoms: N_24  and  C_25
REMARK                            x       y       z     vdW  Elec       q    Type
REMARK                         _______ _______ _______ _____ _____    ______ ____
ROOT
ATOM      1  C   UNL     1      -5.352   4.611 131.626  0.00  0.00    +0.000 C 
ENDROOT
BRANCH   1   5
ATOM      2  C   UNL     1      -5.071   0.276 131.428  0.00  0.00    +0.000 A 
ATOM      3  C   UNL     1      -4.591   1.065 130.393  0.00  0.00    +0.000 A 
ATOM      4  C   UNL     1      -4.511   2.448 130.559  0.00  0.00    +0.000 A 
ATOM      5  C   UNL     1      -5.144   3.096 131.608  0.00  0.00    +0.000 A 
ATOM      6  C   UNL     1      -5.626   2.264 132.595  0.00  0.00    +0.000 A 
ATOM      7  C   UNL     1      -5.604   0.903 132.520  0.00  0.00    +0.000 A 
BRANCH   2   8
ATOM      8  C   UNL     1      -4.942  -1.212 131.478  0.00  0.00    +0.000 C 
BRANCH   8   9
ATOM      9  O   UNL     1      -6.185  -1.825 131.031  0.00  0.00    +0.000 OA
BRANCH   9  10
ATOM     10  C   UNL     1      -6.038  -2.941 130.282  0.00  0.00    +0.000 C 
ATOM     11  O   UNL     1      -5.250  -3.825 130.577  0.00  0.00    +0.000 OA
BRANCH  10  17
ATOM     12  C   UNL     1      -9.443  -3.121 125.536  0.00  0.00    +0.000 C 
ATOM     13  C   UNL     1      -8.560  -3.060 126.745  0.00  0.00    +0.000 A 
ATOM     14  C   UNL     1      -7.345  -2.370 126.731  0.00  0.00    +0.000 A 
ATOM     15  C   UNL     1      -6.517  -2.341 127.872  0.00  0.00    +0.000 A 
ATOM     16  C   UNL     1      -5.212  -1.602 127.854  0.00  0.00    +0.000 C 
ATOM     17  C   UNL     1      -6.916  -2.997 129.054  0.00  0.00    +0.000 A 
ATOM     18  C   UNL     1      -8.132  -3.675 129.052  0.00  0.00    +0.000 A 
ATOM     19  C   UNL     1      -8.943  -3.713 127.913  0.00  0.00    +0.000 A 
ENDBRANCH  10  17
ENDBRANCH   9  10
ENDBRANCH   8   9
ENDBRANCH   2   8
ENDBRANCH   1   5
BRANCH   1  20
ATOM     20  C   UNL     1      -6.814   5.020 131.286  0.00  0.00    +0.000 C 
ATOM     21  O   UNL     1      -7.528   4.391 130.511  0.00  0.00    +0.000 OA
ATOM     22  N   UNL     1      -7.379   6.150 131.814  0.00  0.00    +0.000 N 
ATOM     23  H   UNL     1      -6.849   6.775 132.404  0.00  0.00    +0.000 HD
BRANCH  22  24
ATOM     24  C   UNL     1      -8.737   6.485 131.487  0.00  0.00    +0.000 A 
ATOM     25  C   UNL     1      -9.762   6.064 132.304  0.00  0.00    +0.000 A 
ATOM     26  C   UNL     1     -11.069   6.205 131.861  0.00  0.00    +0.000 A 
ATOM     27  C   UNL     1     -11.436   6.967 130.783  0.00  0.00    +0.000 A 
ATOM     28  C   UNL     1     -12.737   7.221 130.628  0.00  0.00    +0.000 A 
ATOM     29  N   UNL     1     -12.883   7.886 129.560  0.00  0.00    +0.000 NA
ATOM     30  C   UNL     1     -13.087   8.570 128.465  0.00  0.00    +0.000 A 
ATOM     31  C   UNL     1     -11.548   8.274 128.648  0.00  0.00    +0.000 A 
ATOM     32  C   UNL     1     -10.574   7.523 129.843  0.00  0.00    +0.000 A 
ATOM     33  C   UNL     1      -9.116   7.202 130.301  0.00  0.00    +0.000 A 
ENDBRANCH  22  24
ENDBRANCH   1  20
BRANCH   1  34
ATOM     34  C   UNL     1      -4.390   5.262 130.611  0.00  0.00    +0.000 C 
BRANCH  34  35
ATOM     35  N   UNL     1      -5.089   6.023 129.578  0.00  0.00    +0.000 NA
ATOM     36  H   UNL     1      -4.678   5.857 128.663  0.00  0.00    +0.000 HD
ATOM     37  H   UNL     1      -5.127   7.012 129.780  0.00  0.00    +0.000 HD
ENDBRANCH  34  35
ENDBRANCH   1  34
TORSDOF 9
ENDMDL
