MODEL 1
REMARK VINA RESULT:      -7.2      0.000      0.000
REMARK  Name = Netilmicin
REMARK  17 active torsions:
REMARK  status: ('A' for Active; 'I' for Inactive)
REMARK    1  A    between atoms: C_1  and  C_2
REMARK    2  A    between atoms: C_2  and  N_3
REMARK    3  A    between atoms: N_3  and  C_4
REMARK    4  A    between atoms: C_6  and  N_7
REMARK    5  A    between atoms: C_8  and  O_9
REMARK    6  A    between atoms: O_9  and  C_10
REMARK    7  A    between atoms: C_12  and  C_13
REMARK    8  A    between atoms: C_13  and  N_14
REMARK    9  A    between atoms: C_17  and  N_18
REMARK   10  A    between atoms: C_19  and  O_20
REMARK   11  A    between atoms: C_21  and  O_22
REMARK   12  A    between atoms: O_22  and  C_23
REMARK   13  A    between atoms: C_26  and  C_27
REMARK   14  A    between atoms: C_26  and  O_28
REMARK   15  A    between atoms: C_29  and  N_30
REMARK   16  A    between atoms: N_30  and  C_31
REMARK   17  A    between atoms: C_32  and  O_33
REMARK                            x       y       z     vdW  Elec       q    Type
REMARK                         _______ _______ _______ _____ _____    ______ ____
ROOT
ATOM      1  C   UNL     1      -4.168   3.997 129.518  0.00  0.00    +0.000 C 
ATOM      2  C   UNL     1      -3.959   2.939 128.459  0.00  0.00    +0.000 C 
ATOM      3  C   UNL     1      -3.424   3.531 127.095  0.00  0.00    +0.000 C 
ATOM      4  C   UNL     1      -4.376   4.646 126.505  0.00  0.00    +0.000 C 
ATOM      5  C   UNL     1      -4.401   5.730 127.605  0.00  0.00    +0.000 C 
ATOM      6  C   UNL     1      -5.052   5.135 128.924  0.00  0.00    +0.000 C 
ENDROOT
BRANCH   3   7
ATOM      7  N   UNL     1      -1.975   3.798 127.103  0.00  0.00    +0.000 NA
ATOM      8  H   UNL     1      -1.678   4.512 127.769  0.00  0.00    +0.000 HD
ATOM      9  H   UNL     1      -1.614   3.976 126.167  0.00  0.00    +0.000 HD
ENDBRANCH   3   7
BRANCH   1  10
ATOM     10  N   UNL     1      -2.816   4.371 129.901  0.00  0.00    +0.000 NA
ATOM     11  H   UNL     1      -2.194   3.565 129.806  0.00  0.00    +0.000 HD
BRANCH  10  13
ATOM     12  C   UNL     1      -1.922   6.266 130.985  0.00  0.00    +0.000 C 
ATOM     13  C   UNL     1      -2.702   4.995 131.201  0.00  0.00    +0.000 C 
ENDBRANCH  10  13
ENDBRANCH   1  10
BRANCH   5  14
ATOM     14  O   UNL     1      -3.070   6.248 127.677  0.00  0.00    +0.000 OA
ATOM     15  H   UNL     1      -2.524   5.522 127.328  0.00  0.00    +0.000 HD
ENDBRANCH   5  14
BRANCH   4  16
ATOM     16  O   UNL     1      -5.699   4.155 126.216  0.00  0.00    +0.000 OA
BRANCH  16  17
ATOM     17  C   UNL     1      -6.504   4.722 125.153  0.00  0.00    +0.000 C 
ATOM     18  O   UNL     1      -5.798   4.860 123.938  0.00  0.00    +0.000 OA
ATOM     19  C   UNL     1      -6.094   3.933 122.963  0.00  0.00    +0.000 C 
ATOM     20  C   UNL     1      -7.100   3.078 123.026  0.00  0.00    +0.000 C 
ATOM     21  C   UNL     1      -8.144   3.030 124.079  0.00  0.00    +0.000 C 
ATOM     22  C   UNL     1      -7.942   4.111 125.128  0.00  0.00    +0.000 C 
BRANCH  22  23
ATOM     23  N   UNL     1      -8.262   3.612 126.462  0.00  0.00    +0.000 NA
ATOM     24  H   UNL     1      -9.288   3.678 126.407  0.00  0.00    +0.000 HD
ATOM     25  H   UNL     1      -7.988   4.297 127.171  0.00  0.00    +0.000 HD
ENDBRANCH  22  23
BRANCH  19  26
ATOM     26  C   UNL     1      -5.170   4.058 121.774  0.00  0.00    +0.000 C 
BRANCH  26  27
ATOM     27  N   UNL     1      -4.560   5.382 121.708  0.00  0.00    +0.000 NA
ATOM     28  H   UNL     1      -4.928   5.856 120.885  0.00  0.00    +0.000 HD
ATOM     29  H   UNL     1      -3.558   5.292 121.581  0.00  0.00    +0.000 HD
ENDBRANCH  26  27
ENDBRANCH  19  26
ENDBRANCH  16  17
ENDBRANCH   4  16
BRANCH   6  30
ATOM     30  O   UNL     1      -6.423   4.673 128.707  0.00  0.00    +0.000 OA
BRANCH  30  31
ATOM     31  C   UNL     1      -7.172   4.810 129.927  0.00  0.00    +0.000 C 
ATOM     32  O   UNL     1      -7.271   6.182 130.283  0.00  0.00    +0.000 OA
ATOM     33  C   UNL     1      -7.719   6.509 131.580  0.00  0.00    +0.000 C 
ATOM     34  C   UNL     1      -9.166   6.059 131.675  0.00  0.00    +0.000 C 
ATOM     35  C   UNL     1     -10.015   6.952 130.756  0.00  0.00    +0.000 C 
ATOM     36  C   UNL     1      -9.201   4.527 131.301  0.00  0.00    +0.000 C 
ATOM     37  C   UNL     1      -8.612   4.272 129.872  0.00  0.00    +0.000 C 
BRANCH  36  38
ATOM     38  N   UNL     1      -8.441   3.774 132.365  0.00  0.00    +0.000 NA
ATOM     39  C   UNL     1      -9.220   2.653 132.874  0.00  0.00    +0.000 C 
ATOM     40  H   UNL     1      -7.571   3.393 131.991  0.00  0.00    +0.000 HD
ENDBRANCH  36  38
BRANCH  34  41
ATOM     41  O   UNL     1      -9.626   6.262 133.015  0.00  0.00    +0.000 OA
ATOM     42  H   UNL     1     -10.146   5.467 133.239  0.00  0.00    +0.000 HD
ENDBRANCH  34  41
BRANCH  37  43
ATOM     43  O   UNL     1      -9.416   4.894 128.866  0.00  0.00    +0.000 OA
ATOM     44  H   UNL     1     -10.137   4.265 128.670  0.00  0.00    +0.000 HD
ENDBRANCH  37  43
ENDBRANCH  30  31
ENDBRANCH   6  30
TORSDOF 14
ENDMDL
MODEL 2
REMARK VINA RESULT:      -7.1      2.826      7.396
REMARK  Name = Netilmicin
REMARK  17 active torsions:
REMARK  status: ('A' for Active; 'I' for Inactive)
REMARK    1  A    between atoms: C_1  and  C_2
REMARK    2  A    between atoms: C_2  and  N_3
REMARK    3  A    between atoms: N_3  and  C_4
REMARK    4  A    between atoms: C_6  and  N_7
REMARK    5  A    between atoms: C_8  and  O_9
REMARK    6  A    between atoms: O_9  and  C_10
REMARK    7  A    between atoms: C_12  and  C_13
REMARK    8  A    between atoms: C_13  and  N_14
REMARK    9  A    between atoms: C_17  and  N_18
REMARK   10  A    between atoms: C_19  and  O_20
REMARK   11  A    between atoms: C_21  and  O_22
REMARK   12  A    between atoms: O_22  and  C_23
REMARK   13  A    between atoms: C_26  and  C_27
REMARK   14  A    between atoms: C_26  and  O_28
REMARK   15  A    between atoms: C_29  and  N_30
REMARK   16  A    between atoms: N_30  and  C_31
REMARK   17  A    between atoms: C_32  and  O_33
REMARK                            x       y       z     vdW  Elec       q    Type
REMARK                         _______ _______ _______ _____ _____    ______ ____
ROOT
ATOM      1  C   UNL     1      -7.802   5.768 130.647  0.00  0.00    +0.000 C 
ATOM      2  C   UNL     1      -8.821   6.881 130.737  0.00  0.00    +0.000 C 
ATOM      3  C   UNL     1     -10.227   6.387 131.262  0.00  0.00    +0.000 C 
ATOM      4  C   UNL     1     -10.831   5.228 130.374  0.00  0.00    +0.000 C 
ATOM      5  C   UNL     1      -9.779   4.102 130.471  0.00  0.00    +0.000 C 
ATOM      6  C   UNL     1      -8.414   4.592 129.828  0.00  0.00    +0.000 C 
ENDROOT
BRANCH   3   7
ATOM      7  N   UNL     1     -10.281   6.229 132.726  0.00  0.00    +0.000 NA
ATOM      8  H   UNL     1      -9.557   6.736 133.235  0.00  0.00    +0.000 HD
ATOM      9  H   UNL     1     -10.328   5.250 133.004  0.00  0.00    +0.000 HD
ENDBRANCH   3   7
BRANCH   1  10
ATOM     10  N   UNL     1      -7.482   5.481 132.036  0.00  0.00    +0.000 NA
ATOM     11  H   UNL     1      -7.854   6.221 132.636  0.00  0.00    +0.000 HD
BRANCH  10  13
ATOM     12  C   UNL     1      -5.335   6.427 131.796  0.00  0.00    +0.000 C 
ATOM     13  C   UNL     1      -6.085   5.220 132.298  0.00  0.00    +0.000 C 
ENDBRANCH  10  13
ENDBRANCH   1  10
BRANCH   5  14
ATOM     14  O   UNL     1      -9.776   3.683 131.838  0.00  0.00    +0.000 OA
ATOM     15  H   UNL     1     -10.132   4.454 132.312  0.00  0.00    +0.000 HD
ENDBRANCH   5  14
BRANCH   4  16
ATOM     16  O   UNL     1     -11.053   5.629 129.008  0.00  0.00    +0.000 OA
BRANCH  16  17
ATOM     17  C   UNL     1     -12.212   6.410 128.624  0.00  0.00    +0.000 C 
ATOM     18  O   UNL     1     -12.834   7.049 129.718  0.00  0.00    +0.000 OA
ATOM     19  C   UNL     1     -12.607   8.403 129.831  0.00  0.00    +0.000 C 
ATOM     20  C   UNL     1     -12.024   9.143 128.903  0.00  0.00    +0.000 C 
ATOM     21  C   UNL     1     -11.617   8.690 127.550  0.00  0.00    +0.000 C 
ATOM     22  C   UNL     1     -11.952   7.226 127.317  0.00  0.00    +0.000 C 
BRANCH  22  23
ATOM     23  N   UNL     1     -10.899   6.563 126.553  0.00  0.00    +0.000 NA
ATOM     24  H   UNL     1     -11.228   5.592 126.652  0.00  0.00    +0.000 HD
ATOM     25  H   UNL     1     -10.014   6.599 127.066  0.00  0.00    +0.000 HD
ENDBRANCH  22  23
BRANCH  19  26
ATOM     26  C   UNL     1     -13.169   8.959 131.119  0.00  0.00    +0.000 C 
BRANCH  26  27
ATOM     27  N   UNL     1     -13.169   7.957 132.179  0.00  0.00    +0.000 NA
ATOM     28  H   UNL     1     -12.547   8.280 132.916  0.00  0.00    +0.000 HD
ATOM     29  H   UNL     1     -12.792   7.084 131.826  0.00  0.00    +0.000 HD
ENDBRANCH  26  27
ENDBRANCH  19  26
ENDBRANCH  16  17
ENDBRANCH   4  16
BRANCH   6  30
ATOM     30  O   UNL     1      -8.563   4.957 128.419  0.00  0.00    +0.000 OA
BRANCH  30  31
ATOM     31  C   UNL     1      -7.872   3.998 127.601  0.00  0.00    +0.000 C 
ATOM     32  O   UNL     1      -8.654   2.819 127.472  0.00  0.00    +0.000 OA
ATOM     33  C   UNL     1      -8.042   1.660 126.949  0.00  0.00    +0.000 C 
ATOM     34  C   UNL     1      -7.693   1.959 125.502  0.00  0.00    +0.000 C 
ATOM     35  C   UNL     1      -9.000   2.080 124.701  0.00  0.00    +0.000 C 
ATOM     36  C   UNL     1      -6.809   3.265 125.498  0.00  0.00    +0.000 C 
ATOM     37  C   UNL     1      -7.557   4.467 126.170  0.00  0.00    +0.000 C 
BRANCH  36  38
ATOM     38  N   UNL     1      -5.513   2.948 126.202  0.00  0.00    +0.000 NA
ATOM     39  C   UNL     1      -4.450   3.850 125.778  0.00  0.00    +0.000 C 
ATOM     40  H   UNL     1      -5.611   3.050 127.213  0.00  0.00    +0.000 HD
ENDBRANCH  36  38
BRANCH  34  41
ATOM     41  O   UNL     1      -6.961   0.853 124.965  0.00  0.00    +0.000 OA
ATOM     42  H   UNL     1      -7.424   0.053 125.279  0.00  0.00    +0.000 HD
ENDBRANCH  34  41
BRANCH  37  43
ATOM     43  O   UNL     1      -8.720   4.832 125.420  0.00  0.00    +0.000 OA
ATOM     44  H   UNL     1      -8.718   4.262 124.627  0.00  0.00    +0.000 HD
ENDBRANCH  37  43
ENDBRANCH  30  31
ENDBRANCH   6  30
TORSDOF 14
ENDMDL
MODEL 3
REMARK VINA RESULT:      -7.1      3.719      7.052
REMARK  Name = Netilmicin
REMARK  17 active torsions:
REMARK  status: ('A' for Active; 'I' for Inactive)
REMARK    1  A    between atoms: C_1  and  C_2
REMARK    2  A    between atoms: C_2  and  N_3
REMARK    3  A    between atoms: N_3  and  C_4
REMARK    4  A    between atoms: C_6  and  N_7
REMARK    5  A    between atoms: C_8  and  O_9
REMARK    6  A    between atoms: O_9  and  C_10
REMARK    7  A    between atoms: C_12  and  C_13
REMARK    8  A    between atoms: C_13  and  N_14
REMARK    9  A    between atoms: C_17  and  N_18
REMARK   10  A    between atoms: C_19  and  O_20
REMARK   11  A    between atoms: C_21  and  O_22
REMARK   12  A    between atoms: O_22  and  C_23
REMARK   13  A    between atoms: C_26  and  C_27
REMARK   14  A    between atoms: C_26  and  O_28
REMARK   15  A    between atoms: C_29  and  N_30
REMARK   16  A    between atoms: N_30  and  C_31
REMARK   17  A    between atoms: C_32  and  O_33
REMARK                            x       y       z     vdW  Elec       q    Type
REMARK                         _______ _______ _______ _____ _____    ______ ____
ROOT
ATOM      1  C   UNL     1      -6.901   2.984 123.092  0.00  0.00    +0.000 C 
ATOM      2  C   UNL     1      -7.140   1.516 122.821  0.00  0.00    +0.000 C 
ATOM      3  C   UNL     1      -8.433   0.960 123.539  0.00  0.00    +0.000 C 
ATOM      4  C   UNL     1      -8.398   1.180 125.104  0.00  0.00    +0.000 C 
ATOM      5  C   UNL     1      -8.296   2.712 125.260  0.00  0.00    +0.000 C 
ATOM      6  C   UNL     1      -6.930   3.222 124.632  0.00  0.00    +0.000 C 
ENDROOT
BRANCH   3   7
ATOM      7  N   UNL     1      -9.682   1.287 122.828  0.00  0.00    +0.000 NA
ATOM      8  H   UNL     1      -9.560   1.534 121.846  0.00  0.00    +0.000 HD
ATOM      9  H   UNL     1     -10.238   1.978 123.330  0.00  0.00    +0.000 HD
ENDBRANCH   3   7
BRANCH   1  10
ATOM     10  N   UNL     1      -7.941   3.649 122.322  0.00  0.00    +0.000 NA
ATOM     11  H   UNL     1      -8.849   3.228 122.532  0.00  0.00    +0.000 HD
BRANCH  10  13
ATOM     12  C   UNL     1      -9.040   3.905 120.251  0.00  0.00    +0.000 C 
ATOM     13  C   UNL     1      -7.692   3.724 120.901  0.00  0.00    +0.000 C 
ENDBRANCH  10  13
ENDBRANCH   1  10
BRANCH   5  14
ATOM     14  O   UNL     1      -9.520   3.243 124.746  0.00  0.00    +0.000 OA
ATOM     15  H   UNL     1      -9.532   4.155 125.084  0.00  0.00    +0.000 HD
ENDBRANCH   5  14
BRANCH   4  16
ATOM     16  O   UNL     1      -7.291   0.508 125.737  0.00  0.00    +0.000 OA
BRANCH  16  17
ATOM     17  C   UNL     1      -7.422  -0.830 126.277  0.00  0.00    +0.000 C 
ATOM     18  O   UNL     1      -8.392  -1.604 125.604  0.00  0.00    +0.000 OA
ATOM     19  C   UNL     1      -7.904  -2.561 124.741  0.00  0.00    +0.000 C 
ATOM     20  C   UNL     1      -6.632  -2.912 124.656  0.00  0.00    +0.000 C 
ATOM     21  C   UNL     1      -5.533  -2.437 125.533  0.00  0.00    +0.000 C 
ATOM     22  C   UNL     1      -6.030  -1.466 126.590  0.00  0.00    +0.000 C 
BRANCH  22  23
ATOM     23  N   UNL     1      -5.064  -0.393 126.810  0.00  0.00    +0.000 NA
ATOM     24  H   UNL     1      -5.124   0.057 125.886  0.00  0.00    +0.000 HD
ATOM     25  H   UNL     1      -4.116  -0.775 126.859  0.00  0.00    +0.000 HD
ENDBRANCH  22  23
BRANCH  19  26
ATOM     26  C   UNL     1      -9.011  -3.214 123.946  0.00  0.00    +0.000 C 
BRANCH  26  27
ATOM     27  N   UNL     1      -9.808  -2.226 123.226  0.00  0.00    +0.000 NA
ATOM     28  H   UNL     1     -10.609  -2.705 122.820  0.00  0.00    +0.000 HD
ATOM     29  H   UNL     1      -9.266  -1.841 122.461  0.00  0.00    +0.000 HD
ENDBRANCH  26  27
ENDBRANCH  19  26
ENDBRANCH  16  17
ENDBRANCH   4  16
BRANCH   6  30
ATOM     30  O   UNL     1      -5.764   2.619 125.277  0.00  0.00    +0.000 OA
BRANCH  30  31
ATOM     31  C   UNL     1      -5.430   3.368 126.457  0.00  0.00    +0.000 C 
ATOM     32  O   UNL     1      -5.987   2.739 127.603  0.00  0.00    +0.000 OA
ATOM     33  C   UNL     1      -6.016   3.457 128.817  0.00  0.00    +0.000 C 
ATOM     34  C   UNL     1      -4.573   3.659 129.246  0.00  0.00    +0.000 C 
ATOM     35  C   UNL     1      -3.987   2.292 129.639  0.00  0.00    +0.000 C 
ATOM     36  C   UNL     1      -3.827   4.362 128.048  0.00  0.00    +0.000 C 
ATOM     37  C   UNL     1      -3.924   3.514 126.734  0.00  0.00    +0.000 C 
BRANCH  36  38
ATOM     38  N   UNL     1      -4.424   5.736 127.874  0.00  0.00    +0.000 NA
ATOM     39  C   UNL     1      -3.429   6.776 128.102  0.00  0.00    +0.000 C 
ATOM     40  H   UNL     1      -4.782   5.862 126.926  0.00  0.00    +0.000 HD
ENDBRANCH  36  38
BRANCH  34  41
ATOM     41  O   UNL     1      -4.549   4.487 130.412  0.00  0.00    +0.000 OA
ATOM     42  H   UNL     1      -3.606   4.667 130.589  0.00  0.00    +0.000 HD
ENDBRANCH  34  41
BRANCH  37  43
ATOM     43  O   UNL     1      -3.246   2.262 126.879  0.00  0.00    +0.000 OA
ATOM     44  H   UNL     1      -3.340   2.013 127.818  0.00  0.00    +0.000 HD
ENDBRANCH  37  43
ENDBRANCH  30  31
ENDBRANCH   6  30
TORSDOF 14
ENDMDL
MODEL 4
REMARK VINA RESULT:      -6.6      3.746      7.903
REMARK  Name = Netilmicin
REMARK  17 active torsions:
REMARK  status: ('A' for Active; 'I' for Inactive)
REMARK    1  A    between atoms: C_1  and  C_2
REMARK    2  A    between atoms: C_2  and  N_3
REMARK    3  A    between atoms: N_3  and  C_4
REMARK    4  A    between atoms: C_6  and  N_7
REMARK    5  A    between atoms: C_8  and  O_9
REMARK    6  A    between atoms: O_9  and  C_10
REMARK    7  A    between atoms: C_12  and  C_13
REMARK    8  A    between atoms: C_13  and  N_14
REMARK    9  A    between atoms: C_17  and  N_18
REMARK   10  A    between atoms: C_19  and  O_20
REMARK   11  A    between atoms: C_21  and  O_22
REMARK   12  A    between atoms: O_22  and  C_23
REMARK   13  A    between atoms: C_26  and  C_27
REMARK   14  A    between atoms: C_26  and  O_28
REMARK   15  A    between atoms: C_29  and  N_30
REMARK   16  A    between atoms: N_30  and  C_31
REMARK   17  A    between atoms: C_32  and  O_33
REMARK                            x       y       z     vdW  Elec       q    Type
REMARK                         _______ _______ _______ _____ _____    ______ ____
ROOT
ATOM      1  C   UNL     1      -8.071   2.441 124.617  0.00  0.00    +0.000 C 
ATOM      2  C   UNL     1      -8.303   3.173 125.919  0.00  0.00    +0.000 C 
ATOM      3  C   UNL     1      -7.475   4.514 126.026  0.00  0.00    +0.000 C 
ATOM      4  C   UNL     1      -5.921   4.282 125.854  0.00  0.00    +0.000 C 
ATOM      5  C   UNL     1      -5.794   3.666 124.444  0.00  0.00    +0.000 C 
ATOM      6  C   UNL     1      -6.537   2.264 124.406  0.00  0.00    +0.000 C 
ENDROOT
BRANCH   3   7
ATOM      7  N   UNL     1      -8.086   5.638 125.293  0.00  0.00    +0.000 NA
ATOM      8  H   UNL     1      -8.036   6.536 125.774  0.00  0.00    +0.000 HD
ATOM      9  H   UNL     1      -9.032   5.423 124.984  0.00  0.00    +0.000 HD
ENDBRANCH   3   7
BRANCH   1  10
ATOM     10  N   UNL     1      -8.762   3.260 123.634  0.00  0.00    +0.000 NA
ATOM     11  H   UNL     1      -9.581   3.697 124.062  0.00  0.00    +0.000 HD
BRANCH  10  13
ATOM     12  C   UNL     1      -8.648   3.502 121.290  0.00  0.00    +0.000 C 
ATOM     13  C   UNL     1      -9.090   2.582 122.400  0.00  0.00    +0.000 C 
ENDBRANCH  10  13
ENDBRANCH   1  10
BRANCH   5  14
ATOM     14  O   UNL     1      -6.213   4.683 123.531  0.00  0.00    +0.000 OA
ATOM     15  H   UNL     1      -5.423   4.836 122.983  0.00  0.00    +0.000 HD
ENDBRANCH   5  14
BRANCH   4  16
ATOM     16  O   UNL     1      -5.372   3.413 126.863  0.00  0.00    +0.000 OA
BRANCH  16  17
ATOM     17  C   UNL     1      -4.085   3.676 127.474  0.00  0.00    +0.000 C 
ATOM     18  O   UNL     1      -3.882   5.042 127.768  0.00  0.00    +0.000 OA
ATOM     19  C   UNL     1      -4.001   5.395 129.094  0.00  0.00    +0.000 C 
ATOM     20  C   UNL     1      -4.097   4.532 130.091  0.00  0.00    +0.000 C 
ATOM     21  C   UNL     1      -3.983   3.057 129.986  0.00  0.00    +0.000 C 
ATOM     22  C   UNL     1      -3.729   2.607 128.557  0.00  0.00    +0.000 C 
BRANCH  22  23
ATOM     23  N   UNL     1      -4.457   1.378 128.258  0.00  0.00    +0.000 NA
ATOM     24  H   UNL     1      -4.320   0.897 129.158  0.00  0.00    +0.000 HD
ATOM     25  H   UNL     1      -3.939   0.818 127.575  0.00  0.00    +0.000 HD
ENDBRANCH  22  23
BRANCH  19  26
ATOM     26  C   UNL     1      -3.937   6.893 129.282  0.00  0.00    +0.000 C 
BRANCH  26  27
ATOM     27  N   UNL     1      -4.984   7.364 130.183  0.00  0.00    +0.000 NA
ATOM     28  H   UNL     1      -4.879   6.873 131.069  0.00  0.00    +0.000 HD
ATOM     29  H   UNL     1      -5.894   7.120 129.810  0.00  0.00    +0.000 HD
ENDBRANCH  26  27
ENDBRANCH  19  26
ENDBRANCH  16  17
ENDBRANCH   4  16
BRANCH   6  30
ATOM     30  O   UNL     1      -5.981   1.315 125.371  0.00  0.00    +0.000 OA
BRANCH  30  31
ATOM     31  C   UNL     1      -6.602   0.031 125.190  0.00  0.00    +0.000 C 
ATOM     32  O   UNL     1      -6.110  -0.582 124.006  0.00  0.00    +0.000 OA
ATOM     33  C   UNL     1      -6.790  -1.710 123.501  0.00  0.00    +0.000 C 
ATOM     34  C   UNL     1      -6.619  -2.823 124.519  0.00  0.00    +0.000 C 
ATOM     35  C   UNL     1      -5.143  -3.254 124.526  0.00  0.00    +0.000 C 
ATOM     36  C   UNL     1      -7.137  -2.270 125.902  0.00  0.00    +0.000 C 
ATOM     37  C   UNL     1      -6.365  -0.975 126.329  0.00  0.00    +0.000 C 
BRANCH  36  38
ATOM     38  N   UNL     1      -8.620  -2.022 125.774  0.00  0.00    +0.000 NA
ATOM     39  C   UNL     1      -9.388  -3.086 126.406  0.00  0.00    +0.000 C 
ATOM     40  H   UNL     1      -8.884  -1.146 126.229  0.00  0.00    +0.000 HD
ENDBRANCH  36  38
BRANCH  34  41
ATOM     41  O   UNL     1      -7.394  -3.952 124.105  0.00  0.00    +0.000 OA
ATOM     42  H   UNL     1      -6.757  -4.682 123.992  0.00  0.00    +0.000 HD
ENDBRANCH  34  41
BRANCH  37  43
ATOM     43  O   UNL     1      -4.981  -1.256 126.563  0.00  0.00    +0.000 OA
ATOM     44  H   UNL     1      -4.566  -1.317 125.681  0.00  0.00    +0.000 HD
ENDBRANCH  37  43
ENDBRANCH  30  31
ENDBRANCH   6  30
TORSDOF 14
ENDMDL
MODEL 5
REMARK VINA RESULT:      -6.6      3.581      6.678
REMARK  Name = Netilmicin
REMARK  17 active torsions:
REMARK  status: ('A' for Active; 'I' for Inactive)
REMARK    1  A    between atoms: C_1  and  C_2
REMARK    2  A    between atoms: C_2  and  N_3
REMARK    3  A    between atoms: N_3  and  C_4
REMARK    4  A    between atoms: C_6  and  N_7
REMARK    5  A    between atoms: C_8  and  O_9
REMARK    6  A    between atoms: O_9  and  C_10
REMARK    7  A    between atoms: C_12  and  C_13
REMARK    8  A    between atoms: C_13  and  N_14
REMARK    9  A    between atoms: C_17  and  N_18
REMARK   10  A    between atoms: C_19  and  O_20
REMARK   11  A    between atoms: C_21  and  O_22
REMARK   12  A    between atoms: O_22  and  C_23
REMARK   13  A    between atoms: C_26  and  C_27
REMARK   14  A    between atoms: C_26  and  O_28
REMARK   15  A    between atoms: C_29  and  N_30
REMARK   16  A    between atoms: N_30  and  C_31
REMARK   17  A    between atoms: C_32  and  O_33
REMARK                            x       y       z     vdW  Elec       q    Type
REMARK                         _______ _______ _______ _____ _____    ______ ____
ROOT
ATOM      1  C   UNL     1      -7.438   2.162 131.060  0.00  0.00    +0.000 C 
ATOM      2  C   UNL     1      -6.390   3.251 131.080  0.00  0.00    +0.000 C 
ATOM      3  C   UNL     1      -6.749   4.467 130.137  0.00  0.00    +0.000 C 
ATOM      4  C   UNL     1      -6.979   4.023 128.638  0.00  0.00    +0.000 C 
ATOM      5  C   UNL     1      -8.155   3.027 128.725  0.00  0.00    +0.000 C 
ATOM      6  C   UNL     1      -7.720   1.763 129.581  0.00  0.00    +0.000 C 
ENDROOT
BRANCH   3   7
ATOM      7  N   UNL     1      -7.720   5.401 130.734  0.00  0.00    +0.000 NA
ATOM      8  H   UNL     1      -8.291   5.909 130.059  0.00  0.00    +0.000 HD
ATOM      9  H   UNL     1      -7.285   6.025 131.411  0.00  0.00    +0.000 HD
ENDBRANCH   3   7
BRANCH   1  10
ATOM     10  N   UNL     1      -8.553   2.744 131.789  0.00  0.00    +0.000 NA
ATOM     11  H   UNL     1      -8.708   3.705 131.475  0.00  0.00    +0.000 HD
BRANCH  10  13
ATOM     12  C   UNL     1      -9.268   3.799 133.775  0.00  0.00    +0.000 C 
ATOM     13  C   UNL     1      -8.453   2.654 133.229  0.00  0.00    +0.000 C 
ENDBRANCH  10  13
ENDBRANCH   1  10
BRANCH   5  14
ATOM     14  O   UNL     1      -9.285   3.787 129.161  0.00  0.00    +0.000 OA
ATOM     15  H   UNL     1     -10.041   3.308 128.782  0.00  0.00    +0.000 HD
ENDBRANCH   5  14
BRANCH   4  16
ATOM     16  O   UNL     1      -5.813   3.416 128.050  0.00  0.00    +0.000 OA
BRANCH  16  17
ATOM     17  C   UNL     1      -5.015   4.106 127.057  0.00  0.00    +0.000 C 
ATOM     18  O   UNL     1      -4.758   5.453 127.395  0.00  0.00    +0.000 OA
ATOM     19  C   UNL     1      -3.487   5.726 127.850  0.00  0.00    +0.000 C 
ATOM     20  C   UNL     1      -2.478   4.873 127.807  0.00  0.00    +0.000 C 
ATOM     21  C   UNL     1      -2.492   3.533 127.171  0.00  0.00    +0.000 C 
ATOM     22  C   UNL     1      -3.838   3.218 126.540  0.00  0.00    +0.000 C 
BRANCH  22  23
ATOM     23  N   UNL     1      -4.192   1.815 126.734  0.00  0.00    +0.000 NA
ATOM     24  H   UNL     1      -3.368   1.387 126.287  0.00  0.00    +0.000 HD
ATOM     25  H   UNL     1      -4.982   1.563 126.134  0.00  0.00    +0.000 HD
ENDBRANCH  22  23
BRANCH  19  26
ATOM     26  C   UNL     1      -3.364   7.149 128.344  0.00  0.00    +0.000 C 
BRANCH  26  27
ATOM     27  N   UNL     1      -4.480   7.513 129.211  0.00  0.00    +0.000 NA
ATOM     28  H   UNL     1      -4.382   8.497 129.452  0.00  0.00    +0.000 HD
ATOM     29  H   UNL     1      -4.429   6.985 130.075  0.00  0.00    +0.000 HD
ENDBRANCH  26  27
ENDBRANCH  19  26
ENDBRANCH  16  17
ENDBRANCH   4  16
BRANCH   6  30
ATOM     30  O   UNL     1      -6.574   1.066 128.998  0.00  0.00    +0.000 OA
BRANCH  30  31
ATOM     31  C   UNL     1      -7.040   0.046 128.100  0.00  0.00    +0.000 C 
ATOM     32  O   UNL     1      -6.972   0.513 126.759  0.00  0.00    +0.000 OA
ATOM     33  C   UNL     1      -7.640  -0.221 125.757  0.00  0.00    +0.000 C 
ATOM     34  C   UNL     1      -6.940  -1.564 125.651  0.00  0.00    +0.000 C 
ATOM     35  C   UNL     1      -5.535  -1.336 125.069  0.00  0.00    +0.000 C 
ATOM     36  C   UNL     1      -6.946  -2.205 127.092  0.00  0.00    +0.000 C 
ATOM     37  C   UNL     1      -6.247  -1.272 128.138  0.00  0.00    +0.000 C 
BRANCH  36  38
ATOM     38  N   UNL     1      -8.380  -2.490 127.465  0.00  0.00    +0.000 NA
ATOM     39  C   UNL     1      -8.471  -3.615 128.387  0.00  0.00    +0.000 C 
ATOM     40  H   UNL     1      -8.804  -1.684 127.928  0.00  0.00    +0.000 HD
ENDBRANCH  36  38
BRANCH  34  41
ATOM     41  O   UNL     1      -7.659  -2.389 124.729  0.00  0.00    +0.000 OA
ATOM     42  H   UNL     1      -7.711  -3.269 125.147  0.00  0.00    +0.000 HD
ENDBRANCH  34  41
BRANCH  37  43
ATOM     43  O   UNL     1      -4.858  -1.111 127.835  0.00  0.00    +0.000 OA
ATOM     44  H   UNL     1      -4.594  -0.258 128.230  0.00  0.00    +0.000 HD
ENDBRANCH  37  43
ENDBRANCH  30  31
ENDBRANCH   6  30
TORSDOF 14
ENDMDL
MODEL 6
REMARK VINA RESULT:      -6.5      3.823      7.772
REMARK  Name = Netilmicin
REMARK  17 active torsions:
REMARK  status: ('A' for Active; 'I' for Inactive)
REMARK    1  A    between atoms: C_1  and  C_2
REMARK    2  A    between atoms: C_2  and  N_3
REMARK    3  A    between atoms: N_3  and  C_4
REMARK    4  A    between atoms: C_6  and  N_7
REMARK    5  A    between atoms: C_8  and  O_9
REMARK    6  A    between atoms: O_9  and  C_10
REMARK    7  A    between atoms: C_12  and  C_13
REMARK    8  A    between atoms: C_13  and  N_14
REMARK    9  A    between atoms: C_17  and  N_18
REMARK   10  A    between atoms: C_19  and  O_20
REMARK   11  A    between atoms: C_21  and  O_22
REMARK   12  A    between atoms: O_22  and  C_23
REMARK   13  A    between atoms: C_26  and  C_27
REMARK   14  A    between atoms: C_26  and  O_28
REMARK   15  A    between atoms: C_29  and  N_30
REMARK   16  A    between atoms: N_30  and  C_31
REMARK   17  A    between atoms: C_32  and  O_33
REMARK                            x       y       z     vdW  Elec       q    Type
REMARK                         _______ _______ _______ _____ _____    ______ ____
ROOT
ATOM      1  C   UNL     1      -7.066   2.674 124.108  0.00  0.00    +0.000 C 
ATOM      2  C   UNL     1      -7.958   3.758 124.666  0.00  0.00    +0.000 C 
ATOM      3  C   UNL     1      -7.196   4.740 125.641  0.00  0.00    +0.000 C 
ATOM      4  C   UNL     1      -6.514   3.985 126.850  0.00  0.00    +0.000 C 
ATOM      5  C   UNL     1      -5.529   3.011 126.167  0.00  0.00    +0.000 C 
ATOM      6  C   UNL     1      -6.337   1.965 125.289  0.00  0.00    +0.000 C 
ENDROOT
BRANCH   3   7
ATOM      7  N   UNL     1      -6.405   5.765 124.937  0.00  0.00    +0.000 NA
ATOM      8  H   UNL     1      -6.135   5.514 123.986  0.00  0.00    +0.000 HD
ATOM      9  H   UNL     1      -5.609   6.080 125.489  0.00  0.00    +0.000 HD
ENDBRANCH   3   7
BRANCH   1  10
ATOM     10  N   UNL     1      -6.215   3.380 123.164  0.00  0.00    +0.000 NA
ATOM     11  H   UNL     1      -5.992   4.310 123.528  0.00  0.00    +0.000 HD
BRANCH  10  13
ATOM     12  C   UNL     1      -5.529   3.711 120.931  0.00  0.00    +0.000 C 
ATOM     13  C   UNL     1      -6.721   3.435 121.811  0.00  0.00    +0.000 C 
ENDBRANCH  10  13
ENDBRANCH   1  10
BRANCH   5  14
ATOM     14  O   UNL     1      -4.550   3.829 125.521  0.00  0.00    +0.000 OA
ATOM     15  H   UNL     1      -4.132   4.308 126.258  0.00  0.00    +0.000 HD
ENDBRANCH   5  14
BRANCH   4  16
ATOM     16  O   UNL     1      -7.462   3.284 127.678  0.00  0.00    +0.000 OA
BRANCH  16  17
ATOM     17  C   UNL     1      -7.452   3.413 129.121  0.00  0.00    +0.000 C 
ATOM     18  O   UNL     1      -7.686   4.735 129.559  0.00  0.00    +0.000 OA
ATOM     19  C   UNL     1      -8.942   4.986 130.066  0.00  0.00    +0.000 C 
ATOM     20  C   UNL     1      -9.839   4.053 130.334  0.00  0.00    +0.000 C 
ATOM     21  C   UNL     1      -9.630   2.587 130.252  0.00  0.00    +0.000 C 
ATOM     22  C   UNL     1      -8.217   2.239 129.812  0.00  0.00    +0.000 C 
BRANCH  22  23
ATOM     23  N   UNL     1      -8.217   1.088 128.914  0.00  0.00    +0.000 NA
ATOM     24  H   UNL     1      -8.936   1.412 128.251  0.00  0.00    +0.000 HD
ATOM     25  H   UNL     1      -8.631   0.276 129.380  0.00  0.00    +0.000 HD
ENDBRANCH  22  23
BRANCH  19  26
ATOM     26  C   UNL     1      -9.148   6.457 130.346  0.00  0.00    +0.000 C 
BRANCH  26  27
ATOM     27  N   UNL     1      -7.879   7.141 130.573  0.00  0.00    +0.000 NA
ATOM     28  H   UNL     1      -7.168   6.679 130.010  0.00  0.00    +0.000 HD
ATOM     29  H   UNL     1      -7.605   7.042 131.544  0.00  0.00    +0.000 HD
ENDBRANCH  26  27
ENDBRANCH  19  26
ENDBRANCH  16  17
ENDBRANCH   4  16
BRANCH   6  30
ATOM     30  O   UNL     1      -7.277   1.178 126.088  0.00  0.00    +0.000 OA
BRANCH  30  31
ATOM     31  C   UNL     1      -7.246  -0.191 125.651  0.00  0.00    +0.000 C 
ATOM     32  O   UNL     1      -7.604  -1.050 126.725  0.00  0.00    +0.000 OA
ATOM     33  C   UNL     1      -7.365  -2.433 126.587  0.00  0.00    +0.000 C 
ATOM     34  C   UNL     1      -8.273  -2.931 125.478  0.00  0.00    +0.000 C 
ATOM     35  C   UNL     1      -9.728  -2.855 125.969  0.00  0.00    +0.000 C 
ATOM     36  C   UNL     1      -7.974  -2.052 124.203  0.00  0.00    +0.000 C 
ATOM     37  C   UNL     1      -8.199  -0.528 124.491  0.00  0.00    +0.000 C 
BRANCH  36  38
ATOM     38  N   UNL     1      -6.558  -2.337 123.767  0.00  0.00    +0.000 NA
ATOM     39  C   UNL     1      -6.312  -1.835 122.421  0.00  0.00    +0.000 C 
ATOM     40  H   UNL     1      -5.886  -1.883 124.387  0.00  0.00    +0.000 HD
ENDBRANCH  36  38
BRANCH  34  41
ATOM     41  O   UNL     1      -7.978  -4.308 125.221  0.00  0.00    +0.000 OA
ATOM     42  H   UNL     1      -8.691  -4.626 124.635  0.00  0.00    +0.000 HD
ENDBRANCH  34  41
BRANCH  37  43
ATOM     43  O   UNL     1      -9.574  -0.259 124.786  0.00  0.00    +0.000 OA
ATOM     44  H   UNL     1     -10.030  -1.120 124.749  0.00  0.00    +0.000 HD
ENDBRANCH  37  43
ENDBRANCH  30  31
ENDBRANCH   6  30
TORSDOF 14
ENDMDL
MODEL 7
REMARK VINA RESULT:      -6.5      2.937      6.796
REMARK  Name = Netilmicin
REMARK  17 active torsions:
REMARK  status: ('A' for Active; 'I' for Inactive)
REMARK    1  A    between atoms: C_1  and  C_2
REMARK    2  A    between atoms: C_2  and  N_3
REMARK    3  A    between atoms: N_3  and  C_4
REMARK    4  A    between atoms: C_6  and  N_7
REMARK    5  A    between atoms: C_8  and  O_9
REMARK    6  A    between atoms: O_9  and  C_10
REMARK    7  A    between atoms: C_12  and  C_13
REMARK    8  A    between atoms: C_13  and  N_14
REMARK    9  A    between atoms: C_17  and  N_18
REMARK   10  A    between atoms: C_19  and  O_20
REMARK   11  A    between atoms: C_21  and  O_22
REMARK   12  A    between atoms: O_22  and  C_23
REMARK   13  A    between atoms: C_26  and  C_27
REMARK   14  A    between atoms: C_26  and  O_28
REMARK   15  A    between atoms: C_29  and  N_30
REMARK   16  A    between atoms: N_30  and  C_31
REMARK   17  A    between atoms: C_32  and  O_33
REMARK                            x       y       z     vdW  Elec       q    Type
REMARK                         _______ _______ _______ _____ _____    ______ ____
ROOT
ATOM      1  C   UNL     1      -8.358   1.628 129.580  0.00  0.00    +0.000 C 
ATOM      2  C   UNL     1      -6.991   2.002 130.105  0.00  0.00    +0.000 C 
ATOM      3  C   UNL     1      -6.624   3.516 129.842  0.00  0.00    +0.000 C 
ATOM      4  C   UNL     1      -6.692   3.898 128.311  0.00  0.00    +0.000 C 
ATOM      5  C   UNL     1      -8.159   3.611 127.923  0.00  0.00    +0.000 C 
ATOM      6  C   UNL     1      -8.458   2.061 128.087  0.00  0.00    +0.000 C 
ENDROOT
BRANCH   3   7
ATOM      7  N   UNL     1      -7.240   4.443 130.809  0.00  0.00    +0.000 NA
ATOM      8  H   UNL     1      -7.029   5.427 130.649  0.00  0.00    +0.000 HD
ATOM      9  H   UNL     1      -7.060   4.165 131.773  0.00  0.00    +0.000 HD
ENDBRANCH   3   7
BRANCH   1  10
ATOM     10  N   UNL     1      -9.271   2.287 130.500  0.00  0.00    +0.000 NA
ATOM     11  H   UNL     1      -8.929   3.227 130.714  0.00  0.00    +0.000 HD
BRANCH  10  13
ATOM     12  C   UNL     1      -9.448   2.507 132.842  0.00  0.00    +0.000 C 
ATOM     13  C   UNL     1      -9.578   1.536 131.696  0.00  0.00    +0.000 C 
ENDBRANCH  10  13
ENDBRANCH   1  10
BRANCH   5  14
ATOM     14  O   UNL     1      -8.952   4.539 128.667  0.00  0.00    +0.000 OA
ATOM     15  H   UNL     1      -8.301   4.995 129.228  0.00  0.00    +0.000 HD
ENDBRANCH   5  14
BRANCH   4  16
ATOM     16  O   UNL     1      -5.772   3.138 127.504  0.00  0.00    +0.000 OA
BRANCH  16  17
ATOM     17  C   UNL     1      -4.820   3.783 126.624  0.00  0.00    +0.000 C 
ATOM     18  O   UNL     1      -4.467   5.083 127.049  0.00  0.00    +0.000 OA
ATOM     19  C   UNL     1      -3.226   5.208 127.632  0.00  0.00    +0.000 C 
ATOM     20  C   UNL     1      -2.305   4.259 127.640  0.00  0.00    +0.000 C 
ATOM     21  C   UNL     1      -2.387   2.954 126.940  0.00  0.00    +0.000 C 
ATOM     22  C   UNL     1      -3.690   2.802 126.174  0.00  0.00    +0.000 C 
BRANCH  22  23
ATOM     23  N   UNL     1      -4.195   1.435 126.265  0.00  0.00    +0.000 NA
ATOM     24  H   UNL     1      -3.566   1.089 127.004  0.00  0.00    +0.000 HD
ATOM     25  H   UNL     1      -3.937   0.906 125.427  0.00  0.00    +0.000 HD
ENDBRANCH  22  23
BRANCH  19  26
ATOM     26  C   UNL     1      -3.014   6.590 128.205  0.00  0.00    +0.000 C 
BRANCH  26  27
ATOM     27  N   UNL     1      -1.945   6.600 129.198  0.00  0.00    +0.000 NA
ATOM     28  H   UNL     1      -1.058   6.528 128.704  0.00  0.00    +0.000 HD
ATOM     29  H   UNL     1      -2.025   5.785 129.796  0.00  0.00    +0.000 HD
ENDBRANCH  26  27
ENDBRANCH  19  26
ENDBRANCH  16  17
ENDBRANCH   4  16
BRANCH   6  30
ATOM     30  O   UNL     1      -7.593   1.236 127.243  0.00  0.00    +0.000 OA
BRANCH  30  31
ATOM     31  C   UNL     1      -8.350   0.735 126.128  0.00  0.00    +0.000 C 
ATOM     32  O   UNL     1      -9.240   1.738 125.657  0.00  0.00    +0.000 OA
ATOM     33  C   UNL     1     -10.261   1.363 124.760  0.00  0.00    +0.000 C 
ATOM     34  C   UNL     1      -9.582   0.925 123.475  0.00  0.00    +0.000 C 
ATOM     35  C   UNL     1      -8.946   2.160 122.815  0.00  0.00    +0.000 C 
ATOM     36  C   UNL     1      -8.552  -0.206 123.856  0.00  0.00    +0.000 C 
ATOM     37  C   UNL     1      -7.512   0.297 124.914  0.00  0.00    +0.000 C 
BRANCH  36  38
ATOM     38  N   UNL     1      -9.335  -1.393 124.360  0.00  0.00    +0.000 NA
ATOM     39  C   UNL     1      -9.028  -2.592 123.590  0.00  0.00    +0.000 C 
ATOM     40  H   UNL     1      -9.107  -1.594 125.335  0.00  0.00    +0.000 HD
ENDBRANCH  36  38
BRANCH  34  41
ATOM     41  O   UNL     1     -10.575   0.421 122.575  0.00  0.00    +0.000 OA
ATOM     42  H   UNL     1     -11.400   0.372 123.093  0.00  0.00    +0.000 HD
ENDBRANCH  34  41
BRANCH  37  43
ATOM     43  O   UNL     1      -6.697   1.343 124.376  0.00  0.00    +0.000 OA
ATOM     44  H   UNL     1      -6.016   1.527 125.051  0.00  0.00    +0.000 HD
ENDBRANCH  37  43
ENDBRANCH  30  31
ENDBRANCH   6  30
TORSDOF 14
ENDMDL
MODEL 8
REMARK VINA RESULT:      -6.4      1.214      2.288
REMARK  Name = Netilmicin
REMARK  17 active torsions:
REMARK  status: ('A' for Active; 'I' for Inactive)
REMARK    1  A    between atoms: C_1  and  C_2
REMARK    2  A    between atoms: C_2  and  N_3
REMARK    3  A    between atoms: N_3  and  C_4
REMARK    4  A    between atoms: C_6  and  N_7
REMARK    5  A    between atoms: C_8  and  O_9
REMARK    6  A    between atoms: O_9  and  C_10
REMARK    7  A    between atoms: C_12  and  C_13
REMARK    8  A    between atoms: C_13  and  N_14
REMARK    9  A    between atoms: C_17  and  N_18
REMARK   10  A    between atoms: C_19  and  O_20
REMARK   11  A    between atoms: C_21  and  O_22
REMARK   12  A    between atoms: O_22  and  C_23
REMARK   13  A    between atoms: C_26  and  C_27
REMARK   14  A    between atoms: C_26  and  O_28
REMARK   15  A    between atoms: C_29  and  N_30
REMARK   16  A    between atoms: N_30  and  C_31
REMARK   17  A    between atoms: C_32  and  O_33
REMARK                            x       y       z     vdW  Elec       q    Type
REMARK                         _______ _______ _______ _____ _____    ______ ____
ROOT
ATOM      1  C   UNL     1      -4.254   3.951 129.602  0.00  0.00    +0.000 C 
ATOM      2  C   UNL     1      -4.062   2.844 128.591  0.00  0.00    +0.000 C 
ATOM      3  C   UNL     1      -3.487   3.362 127.213  0.00  0.00    +0.000 C 
ATOM      4  C   UNL     1      -4.392   4.481 126.562  0.00  0.00    +0.000 C 
ATOM      5  C   UNL     1      -4.400   5.610 127.615  0.00  0.00    +0.000 C 
ATOM      6  C   UNL     1      -5.091   5.090 128.946  0.00  0.00    +0.000 C 
ENDROOT
BRANCH   3   7
ATOM      7  N   UNL     1      -2.030   3.584 127.236  0.00  0.00    +0.000 NA
ATOM      8  H   UNL     1      -1.649   3.990 126.381  0.00  0.00    +0.000 HD
ATOM      9  H   UNL     1      -1.520   2.751 127.523  0.00  0.00    +0.000 HD
ENDBRANCH   3   7
BRANCH   1  10
ATOM     10  N   UNL     1      -2.897   4.299 129.993  0.00  0.00    +0.000 NA
ATOM     11  H   UNL     1      -2.303   3.467 129.958  0.00  0.00    +0.000 HD
BRANCH  10  13
ATOM     12  C   UNL     1      -1.919   6.198 130.994  0.00  0.00    +0.000 C 
ATOM     13  C   UNL     1      -2.786   4.993 131.256  0.00  0.00    +0.000 C 
ENDBRANCH  10  13
ENDBRANCH   1  10
BRANCH   5  14
ATOM     14  O   UNL     1      -3.055   6.088 127.689  0.00  0.00    +0.000 OA
ATOM     15  H   UNL     1      -2.832   6.284 126.763  0.00  0.00    +0.000 HD
ENDBRANCH   5  14
BRANCH   4  16
ATOM     16  O   UNL     1      -5.726   4.020 126.270  0.00  0.00    +0.000 OA
BRANCH  16  17
ATOM     17  C   UNL     1      -5.968   2.925 125.352  0.00  0.00    +0.000 C 
ATOM     18  O   UNL     1      -6.703   1.869 125.934  0.00  0.00    +0.000 OA
ATOM     19  C   UNL     1      -8.027   1.785 125.566  0.00  0.00    +0.000 C 
ATOM     20  C   UNL     1      -8.578   2.488 124.591  0.00  0.00    +0.000 C 
ATOM     21  C   UNL     1      -7.867   3.394 123.656  0.00  0.00    +0.000 C 
ATOM     22  C   UNL     1      -6.374   3.438 123.933  0.00  0.00    +0.000 C 
BRANCH  22  23
ATOM     23  N   UNL     1      -5.848   4.789 123.756  0.00  0.00    +0.000 NA
ATOM     24  H   UNL     1      -6.384   5.051 122.916  0.00  0.00    +0.000 HD
ATOM     25  H   UNL     1      -4.873   4.751 123.450  0.00  0.00    +0.000 HD
ENDBRANCH  22  23
BRANCH  19  26
ATOM     26  C   UNL     1      -8.765   0.737 126.367  0.00  0.00    +0.000 C 
BRANCH  26  27
ATOM     27  N   UNL     1      -9.882   0.176 125.615  0.00  0.00    +0.000 NA
ATOM     28  H   UNL     1     -10.123   0.833 124.876  0.00  0.00    +0.000 HD
ATOM     29  H   UNL     1     -10.692   0.089 126.217  0.00  0.00    +0.000 HD
ENDBRANCH  26  27
ENDBRANCH  19  26
ENDBRANCH  16  17
ENDBRANCH   4  16
BRANCH   6  30
ATOM     30  O   UNL     1      -6.473   4.664 128.724  0.00  0.00    +0.000 OA
BRANCH  30  31
ATOM     31  C   UNL     1      -7.222   4.820 129.941  0.00  0.00    +0.000 C 
ATOM     32  O   UNL     1      -7.320   6.198 130.276  0.00  0.00    +0.000 OA
ATOM     33  C   UNL     1      -7.768   6.545 131.567  0.00  0.00    +0.000 C 
ATOM     34  C   UNL     1      -9.216   6.099 131.668  0.00  0.00    +0.000 C 
ATOM     35  C   UNL     1     -10.062   6.980 130.734  0.00  0.00    +0.000 C 
ATOM     36  C   UNL     1      -9.254   4.563 131.318  0.00  0.00    +0.000 C 
ATOM     37  C   UNL     1      -8.664   4.284 129.893  0.00  0.00    +0.000 C 
BRANCH  36  38
ATOM     38  N   UNL     1      -8.496   3.824 132.393  0.00  0.00    +0.000 NA
ATOM     39  C   UNL     1      -9.181   2.595 132.770  0.00  0.00    +0.000 C 
ATOM     40  H   UNL     1      -7.563   3.564 132.070  0.00  0.00    +0.000 HD
ENDBRANCH  36  38
BRANCH  34  41
ATOM     41  O   UNL     1      -9.677   6.324 133.004  0.00  0.00    +0.000 OA
ATOM     42  H   UNL     1     -10.632   6.122 132.991  0.00  0.00    +0.000 HD
ENDBRANCH  34  41
BRANCH  37  43
ATOM     43  O   UNL     1      -9.466   4.892 128.877  0.00  0.00    +0.000 OA
ATOM     44  H   UNL     1     -10.220   4.290 128.732  0.00  0.00    +0.000 HD
ENDBRANCH  37  43
ENDBRANCH  30  31
ENDBRANCH   6  30
TORSDOF 14
ENDMDL
MODEL 9
REMARK VINA RESULT:      -6.4      2.306      6.981
REMARK  Name = Netilmicin
REMARK  17 active torsions:
REMARK  status: ('A' for Active; 'I' for Inactive)
REMARK    1  A    between atoms: C_1  and  C_2
REMARK    2  A    between atoms: C_2  and  N_3
REMARK    3  A    between atoms: N_3  and  C_4
REMARK    4  A    between atoms: C_6  and  N_7
REMARK    5  A    between atoms: C_8  and  O_9
REMARK    6  A    between atoms: O_9  and  C_10
REMARK    7  A    between atoms: C_12  and  C_13
REMARK    8  A    between atoms: C_13  and  N_14
REMARK    9  A    between atoms: C_17  and  N_18
REMARK   10  A    between atoms: C_19  and  O_20
REMARK   11  A    between atoms: C_21  and  O_22
REMARK   12  A    between atoms: O_22  and  C_23
REMARK   13  A    between atoms: C_26  and  C_27
REMARK   14  A    between atoms: C_26  and  O_28
REMARK   15  A    between atoms: C_29  and  N_30
REMARK   16  A    between atoms: N_30  and  C_31
REMARK   17  A    between atoms: C_32  and  O_33
REMARK                            x       y       z     vdW  Elec       q    Type
REMARK                         _______ _______ _______ _____ _____    ______ ____
ROOT
ATOM      1  C   UNL     1      -7.982   3.502 131.163  0.00  0.00    +0.000 C 
ATOM      2  C   UNL     1      -6.772   3.819 132.011  0.00  0.00    +0.000 C 
ATOM      3  C   UNL     1      -6.666   5.350 132.386  0.00  0.00    +0.000 C 
ATOM      4  C   UNL     1      -6.640   6.284 131.112  0.00  0.00    +0.000 C 
ATOM      5  C   UNL     1      -7.978   5.981 130.403  0.00  0.00    +0.000 C 
ATOM      6  C   UNL     1      -8.000   4.464 129.936  0.00  0.00    +0.000 C 
ENDROOT
BRANCH   3   7
ATOM      7  N   UNL     1      -7.543   5.739 133.505  0.00  0.00    +0.000 NA
ATOM      8  H   UNL     1      -7.063   6.186 134.286  0.00  0.00    +0.000 HD
ATOM      9  H   UNL     1      -8.137   4.970 133.811  0.00  0.00    +0.000 HD
ENDBRANCH   3   7
BRANCH   1  10
ATOM     10  N   UNL     1      -9.094   3.627 132.090  0.00  0.00    +0.000 NA
ATOM     11  H   UNL     1      -8.954   4.443 132.690  0.00  0.00    +0.000 HD
BRANCH  10  13
ATOM     12  C   UNL     1      -9.763   1.378 131.847  0.00  0.00    +0.000 C 
ATOM     13  C   UNL     1      -9.387   2.436 132.854  0.00  0.00    +0.000 C 
ENDBRANCH  10  13
ENDBRANCH   1  10
BRANCH   5  14
ATOM     14  O   UNL     1      -9.004   6.435 131.289  0.00  0.00    +0.000 OA
ATOM     15  H   UNL     1      -9.780   6.527 130.709  0.00  0.00    +0.000 HD
ENDBRANCH   5  14
BRANCH   4  16
ATOM     16  O   UNL     1      -5.514   6.023 130.251  0.00  0.00    +0.000 OA
BRANCH  16  17
ATOM     17  C   UNL     1      -4.555   7.058 129.919  0.00  0.00    +0.000 C 
ATOM     18  O   UNL     1      -3.876   7.565 131.048  0.00  0.00    +0.000 OA
ATOM     19  C   UNL     1      -2.577   7.138 131.209  0.00  0.00    +0.000 C 
ATOM     20  C   UNL     1      -1.894   6.462 130.301  0.00  0.00    +0.000 C 
ATOM     21  C   UNL     1      -2.346   6.144 128.924  0.00  0.00    +0.000 C 
ATOM     22  C   UNL     1      -3.733   6.696 128.641  0.00  0.00    +0.000 C 
BRANCH  22  23
ATOM     23  N   UNL     1      -4.512   5.763 127.832  0.00  0.00    +0.000 NA
ATOM     24  H   UNL     1      -5.251   5.548 128.517  0.00  0.00    +0.000 HD
ATOM     25  H   UNL     1      -3.999   4.886 127.710  0.00  0.00    +0.000 HD
ENDBRANCH  22  23
BRANCH  19  26
ATOM     26  C   UNL     1      -1.997   7.595 132.528  0.00  0.00    +0.000 C 
BRANCH  26  27
ATOM     27  N   UNL     1      -2.901   7.309 133.637  0.00  0.00    +0.000 NA
ATOM     28  H   UNL     1      -3.278   8.194 133.971  0.00  0.00    +0.000 HD
ATOM     29  H   UNL     1      -2.383   6.894 134.404  0.00  0.00    +0.000 HD
ENDBRANCH  26  27
ENDBRANCH  19  26
ENDBRANCH  16  17
ENDBRANCH   4  16
BRANCH   6  30
ATOM     30  O   UNL     1      -6.912   4.152 129.010  0.00  0.00    +0.000 OA
BRANCH  30  31
ATOM     31  C   UNL     1      -7.460   3.839 127.718  0.00  0.00    +0.000 C 
ATOM     32  O   UNL     1      -7.340   4.962 126.856  0.00  0.00    +0.000 OA
ATOM     33  C   UNL     1      -8.061   4.960 125.644  0.00  0.00    +0.000 C 
ATOM     34  C   UNL     1      -7.482   3.849 124.786  0.00  0.00    +0.000 C 
ATOM     35  C   UNL     1      -6.057   4.251 124.367  0.00  0.00    +0.000 C 
ATOM     36  C   UNL     1      -7.556   2.522 125.634  0.00  0.00    +0.000 C 
ATOM     37  C   UNL     1      -6.786   2.662 126.991  0.00  0.00    +0.000 C 
BRANCH  36  38
ATOM     38  N   UNL     1      -9.012   2.191 125.847  0.00  0.00    +0.000 NA
ATOM     39  C   UNL     1      -9.264   0.769 125.649  0.00  0.00    +0.000 C 
ATOM     40  H   UNL     1      -9.303   2.420 126.799  0.00  0.00    +0.000 HD
ENDBRANCH  36  38
BRANCH  34  41
ATOM     41  O   UNL     1      -8.263   3.731 123.593  0.00  0.00    +0.000 OA
ATOM     42  H   UNL     1      -7.913   2.949 123.125  0.00  0.00    +0.000 HD
ENDBRANCH  34  41
BRANCH  37  43
ATOM     43  O   UNL     1      -5.385   2.855 126.769  0.00  0.00    +0.000 OA
ATOM     44  H   UNL     1      -5.313   3.593 126.134  0.00  0.00    +0.000 HD
ENDBRANCH  37  43
ENDBRANCH  30  31
ENDBRANCH   6  30
TORSDOF 14
ENDMDL
