MODEL 1
REMARK VINA RESULT:      -9.9      0.000      0.000
REMARK  Name = Netupitant
REMARK  11 active torsions:
REMARK  status: ('A' for Active; 'I' for Inactive)
REMARK    1  A    between atoms: C_1  and  N_2
REMARK    2  A    between atoms: N_2  and  C_22
REMARK    3  A    between atoms: C_3  and  C_5
REMARK    4  A    between atoms: C_5  and  C_6
REMARK    5  A    between atoms: C_5  and  C_7
REMARK    6  A    between atoms: C_5  and  C_8
REMARK    7  A    between atoms: C_10  and  C_18
REMARK    8  A    between atoms: C_12  and  C_14
REMARK    9  A    between atoms: C_27  and  C_28
REMARK   10  A    between atoms: C_33  and  C_34
REMARK   11  A    between atoms: N_38  and  C_39
REMARK                            x       y       z     vdW  Elec       q    Type
REMARK                         _______ _______ _______ _____ _____    ______ ____
ROOT
ATOM      1  C   UNL     1      -7.593   2.266 132.241  0.00  0.00    +0.000 C 
ATOM      2  N   UNL     1      -8.255   2.246 130.935  0.00  0.00    +0.000 N 
ATOM      3  C   UNL     1      -7.965   1.341 129.906  0.00  0.00    +0.000 C 
ATOM      4  O   UNL     1      -8.381   1.600 128.759  0.00  0.00    +0.000 OA
ENDROOT
BRANCH   2   5
ATOM      5  C   UNL     1      -9.051   3.412 130.575  0.00  0.00    +0.000 A 
ATOM      6  C   UNL     1     -10.450   3.319 130.522  0.00  0.00    +0.000 A 
ATOM      7  N   UNL     1     -11.304   4.339 130.227  0.00  0.00    +0.000 NA
ATOM      8  C   UNL     1     -10.766   5.517 129.878  0.00  0.00    +0.000 A 
ATOM      9  C   UNL     1      -9.386   5.687 129.843  0.00  0.00    +0.000 A 
ATOM     10  C   UNL     1      -8.500   4.649 130.193  0.00  0.00    +0.000 A 
ATOM     11  N   UNL     1     -11.557   6.628 129.699  0.00  0.00    +0.000 N 
ATOM     12  C   UNL     1     -11.694   7.287 128.397  0.00  0.00    +0.000 C 
ATOM     13  C   UNL     1     -11.885   8.808 128.636  0.00  0.00    +0.000 C 
ATOM     14  N   UNL     1     -13.034   9.082 129.534  0.00  0.00    +0.000 NA
ATOM     15  C   UNL     1     -13.217  10.513 129.737  0.00  0.00    +0.000 C 
ATOM     16  C   UNL     1     -12.794   8.391 130.824  0.00  0.00    +0.000 C 
ATOM     17  C   UNL     1     -12.643   6.860 130.645  0.00  0.00    +0.000 C 
BRANCH  10  18
ATOM     18  C   UNL     1      -7.057   4.912 130.023  0.00  0.00    +0.000 A 
ATOM     19  C   UNL     1      -6.421   4.510 128.832  0.00  0.00    +0.000 A 
ATOM     20  C   UNL     1      -5.061   4.750 128.630  0.00  0.00    +0.000 A 
ATOM     21  C   UNL     1      -4.335   5.471 129.572  0.00  0.00    +0.000 A 
ATOM     22  C   UNL     1      -4.949   5.908 130.741  0.00  0.00    +0.000 A 
ATOM     23  C   UNL     1      -6.294   5.607 130.997  0.00  0.00    +0.000 A 
ATOM     24  C   UNL     1      -6.899   6.134 132.267  0.00  0.00    +0.000 C 
ENDBRANCH  10  18
ENDBRANCH   2   5
BRANCH   3  25
ATOM     25  C   UNL     1      -7.012   0.115 130.140  0.00  0.00    +0.000 C 
ATOM     26  C   UNL     1      -5.555   0.621 130.343  0.00  0.00    +0.000 C 
ATOM     27  C   UNL     1      -7.526  -0.730 131.329  0.00  0.00    +0.000 C 
BRANCH  25  28
ATOM     28  C   UNL     1      -6.978  -0.888 128.943  0.00  0.00    +0.000 A 
ATOM     29  C   UNL     1      -6.189  -0.694 127.800  0.00  0.00    +0.000 A 
ATOM     30  C   UNL     1      -6.302  -1.505 126.666  0.00  0.00    +0.000 A 
ATOM     31  C   UNL     1      -7.155  -2.605 126.697  0.00  0.00    +0.000 A 
ATOM     32  C   UNL     1      -7.966  -2.830 127.811  0.00  0.00    +0.000 A 
ATOM     33  C   UNL     1      -7.875  -1.971 128.911  0.00  0.00    +0.000 A 
BRANCH  32  34
ATOM     34  C   UNL     1      -8.996  -3.925 127.780  0.00  0.00    +0.000 C 
ATOM     35  F   UNL     1      -9.903  -3.736 126.783  0.00  0.00    +0.000 F 
ATOM     36  F   UNL     1      -8.447  -5.150 127.573  0.00  0.00    +0.000 F 
ATOM     37  F   UNL     1      -9.721  -4.021 128.929  0.00  0.00    +0.000 F 
ENDBRANCH  32  34
BRANCH  30  38
ATOM     38  C   UNL     1      -5.609  -1.068 125.404  0.00  0.00    +0.000 C 
ATOM     39  F   UNL     1      -5.025  -2.126 124.770  0.00  0.00    +0.000 F 
ATOM     40  F   UNL     1      -6.443  -0.496 124.498  0.00  0.00    +0.000 F 
ATOM     41  F   UNL     1      -4.607  -0.175 125.626  0.00  0.00    +0.000 F 
ENDBRANCH  30  38
ENDBRANCH  25  28
ENDBRANCH   3  25
TORSDOF 6
ENDMDL
MODEL 2
REMARK VINA RESULT:      -9.5      4.728      9.066
REMARK  Name = Netupitant
REMARK  11 active torsions:
REMARK  status: ('A' for Active; 'I' for Inactive)
REMARK    1  A    between atoms: C_1  and  N_2
REMARK    2  A    between atoms: N_2  and  C_22
REMARK    3  A    between atoms: C_3  and  C_5
REMARK    4  A    between atoms: C_5  and  C_6
REMARK    5  A    between atoms: C_5  and  C_7
REMARK    6  A    between atoms: C_5  and  C_8
REMARK    7  A    between atoms: C_10  and  C_18
REMARK    8  A    between atoms: C_12  and  C_14
REMARK    9  A    between atoms: C_27  and  C_28
REMARK   10  A    between atoms: C_33  and  C_34
REMARK   11  A    between atoms: N_38  and  C_39
REMARK                            x       y       z     vdW  Elec       q    Type
REMARK                         _______ _______ _______ _____ _____    ______ ____
ROOT
ATOM      1  C   UNL     1      -4.317   2.073 126.247  0.00  0.00    +0.000 C 
ATOM      2  N   UNL     1      -5.473   1.774 127.094  0.00  0.00    +0.000 N 
ATOM      3  C   UNL     1      -6.596   2.600 127.233  0.00  0.00    +0.000 C 
ATOM      4  O   UNL     1      -7.371   2.385 128.186  0.00  0.00    +0.000 OA
ENDROOT
BRANCH   2   5
ATOM      5  C   UNL     1      -5.323   0.704 128.071  0.00  0.00    +0.000 A 
ATOM      6  C   UNL     1      -4.782   0.980 129.336  0.00  0.00    +0.000 A 
ATOM      7  N   UNL     1      -4.614   0.077 130.343  0.00  0.00    +0.000 NA
ATOM      8  C   UNL     1      -4.916  -1.204 130.083  0.00  0.00    +0.000 A 
ATOM      9  C   UNL     1      -5.402  -1.583 128.836  0.00  0.00    +0.000 A 
ATOM     10  C   UNL     1      -5.621  -0.645 127.808  0.00  0.00    +0.000 A 
ATOM     11  N   UNL     1      -4.904  -2.148 131.084  0.00  0.00    +0.000 N 
ATOM     12  C   UNL     1      -3.965  -3.273 131.085  0.00  0.00    +0.000 C 
ATOM     13  C   UNL     1      -4.665  -4.494 131.738  0.00  0.00    +0.000 C 
ATOM     14  N   UNL     1      -5.168  -4.176 133.097  0.00  0.00    +0.000 NA
ATOM     15  C   UNL     1      -5.806  -5.333 133.711  0.00  0.00    +0.000 C 
ATOM     16  C   UNL     1      -6.120  -3.043 132.989  0.00  0.00    +0.000 C 
ATOM     17  C   UNL     1      -5.456  -1.781 132.384  0.00  0.00    +0.000 C 
BRANCH  10  18
ATOM     18  C   UNL     1      -6.043  -1.173 126.496  0.00  0.00    +0.000 A 
ATOM     19  C   UNL     1      -5.078  -1.739 125.639  0.00  0.00    +0.000 A 
ATOM     20  C   UNL     1      -5.440  -2.258 124.396  0.00  0.00    +0.000 A 
ATOM     21  C   UNL     1      -6.780  -2.302 124.024  0.00  0.00    +0.000 A 
ATOM     22  C   UNL     1      -7.756  -1.780 124.868  0.00  0.00    +0.000 A 
ATOM     23  C   UNL     1      -7.402  -1.183 126.085  0.00  0.00    +0.000 A 
ATOM     24  C   UNL     1      -8.510  -0.666 126.958  0.00  0.00    +0.000 C 
ENDBRANCH  10  18
ENDBRANCH   2   5
BRANCH   3  25
ATOM     25  C   UNL     1      -6.802   3.861 126.321  0.00  0.00    +0.000 C 
ATOM     26  C   UNL     1      -7.920   4.760 126.923  0.00  0.00    +0.000 C 
ATOM     27  C   UNL     1      -5.459   4.608 126.146  0.00  0.00    +0.000 C 
BRANCH  25  28
ATOM     28  C   UNL     1      -7.239   3.514 124.862  0.00  0.00    +0.000 A 
ATOM     29  C   UNL     1      -8.382   2.760 124.562  0.00  0.00    +0.000 A 
ATOM     30  C   UNL     1      -8.663   2.308 123.268  0.00  0.00    +0.000 A 
ATOM     31  C   UNL     1      -7.838   2.697 122.216  0.00  0.00    +0.000 A 
ATOM     32  C   UNL     1      -6.683   3.440 122.471  0.00  0.00    +0.000 A 
ATOM     33  C   UNL     1      -6.394   3.831 123.783  0.00  0.00    +0.000 A 
BRANCH  32  34
ATOM     34  C   UNL     1      -5.713   3.725 121.359  0.00  0.00    +0.000 C 
ATOM     35  F   UNL     1      -6.256   4.538 120.412  0.00  0.00    +0.000 F 
ATOM     36  F   UNL     1      -4.586   4.344 121.797  0.00  0.00    +0.000 F 
ATOM     37  F   UNL     1      -5.302   2.607 120.698  0.00  0.00    +0.000 F 
ENDBRANCH  32  34
BRANCH  30  38
ATOM     38  C   UNL     1      -9.763   1.297 123.087  0.00  0.00    +0.000 C 
ATOM     39  F   UNL     1     -10.841   1.594 123.868  0.00  0.00    +0.000 F 
ATOM     40  F   UNL     1     -10.227   1.223 121.812  0.00  0.00    +0.000 F 
ATOM     41  F   UNL     1      -9.392   0.036 123.437  0.00  0.00    +0.000 F 
ENDBRANCH  30  38
ENDBRANCH  25  28
ENDBRANCH   3  25
TORSDOF 6
ENDMDL
MODEL 3
REMARK VINA RESULT:      -9.4      4.896      8.741
REMARK  Name = Netupitant
REMARK  11 active torsions:
REMARK  status: ('A' for Active; 'I' for Inactive)
REMARK    1  A    between atoms: C_1  and  N_2
REMARK    2  A    between atoms: N_2  and  C_22
REMARK    3  A    between atoms: C_3  and  C_5
REMARK    4  A    between atoms: C_5  and  C_6
REMARK    5  A    between atoms: C_5  and  C_7
REMARK    6  A    between atoms: C_5  and  C_8
REMARK    7  A    between atoms: C_10  and  C_18
REMARK    8  A    between atoms: C_12  and  C_14
REMARK    9  A    between atoms: C_27  and  C_28
REMARK   10  A    between atoms: C_33  and  C_34
REMARK   11  A    between atoms: N_38  and  C_39
REMARK                            x       y       z     vdW  Elec       q    Type
REMARK                         _______ _______ _______ _____ _____    ______ ____
ROOT
ATOM      1  C   UNL     1      -4.154   1.685 126.398  0.00  0.00    +0.000 C 
ATOM      2  N   UNL     1      -5.327   1.506 127.257  0.00  0.00    +0.000 N 
ATOM      3  C   UNL     1      -6.386   2.417 127.362  0.00  0.00    +0.000 C 
ATOM      4  O   UNL     1      -7.171   2.299 128.323  0.00  0.00    +0.000 OA
ENDROOT
BRANCH   2   5
ATOM      5  C   UNL     1      -5.252   0.470 128.278  0.00  0.00    +0.000 A 
ATOM      6  C   UNL     1      -4.689   0.757 129.531  0.00  0.00    +0.000 A 
ATOM      7  N   UNL     1      -4.584  -0.113 130.574  0.00  0.00    +0.000 NA
ATOM      8  C   UNL     1      -4.980  -1.378 130.368  0.00  0.00    +0.000 A 
ATOM      9  C   UNL     1      -5.495  -1.772 129.138  0.00  0.00    +0.000 A 
ATOM     10  C   UNL     1      -5.648  -0.864 128.071  0.00  0.00    +0.000 A 
ATOM     11  N   UNL     1      -5.033  -2.278 131.407  0.00  0.00    +0.000 N 
ATOM     12  C   UNL     1      -4.178  -3.468 131.455  0.00  0.00    +0.000 C 
ATOM     13  C   UNL     1      -4.963  -4.607 132.158  0.00  0.00    +0.000 C 
ATOM     14  N   UNL     1      -5.438  -4.196 133.503  0.00  0.00    +0.000 NA
ATOM     15  C   UNL     1      -6.157  -5.278 134.163  0.00  0.00    +0.000 C 
ATOM     16  C   UNL     1      -6.305  -3.003 133.347  0.00  0.00    +0.000 C 
ATOM     17  C   UNL     1      -5.553  -1.819 132.690  0.00  0.00    +0.000 C 
BRANCH  10  18
ATOM     18  C   UNL     1      -6.112  -1.414 126.782  0.00  0.00    +0.000 A 
ATOM     19  C   UNL     1      -5.226  -2.188 126.006  0.00  0.00    +0.000 A 
ATOM     20  C   UNL     1      -5.631  -2.734 124.788  0.00  0.00    +0.000 A 
ATOM     21  C   UNL     1      -6.949  -2.591 124.365  0.00  0.00    +0.000 A 
ATOM     22  C   UNL     1      -7.851  -1.859 125.130  0.00  0.00    +0.000 A 
ATOM     23  C   UNL     1      -7.441  -1.238 126.317  0.00  0.00    +0.000 A 
ATOM     24  C   UNL     1      -8.476  -0.486 127.106  0.00  0.00    +0.000 C 
ENDBRANCH  10  18
ENDBRANCH   2   5
BRANCH   3  25
ATOM     25  C   UNL     1      -6.502   3.651 126.398  0.00  0.00    +0.000 C 
ATOM     26  C   UNL     1      -7.733   4.512 126.804  0.00  0.00    +0.000 C 
ATOM     27  C   UNL     1      -5.179   4.452 126.408  0.00  0.00    +0.000 C 
BRANCH  25  28
ATOM     28  C   UNL     1      -6.701   3.259 124.900  0.00  0.00    +0.000 A 
ATOM     29  C   UNL     1      -5.865   3.713 123.869  0.00  0.00    +0.000 A 
ATOM     30  C   UNL     1      -6.158   3.499 122.518  0.00  0.00    +0.000 A 
ATOM     31  C   UNL     1      -7.264   2.726 122.175  0.00  0.00    +0.000 A 
ATOM     32  C   UNL     1      -8.129   2.262 123.168  0.00  0.00    +0.000 A 
ATOM     33  C   UNL     1      -7.844   2.538 124.510  0.00  0.00    +0.000 A 
BRANCH  32  34
ATOM     34  C   UNL     1      -9.404   1.562 122.786  0.00  0.00    +0.000 C 
ATOM     35  F   UNL     1     -10.416   1.854 123.648  0.00  0.00    +0.000 F 
ATOM     36  F   UNL     1      -9.839   1.913 121.549  0.00  0.00    +0.000 F 
ATOM     37  F   UNL     1      -9.297   0.204 122.783  0.00  0.00    +0.000 F 
ENDBRANCH  32  34
BRANCH  30  38
ATOM     38  C   UNL     1      -5.350   4.239 121.486  0.00  0.00    +0.000 C 
ATOM     39  F   UNL     1      -4.576   3.382 120.758  0.00  0.00    +0.000 F 
ATOM     40  F   UNL     1      -6.110   4.919 120.590  0.00  0.00    +0.000 F 
ATOM     41  F   UNL     1      -4.489   5.142 122.028  0.00  0.00    +0.000 F 
ENDBRANCH  30  38
ENDBRANCH  25  28
ENDBRANCH   3  25
TORSDOF 6
ENDMDL
MODEL 4
REMARK VINA RESULT:      -9.3      5.379      9.662
REMARK  Name = Netupitant
REMARK  11 active torsions:
REMARK  status: ('A' for Active; 'I' for Inactive)
REMARK    1  A    between atoms: C_1  and  N_2
REMARK    2  A    between atoms: N_2  and  C_22
REMARK    3  A    between atoms: C_3  and  C_5
REMARK    4  A    between atoms: C_5  and  C_6
REMARK    5  A    between atoms: C_5  and  C_7
REMARK    6  A    between atoms: C_5  and  C_8
REMARK    7  A    between atoms: C_10  and  C_18
REMARK    8  A    between atoms: C_12  and  C_14
REMARK    9  A    between atoms: C_27  and  C_28
REMARK   10  A    between atoms: C_33  and  C_34
REMARK   11  A    between atoms: N_38  and  C_39
REMARK                            x       y       z     vdW  Elec       q    Type
REMARK                         _______ _______ _______ _____ _____    ______ ____
ROOT
ATOM      1  C   UNL     1      -4.053   2.308 131.740  0.00  0.00    +0.000 C 
ATOM      2  N   UNL     1      -5.071   1.478 131.092  0.00  0.00    +0.000 N 
ATOM      3  C   UNL     1      -5.795   1.847 129.951  0.00  0.00    +0.000 C 
ATOM      4  O   UNL     1      -6.819   1.195 129.666  0.00  0.00    +0.000 OA
ENDROOT
BRANCH   2   5
ATOM      5  C   UNL     1      -5.570   0.332 131.841  0.00  0.00    +0.000 A 
ATOM      6  C   UNL     1      -5.195  -0.968 131.468  0.00  0.00    +0.000 A 
ATOM      7  N   UNL     1      -5.571  -2.115 132.100  0.00  0.00    +0.000 NA
ATOM      8  C   UNL     1      -6.436  -2.007 133.119  0.00  0.00    +0.000 A 
ATOM      9  C   UNL     1      -6.910  -0.763 133.522  0.00  0.00    +0.000 A 
ATOM     10  C   UNL     1      -6.489   0.429 132.901  0.00  0.00    +0.000 A 
ATOM     11  N   UNL     1      -6.755  -3.100 133.891  0.00  0.00    +0.000 N 
ATOM     12  C   UNL     1      -8.111  -3.656 133.935  0.00  0.00    +0.000 C 
ATOM     13  C   UNL     1      -8.362  -4.222 135.358  0.00  0.00    +0.000 C 
ATOM     14  N   UNL     1      -7.329  -5.216 135.742  0.00  0.00    +0.000 NA
ATOM     15  C   UNL     1      -7.584  -5.757 137.071  0.00  0.00    +0.000 C 
ATOM     16  C   UNL     1      -6.002  -4.555 135.686  0.00  0.00    +0.000 C 
ATOM     17  C   UNL     1      -5.683  -4.013 134.271  0.00  0.00    +0.000 C 
BRANCH  10  18
ATOM     18  C   UNL     1      -7.133   1.681 133.345  0.00  0.00    +0.000 A 
ATOM     19  C   UNL     1      -6.425   2.558 134.190  0.00  0.00    +0.000 A 
ATOM     20  C   UNL     1      -6.997   3.755 134.622  0.00  0.00    +0.000 A 
ATOM     21  C   UNL     1      -8.247   4.140 134.147  0.00  0.00    +0.000 A 
ATOM     22  C   UNL     1      -8.952   3.306 133.285  0.00  0.00    +0.000 A 
ATOM     23  C   UNL     1      -8.427   2.064 132.905  0.00  0.00    +0.000 A 
ATOM     24  C   UNL     1      -9.232   1.229 131.949  0.00  0.00    +0.000 C 
ENDBRANCH  10  18
ENDBRANCH   2   5
BRANCH   3  25
ATOM     25  C   UNL     1      -5.432   3.138 129.134  0.00  0.00    +0.000 C 
ATOM     26  C   UNL     1      -3.909   3.137 128.812  0.00  0.00    +0.000 C 
ATOM     27  C   UNL     1      -6.313   3.222 127.866  0.00  0.00    +0.000 C 
BRANCH  25  28
ATOM     28  C   UNL     1      -5.731   4.467 129.897  0.00  0.00    +0.000 A 
ATOM     29  C   UNL     1      -7.001   4.804 130.385  0.00  0.00    +0.000 A 
ATOM     30  C   UNL     1      -7.292   6.068 130.907  0.00  0.00    +0.000 A 
ATOM     31  C   UNL     1      -6.269   7.002 131.041  0.00  0.00    +0.000 A 
ATOM     32  C   UNL     1      -4.990   6.713 130.560  0.00  0.00    +0.000 A 
ATOM     33  C   UNL     1      -4.739   5.460 129.990  0.00  0.00    +0.000 A 
BRANCH  32  34
ATOM     34  C   UNL     1      -3.928   7.777 130.564  0.00  0.00    +0.000 C 
ATOM     35  F   UNL     1      -2.799   7.364 129.926  0.00  0.00    +0.000 F 
ATOM     36  F   UNL     1      -4.329   8.914 129.939  0.00  0.00    +0.000 F 
ATOM     37  F   UNL     1      -3.535   8.146 131.814  0.00  0.00    +0.000 F 
ENDBRANCH  32  34
BRANCH  30  38
ATOM     38  C   UNL     1      -8.733   6.421 131.164  0.00  0.00    +0.000 C 
ATOM     39  F   UNL     1      -9.569   5.439 130.719  0.00  0.00    +0.000 F 
ATOM     40  F   UNL     1      -9.021   6.598 132.479  0.00  0.00    +0.000 F 
ATOM     41  F   UNL     1      -9.127   7.556 130.525  0.00  0.00    +0.000 F 
ENDBRANCH  30  38
ENDBRANCH  25  28
ENDBRANCH   3  25
TORSDOF 6
ENDMDL
MODEL 5
REMARK VINA RESULT:      -9.3      5.173      8.805
REMARK  Name = Netupitant
REMARK  11 active torsions:
REMARK  status: ('A' for Active; 'I' for Inactive)
REMARK    1  A    between atoms: C_1  and  N_2
REMARK    2  A    between atoms: N_2  and  C_22
REMARK    3  A    between atoms: C_3  and  C_5
REMARK    4  A    between atoms: C_5  and  C_6
REMARK    5  A    between atoms: C_5  and  C_7
REMARK    6  A    between atoms: C_5  and  C_8
REMARK    7  A    between atoms: C_10  and  C_18
REMARK    8  A    between atoms: C_12  and  C_14
REMARK    9  A    between atoms: C_27  and  C_28
REMARK   10  A    between atoms: C_33  and  C_34
REMARK   11  A    between atoms: N_38  and  C_39
REMARK                            x       y       z     vdW  Elec       q    Type
REMARK                         _______ _______ _______ _____ _____    ______ ____
ROOT
ATOM      1  C   UNL     1      -8.176  -2.615 128.346  0.00  0.00    +0.000 C 
ATOM      2  N   UNL     1      -6.979  -2.081 128.998  0.00  0.00    +0.000 N 
ATOM      3  C   UNL     1      -6.070  -1.199 128.399  0.00  0.00    +0.000 C 
ATOM      4  O   UNL     1      -4.957  -1.045 128.940  0.00  0.00    +0.000 OA
ENDROOT
BRANCH   2   5
ATOM      5  C   UNL     1      -6.549  -2.727 130.231  0.00  0.00    +0.000 A 
ATOM      6  C   UNL     1      -6.092  -4.054 130.206  0.00  0.00    +0.000 A 
ATOM      7  N   UNL     1      -5.640  -4.759 131.280  0.00  0.00    +0.000 NA
ATOM      8  C   UNL     1      -5.707  -4.168 132.483  0.00  0.00    +0.000 A 
ATOM      9  C   UNL     1      -6.202  -2.875 132.614  0.00  0.00    +0.000 A 
ATOM     10  C   UNL     1      -6.628  -2.125 131.500  0.00  0.00    +0.000 A 
ATOM     11  N   UNL     1      -5.146  -4.759 133.591  0.00  0.00    +0.000 N 
ATOM     12  C   UNL     1      -5.953  -5.208 134.729  0.00  0.00    +0.000 C 
ATOM     13  C   UNL     1      -5.116  -5.028 136.024  0.00  0.00    +0.000 C 
ATOM     14  N   UNL     1      -3.815  -5.736 135.938  0.00  0.00    +0.000 NA
ATOM     15  C   UNL     1      -3.045  -5.578 137.165  0.00  0.00    +0.000 C 
ATOM     16  C   UNL     1      -3.069  -5.201 134.772  0.00  0.00    +0.000 C 
ATOM     17  C   UNL     1      -3.843  -5.398 133.446  0.00  0.00    +0.000 C 
BRANCH  10  18
ATOM     18  C   UNL     1      -7.228  -0.804 131.769  0.00  0.00    +0.000 A 
ATOM     19  C   UNL     1      -8.630  -0.667 131.744  0.00  0.00    +0.000 A 
ATOM     20  C   UNL     1      -9.234   0.564 132.003  0.00  0.00    +0.000 A 
ATOM     21  C   UNL     1      -8.457   1.655 132.378  0.00  0.00    +0.000 A 
ATOM     22  C   UNL     1      -7.072   1.536 132.442  0.00  0.00    +0.000 A 
ATOM     23  C   UNL     1      -6.443   0.329 132.107  0.00  0.00    +0.000 A 
ATOM     24  C   UNL     1      -4.947   0.266 132.225  0.00  0.00    +0.000 C 
ENDBRANCH  10  18
ENDBRANCH   2   5
BRANCH   3  25
ATOM     25  C   UNL     1      -6.367  -0.540 127.006  0.00  0.00    +0.000 C 
ATOM     26  C   UNL     1      -7.700   0.258 127.083  0.00  0.00    +0.000 C 
ATOM     27  C   UNL     1      -5.167   0.336 126.573  0.00  0.00    +0.000 C 
BRANCH  25  28
ATOM     28  C   UNL     1      -6.525  -1.572 125.845  0.00  0.00    +0.000 A 
ATOM     29  C   UNL     1      -5.533  -2.502 125.503  0.00  0.00    +0.000 A 
ATOM     30  C   UNL     1      -5.615  -3.297 124.355  0.00  0.00    +0.000 A 
ATOM     31  C   UNL     1      -6.762  -3.242 123.569  0.00  0.00    +0.000 A 
ATOM     32  C   UNL     1      -7.771  -2.323 123.866  0.00  0.00    +0.000 A 
ATOM     33  C   UNL     1      -7.639  -1.499 124.989  0.00  0.00    +0.000 A 
BRANCH  32  34
ATOM     34  C   UNL     1      -8.935  -2.156 122.929  0.00  0.00    +0.000 C 
ATOM     35  F   UNL     1      -9.882  -3.113 123.127  0.00  0.00    +0.000 F 
ATOM     36  F   UNL     1      -9.559  -0.960 123.083  0.00  0.00    +0.000 F 
ATOM     37  F   UNL     1      -8.590  -2.241 121.615  0.00  0.00    +0.000 F 
ENDBRANCH  32  34
BRANCH  30  38
ATOM     38  C   UNL     1      -4.395  -4.072 123.934  0.00  0.00    +0.000 C 
ATOM     39  F   UNL     1      -4.734  -5.140 123.155  0.00  0.00    +0.000 F 
ATOM     40  F   UNL     1      -3.512  -3.338 123.209  0.00  0.00    +0.000 F 
ATOM     41  F   UNL     1      -3.701  -4.588 124.983  0.00  0.00    +0.000 F 
ENDBRANCH  30  38
ENDBRANCH  25  28
ENDBRANCH   3  25
TORSDOF 6
ENDMDL
MODEL 6
REMARK VINA RESULT:      -9.2      4.308      6.015
REMARK  Name = Netupitant
REMARK  11 active torsions:
REMARK  status: ('A' for Active; 'I' for Inactive)
REMARK    1  A    between atoms: C_1  and  N_2
REMARK    2  A    between atoms: N_2  and  C_22
REMARK    3  A    between atoms: C_3  and  C_5
REMARK    4  A    between atoms: C_5  and  C_6
REMARK    5  A    between atoms: C_5  and  C_7
REMARK    6  A    between atoms: C_5  and  C_8
REMARK    7  A    between atoms: C_10  and  C_18
REMARK    8  A    between atoms: C_12  and  C_14
REMARK    9  A    between atoms: C_27  and  C_28
REMARK   10  A    between atoms: C_33  and  C_34
REMARK   11  A    between atoms: N_38  and  C_39
REMARK                            x       y       z     vdW  Elec       q    Type
REMARK                         _______ _______ _______ _____ _____    ______ ____
ROOT
ATOM      1  C   UNL     1      -4.513   1.211 126.290  0.00  0.00    +0.000 C 
ATOM      2  N   UNL     1      -5.369   2.016 127.162  0.00  0.00    +0.000 N 
ATOM      3  C   UNL     1      -6.757   2.146 127.020  0.00  0.00    +0.000 C 
ATOM      4  O   UNL     1      -7.328   3.070 127.632  0.00  0.00    +0.000 OA
ENDROOT
BRANCH   2   5
ATOM      5  C   UNL     1      -4.710   2.969 128.045  0.00  0.00    +0.000 A 
ATOM      6  C   UNL     1      -4.111   4.121 127.514  0.00  0.00    +0.000 A 
ATOM      7  N   UNL     1      -3.490   5.098 128.233  0.00  0.00    +0.000 NA
ATOM      8  C   UNL     1      -3.366   4.910 129.556  0.00  0.00    +0.000 A 
ATOM      9  C   UNL     1      -3.876   3.768 130.164  0.00  0.00    +0.000 A 
ATOM     10  C   UNL     1      -4.560   2.779 129.431  0.00  0.00    +0.000 A 
ATOM     11  N   UNL     1      -2.875   5.908 130.366  0.00  0.00    +0.000 N 
ATOM     12  C   UNL     1      -1.617   5.766 131.103  0.00  0.00    +0.000 C 
ATOM     13  C   UNL     1      -1.742   6.544 132.440  0.00  0.00    +0.000 C 
ATOM     14  N   UNL     1      -2.110   7.964 132.215  0.00  0.00    +0.000 NA
ATOM     15  C   UNL     1      -2.206   8.692 133.474  0.00  0.00    +0.000 C 
ATOM     16  C   UNL     1      -3.400   8.001 131.483  0.00  0.00    +0.000 C 
ATOM     17  C   UNL     1      -3.314   7.276 130.117  0.00  0.00    +0.000 C 
BRANCH  10  18
ATOM     18  C   UNL     1      -4.970   1.563 130.163  0.00  0.00    +0.000 A 
ATOM     19  C   UNL     1      -4.137   0.427 130.129  0.00  0.00    +0.000 A 
ATOM     20  C   UNL     1      -4.485  -0.736 130.816  0.00  0.00    +0.000 A 
ATOM     21  C   UNL     1      -5.621  -0.757 131.619  0.00  0.00    +0.000 A 
ATOM     22  C   UNL     1      -6.441   0.365 131.695  0.00  0.00    +0.000 A 
ATOM     23  C   UNL     1      -6.150   1.514 130.949  0.00  0.00    +0.000 A 
ATOM     24  C   UNL     1      -7.065   2.697 131.102  0.00  0.00    +0.000 C 
ENDBRANCH  10  18
ENDBRANCH   2   5
BRANCH   3  25
ATOM     25  C   UNL     1      -7.561   1.261 126.002  0.00  0.00    +0.000 C 
ATOM     26  C   UNL     1      -9.071   1.629 126.076  0.00  0.00    +0.000 C 
ATOM     27  C   UNL     1      -6.971   1.427 124.582  0.00  0.00    +0.000 C 
BRANCH  25  28
ATOM     28  C   UNL     1      -7.456  -0.271 126.285  0.00  0.00    +0.000 A 
ATOM     29  C   UNL     1      -7.308  -1.230 125.272  0.00  0.00    +0.000 A 
ATOM     30  C   UNL     1      -7.393  -2.604 125.524  0.00  0.00    +0.000 A 
ATOM     31  C   UNL     1      -7.534  -3.049 126.835  0.00  0.00    +0.000 A 
ATOM     32  C   UNL     1      -7.696  -2.129 127.873  0.00  0.00    +0.000 A 
ATOM     33  C   UNL     1      -7.663  -0.759 127.587  0.00  0.00    +0.000 A 
BRANCH  32  34
ATOM     34  C   UNL     1      -8.003  -2.612 129.263  0.00  0.00    +0.000 C 
ATOM     35  F   UNL     1      -9.011  -3.526 129.268  0.00  0.00    +0.000 F 
ATOM     36  F   UNL     1      -6.936  -3.212 129.853  0.00  0.00    +0.000 F 
ATOM     37  F   UNL     1      -8.397  -1.619 130.108  0.00  0.00    +0.000 F 
ENDBRANCH  32  34
BRANCH  30  38
ATOM     38  C   UNL     1      -7.480  -3.541 124.349  0.00  0.00    +0.000 C 
ATOM     39  F   UNL     1      -8.252  -4.627 124.640  0.00  0.00    +0.000 F 
ATOM     40  F   UNL     1      -8.024  -2.973 123.242  0.00  0.00    +0.000 F 
ATOM     41  F   UNL     1      -6.271  -4.040 123.973  0.00  0.00    +0.000 F 
ENDBRANCH  30  38
ENDBRANCH  25  28
ENDBRANCH   3  25
TORSDOF 6
ENDMDL
MODEL 7
REMARK VINA RESULT:      -9.1      3.835      6.385
REMARK  Name = Netupitant
REMARK  11 active torsions:
REMARK  status: ('A' for Active; 'I' for Inactive)
REMARK    1  A    between atoms: C_1  and  N_2
REMARK    2  A    between atoms: N_2  and  C_22
REMARK    3  A    between atoms: C_3  and  C_5
REMARK    4  A    between atoms: C_5  and  C_6
REMARK    5  A    between atoms: C_5  and  C_7
REMARK    6  A    between atoms: C_5  and  C_8
REMARK    7  A    between atoms: C_10  and  C_18
REMARK    8  A    between atoms: C_12  and  C_14
REMARK    9  A    between atoms: C_27  and  C_28
REMARK   10  A    between atoms: C_33  and  C_34
REMARK   11  A    between atoms: N_38  and  C_39
REMARK                            x       y       z     vdW  Elec       q    Type
REMARK                         _______ _______ _______ _____ _____    ______ ____
ROOT
ATOM      1  C   UNL     1      -8.917   1.616 127.487  0.00  0.00    +0.000 C 
ATOM      2  N   UNL     1      -7.641   2.168 127.030  0.00  0.00    +0.000 N 
ATOM      3  C   UNL     1      -7.070   1.926 125.773  0.00  0.00    +0.000 C 
ATOM      4  O   UNL     1      -5.867   2.209 125.609  0.00  0.00    +0.000 OA
ENDROOT
BRANCH   2   5
ATOM      5  C   UNL     1      -6.774   2.763 128.038  0.00  0.00    +0.000 A 
ATOM      6  C   UNL     1      -6.533   4.145 128.031  0.00  0.00    +0.000 A 
ATOM      7  N   UNL     1      -5.767   4.823 128.931  0.00  0.00    +0.000 NA
ATOM      8  C   UNL     1      -5.120   4.104 129.861  0.00  0.00    +0.000 A 
ATOM      9  C   UNL     1      -5.250   2.720 129.909  0.00  0.00    +0.000 A 
ATOM     10  C   UNL     1      -6.078   2.020 129.009  0.00  0.00    +0.000 A 
ATOM     11  N   UNL     1      -4.440   4.723 130.884  0.00  0.00    +0.000 N 
ATOM     12  C   UNL     1      -2.986   4.615 131.033  0.00  0.00    +0.000 C 
ATOM     13  C   UNL     1      -2.646   4.643 132.547  0.00  0.00    +0.000 C 
ATOM     14  N   UNL     1      -3.194   5.853 133.209  0.00  0.00    +0.000 NA
ATOM     15  C   UNL     1      -2.853   5.882 134.625  0.00  0.00    +0.000 C 
ATOM     16  C   UNL     1      -4.666   5.862 133.019  0.00  0.00    +0.000 C 
ATOM     17  C   UNL     1      -5.058   5.881 131.521  0.00  0.00    +0.000 C 
BRANCH  10  18
ATOM     18  C   UNL     1      -6.061   0.546 129.089  0.00  0.00    +0.000 A 
ATOM     19  C   UNL     1      -5.245  -0.182 128.200  0.00  0.00    +0.000 A 
ATOM     20  C   UNL     1      -5.194  -1.575 128.252  0.00  0.00    +0.000 A 
ATOM     21  C   UNL     1      -5.886  -2.260 129.246  0.00  0.00    +0.000 A 
ATOM     22  C   UNL     1      -6.673  -1.561 130.156  0.00  0.00    +0.000 A 
ATOM     23  C   UNL     1      -6.798  -0.168 130.069  0.00  0.00    +0.000 A 
ATOM     24  C   UNL     1      -7.642   0.523 131.103  0.00  0.00    +0.000 C 
ENDBRANCH  10  18
ENDBRANCH   2   5
BRANCH   3  25
ATOM     25  C   UNL     1      -7.863   1.175 124.645  0.00  0.00    +0.000 C 
ATOM     26  C   UNL     1      -9.380   1.494 124.778  0.00  0.00    +0.000 C 
ATOM     27  C   UNL     1      -7.289   1.552 123.260  0.00  0.00    +0.000 C 
BRANCH  25  28
ATOM     28  C   UNL     1      -7.722  -0.379 124.709  0.00  0.00    +0.000 A 
ATOM     29  C   UNL     1      -8.500  -1.187 125.551  0.00  0.00    +0.000 A 
ATOM     30  C   UNL     1      -8.242  -2.551 125.727  0.00  0.00    +0.000 A 
ATOM     31  C   UNL     1      -7.243  -3.159 124.972  0.00  0.00    +0.000 A 
ATOM     32  C   UNL     1      -6.438  -2.390 124.128  0.00  0.00    +0.000 A 
ATOM     33  C   UNL     1      -6.680  -1.016 124.012  0.00  0.00    +0.000 A 
BRANCH  32  34
ATOM     34  C   UNL     1      -5.262  -3.019 123.434  0.00  0.00    +0.000 C 
ATOM     35  F   UNL     1      -5.261  -4.373 123.572  0.00  0.00    +0.000 F 
ATOM     36  F   UNL     1      -5.252  -2.769 122.099  0.00  0.00    +0.000 F 
ATOM     37  F   UNL     1      -4.059  -2.596 123.911  0.00  0.00    +0.000 F 
ENDBRANCH  32  34
BRANCH  30  38
ATOM     38  C   UNL     1      -8.956  -3.275 126.836  0.00  0.00    +0.000 C 
ATOM     39  F   UNL     1      -8.819  -2.618 128.024  0.00  0.00    +0.000 F 
ATOM     40  F   UNL     1     -10.292  -3.406 126.626  0.00  0.00    +0.000 F 
ATOM     41  F   UNL     1      -8.475  -4.529 127.052  0.00  0.00    +0.000 F 
ENDBRANCH  30  38
ENDBRANCH  25  28
ENDBRANCH   3  25
TORSDOF 6
ENDMDL
MODEL 8
REMARK VINA RESULT:      -9.1      3.264      6.200
REMARK  Name = Netupitant
REMARK  11 active torsions:
REMARK  status: ('A' for Active; 'I' for Inactive)
REMARK    1  A    between atoms: C_1  and  N_2
REMARK    2  A    between atoms: N_2  and  C_22
REMARK    3  A    between atoms: C_3  and  C_5
REMARK    4  A    between atoms: C_5  and  C_6
REMARK    5  A    between atoms: C_5  and  C_7
REMARK    6  A    between atoms: C_5  and  C_8
REMARK    7  A    between atoms: C_10  and  C_18
REMARK    8  A    between atoms: C_12  and  C_14
REMARK    9  A    between atoms: C_27  and  C_28
REMARK   10  A    between atoms: C_33  and  C_34
REMARK   11  A    between atoms: N_38  and  C_39
REMARK                            x       y       z     vdW  Elec       q    Type
REMARK                         _______ _______ _______ _____ _____    ______ ____
ROOT
ATOM      1  C   UNL     1      -8.174   4.162 125.944  0.00  0.00    +0.000 C 
ATOM      2  N   UNL     1      -6.888   3.532 126.249  0.00  0.00    +0.000 N 
ATOM      3  C   UNL     1      -6.532   2.227 125.883  0.00  0.00    +0.000 C 
ATOM      4  O   UNL     1      -5.544   1.709 126.439  0.00  0.00    +0.000 OA
ENDROOT
BRANCH   2   5
ATOM      5  C   UNL     1      -6.045   4.186 127.240  0.00  0.00    +0.000 A 
ATOM      6  C   UNL     1      -4.999   5.025 126.829  0.00  0.00    +0.000 A 
ATOM      7  N   UNL     1      -4.161   5.713 127.654  0.00  0.00    +0.000 NA
ATOM      8  C   UNL     1      -4.289   5.515 128.974  0.00  0.00    +0.000 A 
ATOM      9  C   UNL     1      -5.260   4.653 129.474  0.00  0.00    +0.000 A 
ATOM     10  C   UNL     1      -6.159   3.976 128.627  0.00  0.00    +0.000 A 
ATOM     11  N   UNL     1      -3.575   6.272 129.874  0.00  0.00    +0.000 N 
ATOM     12  C   UNL     1      -2.566   5.686 130.760  0.00  0.00    +0.000 C 
ATOM     13  C   UNL     1      -2.569   6.477 132.095  0.00  0.00    +0.000 C 
ATOM     14  N   UNL     1      -2.353   7.928 131.873  0.00  0.00    +0.000 NA
ATOM     15  C   UNL     1      -2.337   8.660 133.133  0.00  0.00    +0.000 C 
ATOM     16  C   UNL     1      -3.430   8.429 130.984  0.00  0.00    +0.000 C 
ATOM     17  C   UNL     1      -3.440   7.702 129.617  0.00  0.00    +0.000 C 
BRANCH  10  18
ATOM     18  C   UNL     1      -7.081   3.011 129.259  0.00  0.00    +0.000 A 
ATOM     19  C   UNL     1      -6.633   1.700 129.516  0.00  0.00    +0.000 A 
ATOM     20  C   UNL     1      -7.472   0.763 130.122  0.00  0.00    +0.000 A 
ATOM     21  C   UNL     1      -8.736   1.142 130.561  0.00  0.00    +0.000 A 
ATOM     22  C   UNL     1      -9.188   2.441 130.348  0.00  0.00    +0.000 A 
ATOM     23  C   UNL     1      -8.390   3.373 129.671  0.00  0.00    +0.000 A 
ATOM     24  C   UNL     1      -8.931   4.764 129.501  0.00  0.00    +0.000 C 
ENDBRANCH  10  18
ENDBRANCH   2   5
BRANCH   3  25
ATOM     25  C   UNL     1      -7.432   1.373 124.921  0.00  0.00    +0.000 C 
ATOM     26  C   UNL     1      -8.930   1.695 125.189  0.00  0.00    +0.000 C 
ATOM     27  C   UNL     1      -7.017   1.625 123.452  0.00  0.00    +0.000 C 
BRANCH  25  28
ATOM     28  C   UNL     1      -7.261  -0.168 125.108  0.00  0.00    +0.000 A 
ATOM     29  C   UNL     1      -7.754  -0.867 126.219  0.00  0.00    +0.000 A 
ATOM     30  C   UNL     1      -7.441  -2.209 126.459  0.00  0.00    +0.000 A 
ATOM     31  C   UNL     1      -6.695  -2.913 125.519  0.00  0.00    +0.000 A 
ATOM     32  C   UNL     1      -6.176  -2.255 124.402  0.00  0.00    +0.000 A 
ATOM     33  C   UNL     1      -6.456  -0.897 124.214  0.00  0.00    +0.000 A 
BRANCH  32  34
ATOM     34  C   UNL     1      -5.243  -2.979 123.471  0.00  0.00    +0.000 C 
ATOM     35  F   UNL     1      -3.942  -2.666 123.718  0.00  0.00    +0.000 F 
ATOM     36  F   UNL     1      -5.341  -4.329 123.581  0.00  0.00    +0.000 F 
ATOM     37  F   UNL     1      -5.453  -2.686 122.157  0.00  0.00    +0.000 F 
ENDBRANCH  32  34
BRANCH  30  38
ATOM     38  C   UNL     1      -7.798  -2.797 127.798  0.00  0.00    +0.000 C 
ATOM     39  F   UNL     1      -6.687  -3.245 128.452  0.00  0.00    +0.000 F 
ATOM     40  F   UNL     1      -8.401  -1.913 128.635  0.00  0.00    +0.000 F 
ATOM     41  F   UNL     1      -8.628  -3.871 127.706  0.00  0.00    +0.000 F 
ENDBRANCH  30  38
ENDBRANCH  25  28
ENDBRANCH   3  25
TORSDOF 6
ENDMDL
MODEL 9
REMARK VINA RESULT:      -9.1      5.128      9.209
REMARK  Name = Netupitant
REMARK  11 active torsions:
REMARK  status: ('A' for Active; 'I' for Inactive)
REMARK    1  A    between atoms: C_1  and  N_2
REMARK    2  A    between atoms: N_2  and  C_22
REMARK    3  A    between atoms: C_3  and  C_5
REMARK    4  A    between atoms: C_5  and  C_6
REMARK    5  A    between atoms: C_5  and  C_7
REMARK    6  A    between atoms: C_5  and  C_8
REMARK    7  A    between atoms: C_10  and  C_18
REMARK    8  A    between atoms: C_12  and  C_14
REMARK    9  A    between atoms: C_27  and  C_28
REMARK   10  A    between atoms: C_33  and  C_34
REMARK   11  A    between atoms: N_38  and  C_39
REMARK                            x       y       z     vdW  Elec       q    Type
REMARK                         _______ _______ _______ _____ _____    ______ ____
ROOT
ATOM      1  C   UNL     1      -4.558   2.102 130.877  0.00  0.00    +0.000 C 
ATOM      2  N   UNL     1      -5.760   1.359 130.493  0.00  0.00    +0.000 N 
ATOM      3  C   UNL     1      -6.715   1.806 129.571  0.00  0.00    +0.000 C 
ATOM      4  O   UNL     1      -7.820   1.230 129.542  0.00  0.00    +0.000 OA
ENDROOT
BRANCH   2   5
ATOM      5  C   UNL     1      -6.137   0.227 131.328  0.00  0.00    +0.000 A 
ATOM      6  C   UNL     1      -5.930  -1.084 130.872  0.00  0.00    +0.000 A 
ATOM      7  N   UNL     1      -6.214  -2.221 131.566  0.00  0.00    +0.000 NA
ATOM      8  C   UNL     1      -6.817  -2.087 132.757  0.00  0.00    +0.000 A 
ATOM      9  C   UNL     1      -7.117  -0.828 133.265  0.00  0.00    +0.000 A 
ATOM     10  C   UNL     1      -6.783   0.352 132.572  0.00  0.00    +0.000 A 
ATOM     11  N   UNL     1      -7.011  -3.176 133.575  0.00  0.00    +0.000 N 
ATOM     12  C   UNL     1      -8.349  -3.661 133.924  0.00  0.00    +0.000 C 
ATOM     13  C   UNL     1      -8.301  -4.239 135.363  0.00  0.00    +0.000 C 
ATOM     14  N   UNL     1      -7.264  -5.293 135.496  0.00  0.00    +0.000 NA
ATOM     15  C   UNL     1      -7.238  -5.844 136.844  0.00  0.00    +0.000 C 
ATOM     16  C   UNL     1      -5.950  -4.702 135.141  0.00  0.00    +0.000 C 
ATOM     17  C   UNL     1      -5.933  -4.150 133.694  0.00  0.00    +0.000 C 
BRANCH  10  18
ATOM     18  C   UNL     1      -7.240   1.628 133.158  0.00  0.00    +0.000 A 
ATOM     19  C   UNL     1      -6.336   2.399 133.916  0.00  0.00    +0.000 A 
ATOM     20  C   UNL     1      -6.728   3.615 134.478  0.00  0.00    +0.000 A 
ATOM     21  C   UNL     1      -7.996   4.124 134.219  0.00  0.00    +0.000 A 
ATOM     22  C   UNL     1      -8.895   3.396 133.446  0.00  0.00    +0.000 A 
ATOM     23  C   UNL     1      -8.546   2.137 132.941  0.00  0.00    +0.000 A 
ATOM     24  C   UNL     1      -9.558   1.421 132.091  0.00  0.00    +0.000 C 
ENDBRANCH  10  18
ENDBRANCH   2   5
BRANCH   3  25
ATOM     25  C   UNL     1      -6.475   3.093 128.704  0.00  0.00    +0.000 C 
ATOM     26  C   UNL     1      -5.028   3.072 128.133  0.00  0.00    +0.000 C 
ATOM     27  C   UNL     1      -7.555   3.192 127.601  0.00  0.00    +0.000 C 
BRANCH  25  28
ATOM     28  C   UNL     1      -6.624   4.425 129.506  0.00  0.00    +0.000 A 
ATOM     29  C   UNL     1      -5.530   5.184 129.945  0.00  0.00    +0.000 A 
ATOM     30  C   UNL     1      -5.674   6.273 130.810  0.00  0.00    +0.000 A 
ATOM     31  C   UNL     1      -6.951   6.689 131.177  0.00  0.00    +0.000 A 
ATOM     32  C   UNL     1      -8.068   5.957 130.770  0.00  0.00    +0.000 A 
ATOM     33  C   UNL     1      -7.894   4.836 129.951  0.00  0.00    +0.000 A 
BRANCH  32  34
ATOM     34  C   UNL     1      -9.431   6.315 131.294  0.00  0.00    +0.000 C 
ATOM     35  F   UNL     1     -10.322   5.301 131.114  0.00  0.00    +0.000 F 
ATOM     36  F   UNL     1      -9.422   6.587 132.625  0.00  0.00    +0.000 F 
ATOM     37  F   UNL     1      -9.978   7.403 130.685  0.00  0.00    +0.000 F 
ENDBRANCH  32  34
BRANCH  30  38
ATOM     38  C   UNL     1      -4.435   6.862 131.430  0.00  0.00    +0.000 C 
ATOM     39  F   UNL     1      -3.333   6.112 131.139  0.00  0.00    +0.000 F 
ATOM     40  F   UNL     1      -4.161   8.121 131.002  0.00  0.00    +0.000 F 
ATOM     41  F   UNL     1      -4.492   6.919 132.788  0.00  0.00    +0.000 F 
ENDBRANCH  30  38
ENDBRANCH  25  28
ENDBRANCH   3  25
TORSDOF 6
ENDMDL
