MODEL 1
REMARK VINA RESULT:      -7.5      0.000      0.000
REMARK  Name = Nevirapine
REMARK  2 active torsions:
REMARK  status: ('A' for Active; 'I' for Inactive)
REMARK    1  A    between atoms: C_1  and  C_2
REMARK    2  A    between atoms: N_13  and  C_14
REMARK                            x       y       z     vdW  Elec       q    Type
REMARK                         _______ _______ _______ _____ _____    ______ ____
ROOT
ATOM      1  C   UNL     1      -9.590  -4.147 128.031  0.00  0.00    +0.000 C 
ATOM      2  C   UNL     1      -8.334  -3.377 127.739  0.00  0.00    +0.000 A 
ATOM      3  C   UNL     1      -7.989  -2.942 126.453  0.00  0.00    +0.000 A 
ATOM      4  N   UNL     1      -8.766  -3.349 125.349  0.00  0.00    +0.000 N 
ATOM      5  C   UNL     1      -9.113  -2.614 124.244  0.00  0.00    +0.000 C 
ATOM      6  O   UNL     1      -9.921  -3.089 123.441  0.00  0.00    +0.000 OA
ATOM      7  C   UNL     1      -8.626  -1.239 124.039  0.00  0.00    +0.000 A 
ATOM      8  C   UNL     1      -7.298  -0.891 124.279  0.00  0.00    +0.000 A 
ATOM      9  N   UNL     1      -6.812   0.330 123.932  0.00  0.00    +0.000 NA
ATOM     10  C   UNL     1      -7.669   1.230 123.403  0.00  0.00    +0.000 A 
ATOM     11  C   UNL     1      -9.007   0.971 123.167  0.00  0.00    +0.000 A 
ATOM     12  C   UNL     1      -9.489  -0.295 123.472  0.00  0.00    +0.000 A 
ATOM     13  N   UNL     1      -6.454  -1.761 124.994  0.00  0.00    +0.000 N 
ATOM     14  C   UNL     1      -6.823  -2.176 126.291  0.00  0.00    +0.000 A 
ATOM     15  N   UNL     1      -6.006  -1.865 127.329  0.00  0.00    +0.000 NA
ATOM     16  C   UNL     1      -6.358  -2.287 128.554  0.00  0.00    +0.000 A 
ATOM     17  C   UNL     1      -7.502  -3.020 128.806  0.00  0.00    +0.000 A 
ATOM     18  H   UNL     1      -9.265  -4.227 125.407  0.00  0.00    +0.000 HD
ENDROOT
BRANCH  13  19
ATOM     19  C   UNL     1      -5.208  -2.247 124.380  0.00  0.00    +0.000 C 
ATOM     20  C   UNL     1      -4.865  -3.707 124.216  0.00  0.00    +0.000 C 
ATOM     21  C   UNL     1      -5.256  -2.902 123.013  0.00  0.00    +0.000 C 
ENDBRANCH  13  19
TORSDOF 1
ENDMDL
MODEL 2
REMARK VINA RESULT:      -7.3      2.212      4.992
REMARK  Name = Nevirapine
REMARK  2 active torsions:
REMARK  status: ('A' for Active; 'I' for Inactive)
REMARK    1  A    between atoms: C_1  and  C_2
REMARK    2  A    between atoms: N_13  and  C_14
REMARK                            x       y       z     vdW  Elec       q    Type
REMARK                         _______ _______ _______ _____ _____    ______ ____
ROOT
ATOM      1  C   UNL     1      -5.177   2.346 126.342  0.00  0.00    +0.000 C 
ATOM      2  C   UNL     1      -5.969   1.409 125.477  0.00  0.00    +0.000 A 
ATOM      3  C   UNL     1      -6.020   0.027 125.698  0.00  0.00    +0.000 A 
ATOM      4  N   UNL     1      -5.194  -0.550 126.684  0.00  0.00    +0.000 N 
ATOM      5  C   UNL     1      -5.496  -1.573 127.546  0.00  0.00    +0.000 C 
ATOM      6  O   UNL     1      -4.696  -1.855 128.443  0.00  0.00    +0.000 OA
ATOM      7  C   UNL     1      -6.788  -2.280 127.494  0.00  0.00    +0.000 A 
ATOM      8  C   UNL     1      -7.358  -2.670 126.284  0.00  0.00    +0.000 A 
ATOM      9  N   UNL     1      -8.461  -3.465 126.244  0.00  0.00    +0.000 NA
ATOM     10  C   UNL     1      -9.034  -3.817 127.415  0.00  0.00    +0.000 A 
ATOM     11  C   UNL     1      -8.548  -3.440 128.653  0.00  0.00    +0.000 A 
ATOM     12  C   UNL     1      -7.391  -2.674 128.693  0.00  0.00    +0.000 A 
ATOM     13  N   UNL     1      -6.869  -2.155 125.069  0.00  0.00    +0.000 N 
ATOM     14  C   UNL     1      -6.837  -0.759 124.870  0.00  0.00    +0.000 A 
ATOM     15  N   UNL     1      -7.558  -0.232 123.847  0.00  0.00    +0.000 NA
ATOM     16  C   UNL     1      -7.500   1.095 123.655  0.00  0.00    +0.000 A 
ATOM     17  C   UNL     1      -6.744   1.945 124.441  0.00  0.00    +0.000 A 
ATOM     18  H   UNL     1      -4.323  -0.091 126.913  0.00  0.00    +0.000 HD
ENDROOT
BRANCH  13  19
ATOM     19  C   UNL     1      -6.377  -3.070 124.027  0.00  0.00    +0.000 C 
ATOM     20  C   UNL     1      -5.264  -2.730 123.066  0.00  0.00    +0.000 C 
ATOM     21  C   UNL     1      -5.008  -3.704 124.176  0.00  0.00    +0.000 C 
ENDBRANCH  13  19
TORSDOF 1
ENDMDL
MODEL 3
REMARK VINA RESULT:      -7.1      2.051      5.080
REMARK  Name = Nevirapine
REMARK  2 active torsions:
REMARK  status: ('A' for Active; 'I' for Inactive)
REMARK    1  A    between atoms: C_1  and  C_2
REMARK    2  A    between atoms: N_13  and  C_14
REMARK                            x       y       z     vdW  Elec       q    Type
REMARK                         _______ _______ _______ _____ _____    ______ ____
ROOT
ATOM      1  C   UNL     1      -8.469   3.097 124.625  0.00  0.00    +0.000 C 
ATOM      2  C   UNL     1      -8.783   1.736 124.075  0.00  0.00    +0.000 A 
ATOM      3  C   UNL     1      -8.140   0.571 124.512  0.00  0.00    +0.000 A 
ATOM      4  N   UNL     1      -7.054   0.669 125.405  0.00  0.00    +0.000 N 
ATOM      5  C   UNL     1      -6.747  -0.158 126.455  0.00  0.00    +0.000 C 
ATOM      6  O   UNL     1      -5.834   0.163 127.221  0.00  0.00    +0.000 OA
ATOM      7  C   UNL     1      -7.535  -1.367 126.751  0.00  0.00    +0.000 A 
ATOM      8  C   UNL     1      -7.951  -2.233 125.742  0.00  0.00    +0.000 A 
ATOM      9  N   UNL     1      -8.531  -3.429 126.029  0.00  0.00    +0.000 NA
ATOM     10  C   UNL     1      -8.756  -3.732 127.325  0.00  0.00    +0.000 A 
ATOM     11  C   UNL     1      -8.405  -2.910 128.380  0.00  0.00    +0.000 A 
ATOM     12  C   UNL     1      -7.763  -1.714 128.088  0.00  0.00    +0.000 A 
ATOM     13  N   UNL     1      -7.882  -1.838 124.393  0.00  0.00    +0.000 N 
ATOM     14  C   UNL     1      -8.546  -0.664 123.979  0.00  0.00    +0.000 A 
ATOM     15  N   UNL     1      -9.519  -0.766 123.038  0.00  0.00    +0.000 NA
ATOM     16  C   UNL     1     -10.126   0.362 122.637  0.00  0.00    +0.000 A 
ATOM     17  C   UNL     1      -9.808   1.614 123.130  0.00  0.00    +0.000 A 
ATOM     18  H   UNL     1      -6.497   1.513 125.397  0.00  0.00    +0.000 HD
ENDROOT
BRANCH  13  19
ATOM     19  C   UNL     1      -7.103  -2.634 123.431  0.00  0.00    +0.000 C 
ATOM     20  C   UNL     1      -6.196  -2.037 122.384  0.00  0.00    +0.000 C 
ATOM     21  C   UNL     1      -5.596  -2.717 123.577  0.00  0.00    +0.000 C 
ENDBRANCH  13  19
TORSDOF 1
ENDMDL
MODEL 4
REMARK VINA RESULT:      -7.1      2.898      6.191
REMARK  Name = Nevirapine
REMARK  2 active torsions:
REMARK  status: ('A' for Active; 'I' for Inactive)
REMARK    1  A    between atoms: C_1  and  C_2
REMARK    2  A    between atoms: N_13  and  C_14
REMARK                            x       y       z     vdW  Elec       q    Type
REMARK                         _______ _______ _______ _____ _____    ______ ____
ROOT
ATOM      1  C   UNL     1      -9.127   3.860 120.190  0.00  0.00    +0.000 C 
ATOM      2  C   UNL     1      -8.070   3.505 121.195  0.00  0.00    +0.000 A 
ATOM      3  C   UNL     1      -8.289   2.604 122.245  0.00  0.00    +0.000 A 
ATOM      4  N   UNL     1      -9.586   2.100 122.471  0.00  0.00    +0.000 N 
ATOM      5  C   UNL     1      -9.945   0.832 122.851  0.00  0.00    +0.000 C 
ATOM      6  O   UNL     1     -11.141   0.529 122.862  0.00  0.00    +0.000 OA
ATOM      7  C   UNL     1      -8.942  -0.204 123.152  0.00  0.00    +0.000 A 
ATOM      8  C   UNL     1      -7.810   0.075 123.914  0.00  0.00    +0.000 A 
ATOM      9  N   UNL     1      -6.974  -0.914 124.330  0.00  0.00    +0.000 NA
ATOM     10  C   UNL     1      -7.235  -2.177 123.930  0.00  0.00    +0.000 A 
ATOM     11  C   UNL     1      -8.317  -2.528 123.145  0.00  0.00    +0.000 A 
ATOM     12  C   UNL     1      -9.199  -1.525 122.766  0.00  0.00    +0.000 A 
ATOM     13  N   UNL     1      -7.440   1.407 124.177  0.00  0.00    +0.000 N 
ATOM     14  C   UNL     1      -7.218   2.291 123.099  0.00  0.00    +0.000 A 
ATOM     15  N   UNL     1      -5.989   2.849 122.960  0.00  0.00    +0.000 NA
ATOM     16  C   UNL     1      -5.799   3.706 121.945  0.00  0.00    +0.000 A 
ATOM     17  C   UNL     1      -6.789   4.047 121.042  0.00  0.00    +0.000 A 
ATOM     18  H   UNL     1     -10.378   2.663 122.190  0.00  0.00    +0.000 HD
ENDROOT
BRANCH  13  19
ATOM     19  C   UNL     1      -7.310   1.875 125.566  0.00  0.00    +0.000 C 
ATOM     20  C   UNL     1      -7.910   3.160 126.080  0.00  0.00    +0.000 C 
ATOM     21  C   UNL     1      -8.520   1.850 126.478  0.00  0.00    +0.000 C 
ENDBRANCH  13  19
TORSDOF 1
ENDMDL
MODEL 5
REMARK VINA RESULT:      -6.5      8.262      9.423
REMARK  Name = Nevirapine
REMARK  2 active torsions:
REMARK  status: ('A' for Active; 'I' for Inactive)
REMARK    1  A    between atoms: C_1  and  C_2
REMARK    2  A    between atoms: N_13  and  C_14
REMARK                            x       y       z     vdW  Elec       q    Type
REMARK                         _______ _______ _______ _____ _____    ______ ____
ROOT
ATOM      1  C   UNL     1      -8.382   1.407 128.717  0.00  0.00    +0.000 C 
ATOM      2  C   UNL     1      -8.509   1.999 130.091  0.00  0.00    +0.000 A 
ATOM      3  C   UNL     1      -8.684   3.370 130.316  0.00  0.00    +0.000 A 
ATOM      4  N   UNL     1      -8.606   4.269 129.234  0.00  0.00    +0.000 N 
ATOM      5  C   UNL     1      -9.363   5.390 129.010  0.00  0.00    +0.000 C 
ATOM      6  O   UNL     1      -9.252   5.980 127.931  0.00  0.00    +0.000 OA
ATOM      7  C   UNL     1     -10.373   5.853 129.977  0.00  0.00    +0.000 A 
ATOM      8  C   UNL     1     -10.114   5.881 131.346  0.00  0.00    +0.000 A 
ATOM      9  N   UNL     1     -10.980   6.461 132.219  0.00  0.00    +0.000 NA
ATOM     10  C   UNL     1     -12.137   6.959 131.733  0.00  0.00    +0.000 A 
ATOM     11  C   UNL     1     -12.481   6.937 130.394  0.00  0.00    +0.000 A 
ATOM     12  C   UNL     1     -11.572   6.393 129.496  0.00  0.00    +0.000 A 
ATOM     13  N   UNL     1      -8.998   5.204 131.872  0.00  0.00    +0.000 N 
ATOM     14  C   UNL     1      -8.851   3.820 131.636  0.00  0.00    +0.000 A 
ATOM     15  N   UNL     1      -8.823   2.979 132.702  0.00  0.00    +0.000 NA
ATOM     16  C   UNL     1      -8.659   1.669 132.463  0.00  0.00    +0.000 A 
ATOM     17  C   UNL     1      -8.515   1.138 131.195  0.00  0.00    +0.000 A 
ATOM     18  H   UNL     1      -8.040   4.014 128.435  0.00  0.00    +0.000 HD
ENDROOT
BRANCH  13  19
ATOM     19  C   UNL     1      -7.986   5.942 132.643  0.00  0.00    +0.000 C 
ATOM     20  C   UNL     1      -6.611   5.405 132.956  0.00  0.00    +0.000 C 
ATOM     21  C   UNL     1      -6.762   6.491 131.935  0.00  0.00    +0.000 C 
ENDBRANCH  13  19
TORSDOF 1
ENDMDL
MODEL 6
REMARK VINA RESULT:      -6.5      7.662      9.045
REMARK  Name = Nevirapine
REMARK  2 active torsions:
REMARK  status: ('A' for Active; 'I' for Inactive)
REMARK    1  A    between atoms: C_1  and  C_2
REMARK    2  A    between atoms: N_13  and  C_14
REMARK                            x       y       z     vdW  Elec       q    Type
REMARK                         _______ _______ _______ _____ _____    ______ ____
ROOT
ATOM      1  C   UNL     1      -5.149   4.175 128.333  0.00  0.00    +0.000 C 
ATOM      2  C   UNL     1      -6.477   3.486 128.468  0.00  0.00    +0.000 A 
ATOM      3  C   UNL     1      -7.465   3.907 129.367  0.00  0.00    +0.000 A 
ATOM      4  N   UNL     1      -7.174   4.931 130.291  0.00  0.00    +0.000 N 
ATOM      5  C   UNL     1      -7.997   5.943 130.716  0.00  0.00    +0.000 C 
ATOM      6  O   UNL     1      -7.525   6.838 131.424  0.00  0.00    +0.000 OA
ATOM      7  C   UNL     1      -9.398   6.045 130.275  0.00  0.00    +0.000 A 
ATOM      8  C   UNL     1     -10.229   4.928 130.218  0.00  0.00    +0.000 A 
ATOM      9  N   UNL     1     -11.561   5.047 129.973  0.00  0.00    +0.000 NA
ATOM     10  C   UNL     1     -12.054   6.279 129.719  0.00  0.00    +0.000 A 
ATOM     11  C   UNL     1     -11.287   7.429 129.721  0.00  0.00    +0.000 A 
ATOM     12  C   UNL     1      -9.938   7.312 130.026  0.00  0.00    +0.000 A 
ATOM     13  N   UNL     1      -9.686   3.632 130.303  0.00  0.00    +0.000 N 
ATOM     14  C   UNL     1      -8.697   3.233 129.378  0.00  0.00    +0.000 A 
ATOM     15  N   UNL     1      -8.956   2.175 128.568  0.00  0.00    +0.000 NA
ATOM     16  C   UNL     1      -7.998   1.792 127.710  0.00  0.00    +0.000 A 
ATOM     17  C   UNL     1      -6.768   2.416 127.614  0.00  0.00    +0.000 A 
ATOM     18  H   UNL     1      -6.215   5.057 130.587  0.00  0.00    +0.000 HD
ENDROOT
BRANCH  13  19
ATOM     19  C   UNL     1     -10.132   2.714 131.362  0.00  0.00    +0.000 C 
ATOM     20  C   UNL     1      -9.350   1.505 131.811  0.00  0.00    +0.000 C 
ATOM     21  C   UNL     1      -9.416   2.711 132.698  0.00  0.00    +0.000 C 
ENDBRANCH  13  19
TORSDOF 1
ENDMDL
MODEL 7
REMARK VINA RESULT:      -6.5      8.373     10.078
REMARK  Name = Nevirapine
REMARK  2 active torsions:
REMARK  status: ('A' for Active; 'I' for Inactive)
REMARK    1  A    between atoms: C_1  and  C_2
REMARK    2  A    between atoms: N_13  and  C_14
REMARK                            x       y       z     vdW  Elec       q    Type
REMARK                         _______ _______ _______ _____ _____    ______ ____
ROOT
ATOM      1  C   UNL     1     -12.344   6.975 131.750  0.00  0.00    +0.000 C 
ATOM      2  C   UNL     1     -11.207   6.696 130.810  0.00  0.00    +0.000 A 
ATOM      3  C   UNL     1     -10.117   5.886 131.151  0.00  0.00    +0.000 A 
ATOM      4  N   UNL     1      -9.990   5.411 132.472  0.00  0.00    +0.000 N 
ATOM      5  C   UNL     1      -9.548   4.181 132.888  0.00  0.00    +0.000 C 
ATOM      6  O   UNL     1      -9.639   3.887 134.084  0.00  0.00    +0.000 OA
ATOM      7  C   UNL     1      -9.060   3.166 131.939  0.00  0.00    +0.000 A 
ATOM      8  C   UNL     1      -8.207   3.499 130.889  0.00  0.00    +0.000 A 
ATOM      9  N   UNL     1      -7.626   2.543 130.117  0.00  0.00    +0.000 NA
ATOM     10  C   UNL     1      -7.948   1.253 130.353  0.00  0.00    +0.000 A 
ATOM     11  C   UNL     1      -8.812   0.846 131.352  0.00  0.00    +0.000 A 
ATOM     12  C   UNL     1      -9.362   1.820 132.174  0.00  0.00    +0.000 A 
ATOM     13  N   UNL     1      -8.016   4.846 130.529  0.00  0.00    +0.000 N 
ATOM     14  C   UNL     1      -9.131   5.637 130.181  0.00  0.00    +0.000 A 
ATOM     15  N   UNL     1      -9.184   6.174 128.936  0.00  0.00    +0.000 NA
ATOM     16  C   UNL     1     -10.240   6.943 128.627  0.00  0.00    +0.000 A 
ATOM     17  C   UNL     1     -11.267   7.216 129.511  0.00  0.00    +0.000 A 
ATOM     18  H   UNL     1     -10.397   5.954 133.222  0.00  0.00    +0.000 HD
ENDROOT
BRANCH  13  19
ATOM     19  C   UNL     1      -6.663   5.425 130.538  0.00  0.00    +0.000 C 
ATOM     20  C   UNL     1      -6.349   6.822 131.014  0.00  0.00    +0.000 C 
ATOM     21  C   UNL     1      -5.955   5.649 131.860  0.00  0.00    +0.000 C 
ENDBRANCH  13  19
TORSDOF 1
ENDMDL
MODEL 8
REMARK VINA RESULT:      -6.3      2.869      4.893
REMARK  Name = Nevirapine
REMARK  2 active torsions:
REMARK  status: ('A' for Active; 'I' for Inactive)
REMARK    1  A    between atoms: C_1  and  C_2
REMARK    2  A    between atoms: N_13  and  C_14
REMARK                            x       y       z     vdW  Elec       q    Type
REMARK                         _______ _______ _______ _____ _____    ______ ____
ROOT
ATOM      1  C   UNL     1      -5.628  -1.674 126.943  0.00  0.00    +0.000 C 
ATOM      2  C   UNL     1      -6.079  -1.429 125.531  0.00  0.00    +0.000 A 
ATOM      3  C   UNL     1      -6.638  -0.216 125.111  0.00  0.00    +0.000 A 
ATOM      4  N   UNL     1      -6.926   0.784 126.061  0.00  0.00    +0.000 N 
ATOM      5  C   UNL     1      -6.780   2.142 125.929  0.00  0.00    +0.000 C 
ATOM      6  O   UNL     1      -6.947   2.859 126.920  0.00  0.00    +0.000 OA
ATOM      7  C   UNL     1      -6.335   2.758 124.668  0.00  0.00    +0.000 A 
ATOM      8  C   UNL     1      -6.839   2.346 123.436  0.00  0.00    +0.000 A 
ATOM      9  N   UNL     1      -6.555   3.024 122.291  0.00  0.00    +0.000 NA
ATOM     10  C   UNL     1      -5.714   4.077 122.368  0.00  0.00    +0.000 A 
ATOM     11  C   UNL     1      -5.146   4.524 123.546  0.00  0.00    +0.000 A 
ATOM     12  C   UNL     1      -5.480   3.865 124.722  0.00  0.00    +0.000 A 
ATOM     13  N   UNL     1      -7.566   1.146 123.331  0.00  0.00    +0.000 N 
ATOM     14  C   UNL     1      -6.974  -0.063 123.755  0.00  0.00    +0.000 A 
ATOM     15  N   UNL     1      -6.801  -1.056 122.846  0.00  0.00    +0.000 NA
ATOM     16  C   UNL     1      -6.260  -2.208 123.269  0.00  0.00    +0.000 A 
ATOM     17  C   UNL     1      -5.874  -2.433 124.577  0.00  0.00    +0.000 A 
ATOM     18  H   UNL     1      -7.127   0.504 127.011  0.00  0.00    +0.000 HD
ENDROOT
BRANCH  13  19
ATOM     19  C   UNL     1      -8.939   1.161 122.802  0.00  0.00    +0.000 C 
ATOM     20  C   UNL     1      -9.916   0.022 122.967  0.00  0.00    +0.000 C 
ATOM     21  C   UNL     1     -10.107   1.278 123.762  0.00  0.00    +0.000 C 
ENDBRANCH  13  19
TORSDOF 1
ENDMDL
MODEL 9
REMARK VINA RESULT:      -6.3      2.436      5.441
REMARK  Name = Nevirapine
REMARK  2 active torsions:
REMARK  status: ('A' for Active; 'I' for Inactive)
REMARK    1  A    between atoms: C_1  and  C_2
REMARK    2  A    between atoms: N_13  and  C_14
REMARK                            x       y       z     vdW  Elec       q    Type
REMARK                         _______ _______ _______ _____ _____    ______ ____
ROOT
ATOM      1  C   UNL     1      -8.547  -3.964 124.512  0.00  0.00    +0.000 C 
ATOM      2  C   UNL     1      -7.475  -2.992 124.914  0.00  0.00    +0.000 A 
ATOM      3  C   UNL     1      -7.320  -2.531 126.227  0.00  0.00    +0.000 A 
ATOM      4  N   UNL     1      -8.279  -2.870 127.203  0.00  0.00    +0.000 N 
ATOM      5  C   UNL     1      -8.068  -3.182 128.521  0.00  0.00    +0.000 C 
ATOM      6  O   UNL     1      -9.016  -3.596 129.196  0.00  0.00    +0.000 OA
ATOM      7  C   UNL     1      -6.728  -3.132 129.129  0.00  0.00    +0.000 A 
ATOM      8  C   UNL     1      -5.853  -2.076 128.883  0.00  0.00    +0.000 A 
ATOM      9  N   UNL     1      -4.688  -1.945 129.571  0.00  0.00    +0.000 NA
ATOM     10  C   UNL     1      -4.363  -2.907 130.461  0.00  0.00    +0.000 A 
ATOM     11  C   UNL     1      -5.161  -4.003 130.735  0.00  0.00    +0.000 A 
ATOM     12  C   UNL     1      -6.376  -4.106 130.071  0.00  0.00    +0.000 A 
ATOM     13  N   UNL     1      -6.104  -1.176 127.830  0.00  0.00    +0.000 N 
ATOM     14  C   UNL     1      -6.249  -1.668 126.516  0.00  0.00    +0.000 A 
ATOM     15  N   UNL     1      -5.377  -1.247 125.565  0.00  0.00    +0.000 NA
ATOM     16  C   UNL     1      -5.541  -1.705 124.314  0.00  0.00    +0.000 A 
ATOM     17  C   UNL     1      -6.550  -2.578 123.950  0.00  0.00    +0.000 A 
ATOM     18  H   UNL     1      -9.226  -3.059 126.903  0.00  0.00    +0.000 HD
ENDROOT
BRANCH  13  19
ATOM     19  C   UNL     1      -6.236   0.263 128.108  0.00  0.00    +0.000 C 
ATOM     20  C   UNL     1      -7.214   1.170 127.401  0.00  0.00    +0.000 C 
ATOM     21  C   UNL     1      -7.470   0.776 128.825  0.00  0.00    +0.000 C 
ENDBRANCH  13  19
TORSDOF 1
ENDMDL
