MODEL 1
REMARK VINA RESULT:      -4.9      0.000      0.000
REMARK  Name = Niacin
REMARK  2 active torsions:
REMARK  status: ('A' for Active; 'I' for Inactive)
REMARK    1  A    between atoms: O_1  and  C_2
REMARK    2  A    between atoms: C_2  and  C_4
REMARK                            x       y       z     vdW  Elec       q    Type
REMARK                         _______ _______ _______ _____ _____    ______ ____
ROOT
ATOM      1  C   UNL     1     -11.964   7.132 129.803  0.00  0.00    +0.000 A 
ATOM      2  C   UNL     1     -10.676   7.631 129.645  0.00  0.00    +0.000 A 
ATOM      3  N   UNL     1     -10.157   8.026 128.456  0.00  0.00    +0.000 NA
ATOM      4  C   UNL     1     -10.970   7.944 127.382  0.00  0.00    +0.000 A 
ATOM      5  C   UNL     1     -12.265   7.448 127.436  0.00  0.00    +0.000 A 
ATOM      6  C   UNL     1     -12.772   7.028 128.670  0.00  0.00    +0.000 A 
ENDROOT
BRANCH   1   7
ATOM      7  C   UNL     1     -12.436   6.874 131.174  0.00  0.00    +0.000 C 
ATOM      8  O   UNL     1     -13.285   7.578 131.703  0.00  0.00    +0.000 OA
BRANCH   7   9
ATOM      9  O   UNL     1     -11.857   5.831 131.801  0.00  0.00    +0.000 OA
ATOM     10  H   UNL     1     -10.959   5.974 132.149  0.00  0.00    +0.000 HD
ENDBRANCH   7   9
ENDBRANCH   1   7
TORSDOF 2
ENDMDL
MODEL 2
REMARK VINA RESULT:      -4.8      1.300      1.689
REMARK  Name = Niacin
REMARK  2 active torsions:
REMARK  status: ('A' for Active; 'I' for Inactive)
REMARK    1  A    between atoms: O_1  and  C_2
REMARK    2  A    between atoms: C_2  and  C_4
REMARK                            x       y       z     vdW  Elec       q    Type
REMARK                         _______ _______ _______ _____ _____    ______ ____
ROOT
ATOM      1  C   UNL     1     -11.007   7.007 130.046  0.00  0.00    +0.000 A 
ATOM      2  C   UNL     1     -10.166   6.390 129.127  0.00  0.00    +0.000 A 
ATOM      3  N   UNL     1     -10.030   6.787 127.838  0.00  0.00    +0.000 NA
ATOM      4  C   UNL     1     -10.745   7.866 127.457  0.00  0.00    +0.000 A 
ATOM      5  C   UNL     1     -11.620   8.542 128.296  0.00  0.00    +0.000 A 
ATOM      6  C   UNL     1     -11.760   8.102 129.615  0.00  0.00    +0.000 A 
ENDROOT
BRANCH   1   7
ATOM      7  C   UNL     1     -10.948   6.551 131.445  0.00  0.00    +0.000 C 
ATOM      8  O   UNL     1      -9.900   6.556 132.077  0.00  0.00    +0.000 OA
BRANCH   7   9
ATOM      9  O   UNL     1     -12.112   6.116 131.964  0.00  0.00    +0.000 OA
ATOM     10  H   UNL     1     -12.851   5.995 131.341  0.00  0.00    +0.000 HD
ENDBRANCH   7   9
ENDBRANCH   1   7
TORSDOF 2
ENDMDL
MODEL 3
REMARK VINA RESULT:      -4.8      3.172      3.833
REMARK  Name = Niacin
REMARK  2 active torsions:
REMARK  status: ('A' for Active; 'I' for Inactive)
REMARK    1  A    between atoms: O_1  and  C_2
REMARK    2  A    between atoms: C_2  and  C_4
REMARK                            x       y       z     vdW  Elec       q    Type
REMARK                         _______ _______ _______ _____ _____    ______ ____
ROOT
ATOM      1  C   UNL     1     -11.181   7.628 127.891  0.00  0.00    +0.000 A 
ATOM      2  C   UNL     1     -10.820   6.774 128.927  0.00  0.00    +0.000 A 
ATOM      3  N   UNL     1     -11.351   6.829 130.173  0.00  0.00    +0.000 NA
ATOM      4  C   UNL     1     -12.304   7.760 130.387  0.00  0.00    +0.000 A 
ATOM      5  C   UNL     1     -12.722   8.665 129.422  0.00  0.00    +0.000 A 
ATOM      6  C   UNL     1     -12.147   8.603 128.149  0.00  0.00    +0.000 A 
ENDROOT
BRANCH   1   7
ATOM      7  C   UNL     1     -10.621   7.362 126.555  0.00  0.00    +0.000 C 
ATOM      8  O   UNL     1     -10.931   8.039 125.584  0.00  0.00    +0.000 OA
BRANCH   7   9
ATOM      9  O   UNL     1      -9.768   6.322 126.479  0.00  0.00    +0.000 OA
ATOM     10  H   UNL     1     -10.165   5.437 126.394  0.00  0.00    +0.000 HD
ENDBRANCH   7   9
ENDBRANCH   1   7
TORSDOF 2
ENDMDL
MODEL 4
REMARK VINA RESULT:      -4.7      2.709      3.874
REMARK  Name = Niacin
REMARK  2 active torsions:
REMARK  status: ('A' for Active; 'I' for Inactive)
REMARK    1  A    between atoms: O_1  and  C_2
REMARK    2  A    between atoms: C_2  and  C_4
REMARK                            x       y       z     vdW  Elec       q    Type
REMARK                         _______ _______ _______ _____ _____    ______ ____
ROOT
ATOM      1  C   UNL     1     -11.294   7.673 129.650  0.00  0.00    +0.000 A 
ATOM      2  C   UNL     1     -12.399   7.405 130.450  0.00  0.00    +0.000 A 
ATOM      3  N   UNL     1     -12.340   6.716 131.616  0.00  0.00    +0.000 NA
ATOM      4  C   UNL     1     -11.120   6.302 132.016  0.00  0.00    +0.000 A 
ATOM      5  C   UNL     1      -9.961   6.509 131.281  0.00  0.00    +0.000 A 
ATOM      6  C   UNL     1     -10.048   7.204 130.071  0.00  0.00    +0.000 A 
ENDROOT
BRANCH   1   7
ATOM      7  C   UNL     1     -11.490   8.549 128.482  0.00  0.00    +0.000 C 
ATOM      8  O   UNL     1     -10.823   8.418 127.464  0.00  0.00    +0.000 OA
BRANCH   7   9
ATOM      9  O   UNL     1     -12.430   9.504 128.622  0.00  0.00    +0.000 OA
ATOM     10  H   UNL     1     -12.416  10.229 127.973  0.00  0.00    +0.000 HD
ENDBRANCH   7   9
ENDBRANCH   1   7
TORSDOF 2
ENDMDL
MODEL 5
REMARK VINA RESULT:      -4.6      9.763     10.715
REMARK  Name = Niacin
REMARK  2 active torsions:
REMARK  status: ('A' for Active; 'I' for Inactive)
REMARK    1  A    between atoms: O_1  and  C_2
REMARK    2  A    between atoms: C_2  and  C_4
REMARK                            x       y       z     vdW  Elec       q    Type
REMARK                         _______ _______ _______ _____ _____    ______ ____
ROOT
ATOM      1  C   UNL     1      -6.746   3.881 120.979  0.00  0.00    +0.000 A 
ATOM      2  C   UNL     1      -5.535   4.535 121.173  0.00  0.00    +0.000 A 
ATOM      3  N   UNL     1      -4.958   5.349 120.255  0.00  0.00    +0.000 NA
ATOM      4  C   UNL     1      -5.634   5.540 119.103  0.00  0.00    +0.000 A 
ATOM      5  C   UNL     1      -6.842   4.922 118.812  0.00  0.00    +0.000 A 
ATOM      6  C   UNL     1      -7.409   4.071 119.765  0.00  0.00    +0.000 A 
ENDROOT
BRANCH   1   7
ATOM      7  C   UNL     1      -7.315   3.139 122.118  0.00  0.00    +0.000 C 
ATOM      8  O   UNL     1      -6.707   2.222 122.653  0.00  0.00    +0.000 OA
BRANCH   7   9
ATOM      9  O   UNL     1      -8.545   3.527 122.508  0.00  0.00    +0.000 OA
ATOM     10  H   UNL     1      -8.607   4.377 122.978  0.00  0.00    +0.000 HD
ENDBRANCH   7   9
ENDBRANCH   1   7
TORSDOF 2
ENDMDL
MODEL 6
REMARK VINA RESULT:      -4.6      2.495      3.323
REMARK  Name = Niacin
REMARK  2 active torsions:
REMARK  status: ('A' for Active; 'I' for Inactive)
REMARK    1  A    between atoms: O_1  and  C_2
REMARK    2  A    between atoms: C_2  and  C_4
REMARK                            x       y       z     vdW  Elec       q    Type
REMARK                         _______ _______ _______ _____ _____    ______ ____
ROOT
ATOM      1  C   UNL     1     -12.276   8.092 129.720  0.00  0.00    +0.000 A 
ATOM      2  C   UNL     1     -10.934   7.900 129.414  0.00  0.00    +0.000 A 
ATOM      3  N   UNL     1     -10.089   7.138 130.153  0.00  0.00    +0.000 NA
ATOM      4  C   UNL     1     -10.616   6.518 131.229  0.00  0.00    +0.000 A 
ATOM      5  C   UNL     1     -11.939   6.657 131.624  0.00  0.00    +0.000 A 
ATOM      6  C   UNL     1     -12.787   7.465 130.858  0.00  0.00    +0.000 A 
ENDROOT
BRANCH   1   7
ATOM      7  C   UNL     1     -13.102   8.834 128.752  0.00  0.00    +0.000 C 
ATOM      8  O   UNL     1     -13.774   8.256 127.908  0.00  0.00    +0.000 OA
BRANCH   7   9
ATOM      9  O   UNL     1     -13.047  10.176 128.849  0.00  0.00    +0.000 OA
ATOM     10  H   UNL     1     -13.777  10.674 128.440  0.00  0.00    +0.000 HD
ENDBRANCH   7   9
ENDBRANCH   1   7
TORSDOF 2
ENDMDL
MODEL 7
REMARK VINA RESULT:      -4.4      1.599      2.207
REMARK  Name = Niacin
REMARK  2 active torsions:
REMARK  status: ('A' for Active; 'I' for Inactive)
REMARK    1  A    between atoms: O_1  and  C_2
REMARK    2  A    between atoms: C_2  and  C_4
REMARK                            x       y       z     vdW  Elec       q    Type
REMARK                         _______ _______ _______ _____ _____    ______ ____
ROOT
ATOM      1  C   UNL     1     -12.007   6.768 129.957  0.00  0.00    +0.000 A 
ATOM      2  C   UNL     1     -11.640   6.968 128.631  0.00  0.00    +0.000 A 
ATOM      3  N   UNL     1     -11.885   8.109 127.941  0.00  0.00    +0.000 NA
ATOM      4  C   UNL     1     -12.499   9.105 128.613  0.00  0.00    +0.000 A 
ATOM      5  C   UNL     1     -12.916   8.997 129.933  0.00  0.00    +0.000 A 
ATOM      6  C   UNL     1     -12.671   7.803 130.619  0.00  0.00    +0.000 A 
ENDROOT
BRANCH   1   7
ATOM      7  C   UNL     1     -11.554   5.531 130.616  0.00  0.00    +0.000 C 
ATOM      8  O   UNL     1     -11.350   4.505 129.981  0.00  0.00    +0.000 OA
BRANCH   7   9
ATOM      9  O   UNL     1     -11.400   5.607 131.952  0.00  0.00    +0.000 OA
ATOM     10  H   UNL     1     -10.700   5.055 132.343  0.00  0.00    +0.000 HD
ENDBRANCH   7   9
ENDBRANCH   1   7
TORSDOF 2
ENDMDL
MODEL 8
REMARK VINA RESULT:      -4.3      2.511      3.547
REMARK  Name = Niacin
REMARK  2 active torsions:
REMARK  status: ('A' for Active; 'I' for Inactive)
REMARK    1  A    between atoms: O_1  and  C_2
REMARK    2  A    between atoms: C_2  and  C_4
REMARK                            x       y       z     vdW  Elec       q    Type
REMARK                         _______ _______ _______ _____ _____    ______ ____
ROOT
ATOM      1  C   UNL     1     -10.395   6.493 131.090  0.00  0.00    +0.000 A 
ATOM      2  C   UNL     1      -9.584   7.143 130.168  0.00  0.00    +0.000 A 
ATOM      3  N   UNL     1      -8.240   7.274 130.301  0.00  0.00    +0.000 NA
ATOM      4  C   UNL     1      -7.680   6.708 131.390  0.00  0.00    +0.000 A 
ATOM      5  C   UNL     1      -8.407   6.050 132.372  0.00  0.00    +0.000 A 
ATOM      6  C   UNL     1      -9.794   5.944 132.224  0.00  0.00    +0.000 A 
ENDROOT
BRANCH   1   7
ATOM      7  C   UNL     1     -11.816   6.309 130.744  0.00  0.00    +0.000 C 
ATOM      8  O   UNL     1     -12.710   6.695 131.484  0.00  0.00    +0.000 OA
BRANCH   7   9
ATOM      9  O   UNL     1     -12.053   5.676 129.579  0.00  0.00    +0.000 OA
ATOM     10  H   UNL     1     -12.191   4.713 129.624  0.00  0.00    +0.000 HD
ENDBRANCH   7   9
ENDBRANCH   1   7
TORSDOF 2
ENDMDL
MODEL 9
REMARK VINA RESULT:      -4.2     11.711     12.151
REMARK  Name = Niacin
REMARK  2 active torsions:
REMARK  status: ('A' for Active; 'I' for Inactive)
REMARK    1  A    between atoms: O_1  and  C_2
REMARK    2  A    between atoms: C_2  and  C_4
REMARK                            x       y       z     vdW  Elec       q    Type
REMARK                         _______ _______ _______ _____ _____    ______ ____
ROOT
ATOM      1  C   UNL     1      -7.957  -2.813 124.570  0.00  0.00    +0.000 A 
ATOM      2  C   UNL     1      -7.482  -1.507 124.599  0.00  0.00    +0.000 A 
ATOM      3  N   UNL     1      -6.183  -1.169 124.400  0.00  0.00    +0.000 NA
ATOM      4  C   UNL     1      -5.328  -2.177 124.133  0.00  0.00    +0.000 A 
ATOM      5  C   UNL     1      -5.704  -3.513 124.096  0.00  0.00    +0.000 A 
ATOM      6  C   UNL     1      -7.044  -3.840 124.324  0.00  0.00    +0.000 A 
ENDROOT
BRANCH   1   7
ATOM      7  C   UNL     1      -9.413  -3.015 124.667  0.00  0.00    +0.000 C 
ATOM      8  O   UNL     1     -10.012  -2.863 125.723  0.00  0.00    +0.000 OA
BRANCH   7   9
ATOM      9  O   UNL     1     -10.025  -3.392 123.527  0.00  0.00    +0.000 OA
ATOM     10  H   UNL     1     -10.608  -2.737 123.106  0.00  0.00    +0.000 HD
ENDBRANCH   7   9
ENDBRANCH   1   7
TORSDOF 2
ENDMDL
