MODEL 1
REMARK VINA RESULT:      -7.4      0.000      0.000
REMARK  Name = Nialamide
REMARK  7 active torsions:
REMARK  status: ('A' for Active; 'I' for Inactive)
REMARK    1  A    between atoms: C_2  and  C_3
REMARK    2  A    between atoms: C_3  and  C_4
REMARK    3  A    between atoms: C_4  and  N_5
REMARK    4  A    between atoms: N_5  and  N_6
REMARK    5  A    between atoms: C_7  and  C_9
REMARK    6  A    between atoms: N_15  and  C_16
REMARK    7  A    between atoms: C_16  and  C_17
REMARK                            x       y       z     vdW  Elec       q    Type
REMARK                         _______ _______ _______ _____ _____    ______ ____
ROOT
ATOM      1  C   UNL     1      -8.567   1.125 123.189  0.00  0.00    +0.000 C 
ENDROOT
BRANCH   1   2
ATOM      2  N   UNL     1      -9.162  -0.175 123.531  0.00  0.00    +0.000 NA
ATOM      3  H   UNL     1      -8.900  -0.890 122.845  0.00  0.00    +0.000 HD
BRANCH   2   4
ATOM      4  N   UNL     1      -8.762  -0.629 124.817  0.00  0.00    +0.000 N 
ATOM      5  C   UNL     1      -9.090  -1.917 125.236  0.00  0.00    +0.000 C 
ATOM      6  O   UNL     1      -9.672  -2.753 124.546  0.00  0.00    +0.000 OA
ATOM      7  H   UNL     1      -8.204  -0.021 125.410  0.00  0.00    +0.000 HD
BRANCH   5   8
ATOM      8  C   UNL     1      -8.639  -2.286 126.606  0.00  0.00    +0.000 A 
ATOM      9  C   UNL     1      -8.945  -3.532 127.151  0.00  0.00    +0.000 A 
ATOM     10  C   UNL     1      -8.494  -3.808 128.432  0.00  0.00    +0.000 A 
ATOM     11  N   UNL     1      -7.789  -2.939 129.185  0.00  0.00    +0.000 NA
ATOM     12  C   UNL     1      -7.487  -1.747 128.625  0.00  0.00    +0.000 A 
ATOM     13  C   UNL     1      -7.872  -1.382 127.345  0.00  0.00    +0.000 A 
ENDBRANCH   5   8
ENDBRANCH   2   4
ENDBRANCH   1   2
BRANCH   1  14
ATOM     14  C   UNL     1      -7.807   1.730 124.373  0.00  0.00    +0.000 C 
BRANCH  14  16
ATOM     15  O   UNL     1      -8.847   3.794 125.090  0.00  0.00    +0.000 OA
ATOM     16  C   UNL     1      -7.983   3.236 124.414  0.00  0.00    +0.000 C 
ATOM     17  N   UNL     1      -7.133   3.996 123.664  0.00  0.00    +0.000 N 
ATOM     18  H   UNL     1      -7.287   4.995 123.735  0.00  0.00    +0.000 HD
BRANCH  17  19
ATOM     19  C   UNL     1      -6.075   3.520 122.801  0.00  0.00    +0.000 C 
BRANCH  19  20
ATOM     20  C   UNL     1      -6.239   4.015 121.389  0.00  0.00    +0.000 A 
ATOM     21  C   UNL     1      -5.216   4.760 120.783  0.00  0.00    +0.000 A 
ATOM     22  C   UNL     1      -5.380   5.280 119.501  0.00  0.00    +0.000 A 
ATOM     23  C   UNL     1      -6.543   5.009 118.784  0.00  0.00    +0.000 A 
ATOM     24  C   UNL     1      -7.567   4.267 119.373  0.00  0.00    +0.000 A 
ATOM     25  C   UNL     1      -7.422   3.783 120.674  0.00  0.00    +0.000 A 
ENDBRANCH  19  20
ENDBRANCH  17  19
ENDBRANCH  14  16
ENDBRANCH   1  14
TORSDOF 7
ENDMDL
MODEL 2
REMARK VINA RESULT:      -7.0      4.982      6.621
REMARK  Name = Nialamide
REMARK  7 active torsions:
REMARK  status: ('A' for Active; 'I' for Inactive)
REMARK    1  A    between atoms: C_2  and  C_3
REMARK    2  A    between atoms: C_3  and  C_4
REMARK    3  A    between atoms: C_4  and  N_5
REMARK    4  A    between atoms: N_5  and  N_6
REMARK    5  A    between atoms: C_7  and  C_9
REMARK    6  A    between atoms: N_15  and  C_16
REMARK    7  A    between atoms: C_16  and  C_17
REMARK                            x       y       z     vdW  Elec       q    Type
REMARK                         _______ _______ _______ _____ _____    ______ ____
ROOT
ATOM      1  C   UNL     1      -5.517   3.993 125.804  0.00  0.00    +0.000 C 
ENDROOT
BRANCH   1   2
ATOM      2  N   UNL     1      -6.119   4.734 126.922  0.00  0.00    +0.000 NA
ATOM      3  H   UNL     1      -7.051   4.370 127.144  0.00  0.00    +0.000 HD
BRANCH   2   4
ATOM      4  N   UNL     1      -5.328   4.669 128.100  0.00  0.00    +0.000 N 
ATOM      5  C   UNL     1      -4.294   5.582 128.298  0.00  0.00    +0.000 C 
ATOM      6  O   UNL     1      -4.023   6.513 127.541  0.00  0.00    +0.000 OA
ATOM      7  H   UNL     1      -5.548   3.978 128.812  0.00  0.00    +0.000 HD
BRANCH   5   8
ATOM      8  C   UNL     1      -3.516   5.415 129.558  0.00  0.00    +0.000 A 
ATOM      9  C   UNL     1      -3.655   4.270 130.340  0.00  0.00    +0.000 A 
ATOM     10  C   UNL     1      -2.902   4.182 131.500  0.00  0.00    +0.000 A 
ATOM     11  N   UNL     1      -2.054   5.143 131.921  0.00  0.00    +0.000 NA
ATOM     12  C   UNL     1      -1.922   6.232 131.134  0.00  0.00    +0.000 A 
ATOM     13  C   UNL     1      -2.612   6.408 129.945  0.00  0.00    +0.000 A 
ENDBRANCH   5   8
ENDBRANCH   2   4
ENDBRANCH   1   2
BRANCH   1  14
ATOM     14  C   UNL     1      -6.477   2.940 125.241  0.00  0.00    +0.000 C 
BRANCH  14  16
ATOM     15  O   UNL     1      -8.600   4.098 125.170  0.00  0.00    +0.000 OA
ATOM     16  C   UNL     1      -7.659   3.600 124.555  0.00  0.00    +0.000 C 
ATOM     17  N   UNL     1      -7.661   3.639 123.191  0.00  0.00    +0.000 N 
ATOM     18  H   UNL     1      -8.467   4.099 122.784  0.00  0.00    +0.000 HD
BRANCH  17  19
ATOM     19  C   UNL     1      -6.657   3.094 122.305  0.00  0.00    +0.000 C 
BRANCH  19  20
ATOM     20  C   UNL     1      -6.545   3.885 121.030  0.00  0.00    +0.000 A 
ATOM     21  C   UNL     1      -7.600   3.880 120.105  0.00  0.00    +0.000 A 
ATOM     22  C   UNL     1      -7.484   4.555 118.891  0.00  0.00    +0.000 A 
ATOM     23  C   UNL     1      -6.337   5.295 118.614  0.00  0.00    +0.000 A 
ATOM     24  C   UNL     1      -5.282   5.313 119.526  0.00  0.00    +0.000 A 
ATOM     25  C   UNL     1      -5.379   4.600 120.723  0.00  0.00    +0.000 A 
ENDBRANCH  19  20
ENDBRANCH  17  19
ENDBRANCH  14  16
ENDBRANCH   1  14
TORSDOF 7
ENDMDL
MODEL 3
REMARK VINA RESULT:      -7.0      7.600     11.347
REMARK  Name = Nialamide
REMARK  7 active torsions:
REMARK  status: ('A' for Active; 'I' for Inactive)
REMARK    1  A    between atoms: C_2  and  C_3
REMARK    2  A    between atoms: C_3  and  C_4
REMARK    3  A    between atoms: C_4  and  N_5
REMARK    4  A    between atoms: N_5  and  N_6
REMARK    5  A    between atoms: C_7  and  C_9
REMARK    6  A    between atoms: N_15  and  C_16
REMARK    7  A    between atoms: C_16  and  C_17
REMARK                            x       y       z     vdW  Elec       q    Type
REMARK                         _______ _______ _______ _____ _____    ______ ____
ROOT
ATOM      1  C   UNL     1      -8.508   4.266 129.406  0.00  0.00    +0.000 C 
ENDROOT
BRANCH   1   2
ATOM      2  N   UNL     1      -9.109   5.299 130.260  0.00  0.00    +0.000 NA
ATOM      3  H   UNL     1      -8.394   5.938 130.622  0.00  0.00    +0.000 HD
BRANCH   2   4
ATOM      4  N   UNL     1     -10.081   6.072 129.569  0.00  0.00    +0.000 N 
ATOM      5  C   UNL     1     -11.105   6.700 130.275  0.00  0.00    +0.000 C 
ATOM      6  O   UNL     1     -11.222   6.692 131.500  0.00  0.00    +0.000 OA
ATOM      7  H   UNL     1     -10.000   6.193 128.563  0.00  0.00    +0.000 HD
BRANCH   5   8
ATOM      8  C   UNL     1     -12.080   7.470 129.453  0.00  0.00    +0.000 A 
ATOM      9  C   UNL     1     -12.816   6.850 128.444  0.00  0.00    +0.000 A 
ATOM     10  C   UNL     1     -13.703   7.627 127.718  0.00  0.00    +0.000 A 
ATOM     11  N   UNL     1     -13.887   8.948 127.921  0.00  0.00    +0.000 NA
ATOM     12  C   UNL     1     -13.179   9.519 128.920  0.00  0.00    +0.000 A 
ATOM     13  C   UNL     1     -12.282   8.827 129.717  0.00  0.00    +0.000 A 
ENDBRANCH   5   8
ENDBRANCH   2   4
ENDBRANCH   1   2
BRANCH   1  14
ATOM     14  C   UNL     1      -9.058   2.873 129.730  0.00  0.00    +0.000 C 
BRANCH  14  16
ATOM     15  O   UNL     1     -11.352   3.496 130.183  0.00  0.00    +0.000 OA
ATOM     16  C   UNL     1     -10.311   2.973 130.579  0.00  0.00    +0.000 C 
ATOM     17  N   UNL     1     -10.269   2.448 131.838  0.00  0.00    +0.000 N 
ATOM     18  H   UNL     1     -11.135   2.531 132.359  0.00  0.00    +0.000 HD
BRANCH  17  19
ATOM     19  C   UNL     1      -9.138   1.814 132.478  0.00  0.00    +0.000 C 
BRANCH  19  20
ATOM     20  C   UNL     1      -8.387   2.770 133.365  0.00  0.00    +0.000 A 
ATOM     21  C   UNL     1      -7.041   2.526 133.680  0.00  0.00    +0.000 A 
ATOM     22  C   UNL     1      -6.353   3.367 134.552  0.00  0.00    +0.000 A 
ATOM     23  C   UNL     1      -6.981   4.497 135.070  0.00  0.00    +0.000 A 
ATOM     24  C   UNL     1      -8.316   4.754 134.763  0.00  0.00    +0.000 A 
ATOM     25  C   UNL     1      -9.022   3.888 133.925  0.00  0.00    +0.000 A 
ENDBRANCH  19  20
ENDBRANCH  17  19
ENDBRANCH  14  16
ENDBRANCH   1  14
TORSDOF 7
ENDMDL
MODEL 4
REMARK VINA RESULT:      -7.0      7.135     10.473
REMARK  Name = Nialamide
REMARK  7 active torsions:
REMARK  status: ('A' for Active; 'I' for Inactive)
REMARK    1  A    between atoms: C_2  and  C_3
REMARK    2  A    between atoms: C_3  and  C_4
REMARK    3  A    between atoms: C_4  and  N_5
REMARK    4  A    between atoms: N_5  and  N_6
REMARK    5  A    between atoms: C_7  and  C_9
REMARK    6  A    between atoms: N_15  and  C_16
REMARK    7  A    between atoms: C_16  and  C_17
REMARK                            x       y       z     vdW  Elec       q    Type
REMARK                         _______ _______ _______ _____ _____    ______ ____
ROOT
ATOM      1  C   UNL     1      -9.187   5.968 132.841  0.00  0.00    +0.000 C 
ENDROOT
BRANCH   1   2
ATOM      2  N   UNL     1     -10.553   5.529 132.526  0.00  0.00    +0.000 NA
ATOM      3  H   UNL     1     -11.106   5.407 133.380  0.00  0.00    +0.000 HD
BRANCH   2   4
ATOM      4  N   UNL     1     -11.235   6.451 131.687  0.00  0.00    +0.000 N 
ATOM      5  C   UNL     1     -11.731   6.038 130.452  0.00  0.00    +0.000 C 
ATOM      6  O   UNL     1     -11.679   4.886 130.024  0.00  0.00    +0.000 OA
ATOM      7  H   UNL     1     -11.391   7.402 132.013  0.00  0.00    +0.000 HD
BRANCH   5   8
ATOM      8  C   UNL     1     -12.414   7.087 129.645  0.00  0.00    +0.000 A 
ATOM      9  C   UNL     1     -13.177   6.749 128.528  0.00  0.00    +0.000 A 
ATOM     10  C   UNL     1     -13.783   7.777 127.822  0.00  0.00    +0.000 A 
ATOM     11  N   UNL     1     -13.667   9.081 128.145  0.00  0.00    +0.000 NA
ATOM     12  C   UNL     1     -12.941   9.379 129.244  0.00  0.00    +0.000 A 
ATOM     13  C   UNL     1     -12.313   8.426 130.030  0.00  0.00    +0.000 A 
ENDBRANCH   5   8
ENDBRANCH   2   4
ENDBRANCH   1   2
BRANCH   1  14
ATOM     14  C   UNL     1      -8.138   5.007 132.271  0.00  0.00    +0.000 C 
BRANCH  14  16
ATOM     15  O   UNL     1      -7.961   5.752 129.976  0.00  0.00    +0.000 OA
ATOM     16  C   UNL     1      -8.293   4.871 130.768  0.00  0.00    +0.000 C 
ATOM     17  N   UNL     1      -8.822   3.709 130.287  0.00  0.00    +0.000 N 
ATOM     18  H   UNL     1      -8.894   3.665 129.276  0.00  0.00    +0.000 HD
BRANCH  17  19
ATOM     19  C   UNL     1      -9.282   2.577 131.061  0.00  0.00    +0.000 C 
BRANCH  19  20
ATOM     20  C   UNL     1      -8.670   1.287 130.586  0.00  0.00    +0.000 A 
ATOM     21  C   UNL     1      -8.103   1.209 129.305  0.00  0.00    +0.000 A 
ATOM     22  C   UNL     1      -7.592   0.003 128.828  0.00  0.00    +0.000 A 
ATOM     23  C   UNL     1      -7.583  -1.122 129.648  0.00  0.00    +0.000 A 
ATOM     24  C   UNL     1      -8.140  -1.058 130.924  0.00  0.00    +0.000 A 
ATOM     25  C   UNL     1      -8.694   0.138 131.388  0.00  0.00    +0.000 A 
ENDBRANCH  19  20
ENDBRANCH  17  19
ENDBRANCH  14  16
ENDBRANCH   1  14
TORSDOF 7
ENDMDL
MODEL 5
REMARK VINA RESULT:      -7.0      4.443      6.138
REMARK  Name = Nialamide
REMARK  7 active torsions:
REMARK  status: ('A' for Active; 'I' for Inactive)
REMARK    1  A    between atoms: C_2  and  C_3
REMARK    2  A    between atoms: C_3  and  C_4
REMARK    3  A    between atoms: C_4  and  N_5
REMARK    4  A    between atoms: N_5  and  N_6
REMARK    5  A    between atoms: C_7  and  C_9
REMARK    6  A    between atoms: N_15  and  C_16
REMARK    7  A    between atoms: C_16  and  C_17
REMARK                            x       y       z     vdW  Elec       q    Type
REMARK                         _______ _______ _______ _____ _____    ______ ____
ROOT
ATOM      1  C   UNL     1      -6.308   3.911 126.760  0.00  0.00    +0.000 C 
ENDROOT
BRANCH   1   2
ATOM      2  N   UNL     1      -7.159   3.409 127.847  0.00  0.00    +0.000 NA
ATOM      3  H   UNL     1      -6.594   3.118 128.651  0.00  0.00    +0.000 HD
BRANCH   2   4
ATOM      4  N   UNL     1      -8.094   4.382 128.293  0.00  0.00    +0.000 N 
ATOM      5  C   UNL     1      -8.730   4.226 129.523  0.00  0.00    +0.000 C 
ATOM      6  O   UNL     1      -8.510   3.314 130.319  0.00  0.00    +0.000 OA
ATOM      7  H   UNL     1      -8.264   5.208 127.726  0.00  0.00    +0.000 HD
BRANCH   5   8
ATOM      8  C   UNL     1      -9.704   5.293 129.887  0.00  0.00    +0.000 A 
ATOM      9  C   UNL     1      -9.976   6.345 129.014  0.00  0.00    +0.000 A 
ATOM     10  C   UNL     1     -10.891   7.304 129.418  0.00  0.00    +0.000 A 
ATOM     11  N   UNL     1     -11.523   7.285 130.610  0.00  0.00    +0.000 NA
ATOM     12  C   UNL     1     -11.258   6.243 131.428  0.00  0.00    +0.000 A 
ATOM     13  C   UNL     1     -10.377   5.223 131.110  0.00  0.00    +0.000 A 
ENDBRANCH   5   8
ENDBRANCH   2   4
ENDBRANCH   1   2
BRANCH   1  14
ATOM     14  C   UNL     1      -6.559   3.157 125.450  0.00  0.00    +0.000 C 
BRANCH  14  16
ATOM     15  O   UNL     1      -8.714   4.249 125.308  0.00  0.00    +0.000 OA
ATOM     16  C   UNL     1      -7.767   3.723 124.726  0.00  0.00    +0.000 C 
ATOM     17  N   UNL     1      -7.786   3.641 123.364  0.00  0.00    +0.000 N 
ATOM     18  H   UNL     1      -8.609   4.043 122.929  0.00  0.00    +0.000 HD
BRANCH  17  19
ATOM     19  C   UNL     1      -6.778   3.047 122.514  0.00  0.00    +0.000 C 
BRANCH  19  20
ATOM     20  C   UNL     1      -6.583   3.830 121.244  0.00  0.00    +0.000 A 
ATOM     21  C   UNL     1      -7.596   3.857 120.273  0.00  0.00    +0.000 A 
ATOM     22  C   UNL     1      -7.403   4.523 119.064  0.00  0.00    +0.000 A 
ATOM     23  C   UNL     1      -6.220   5.222 118.837  0.00  0.00    +0.000 A 
ATOM     24  C   UNL     1      -5.206   5.206 119.793  0.00  0.00    +0.000 A 
ATOM     25  C   UNL     1      -5.380   4.502 120.987  0.00  0.00    +0.000 A 
ENDBRANCH  19  20
ENDBRANCH  17  19
ENDBRANCH  14  16
ENDBRANCH   1  14
TORSDOF 7
ENDMDL
MODEL 6
REMARK VINA RESULT:      -7.0      6.700     10.287
REMARK  Name = Nialamide
REMARK  7 active torsions:
REMARK  status: ('A' for Active; 'I' for Inactive)
REMARK    1  A    between atoms: C_2  and  C_3
REMARK    2  A    between atoms: C_3  and  C_4
REMARK    3  A    between atoms: C_4  and  N_5
REMARK    4  A    between atoms: N_5  and  N_6
REMARK    5  A    between atoms: C_7  and  C_9
REMARK    6  A    between atoms: N_15  and  C_16
REMARK    7  A    between atoms: C_16  and  C_17
REMARK                            x       y       z     vdW  Elec       q    Type
REMARK                         _______ _______ _______ _____ _____    ______ ____
ROOT
ATOM      1  C   UNL     1      -9.410   3.879 130.766  0.00  0.00    +0.000 C 
ENDROOT
BRANCH   1   2
ATOM      2  N   UNL     1     -10.857   4.022 130.978  0.00  0.00    +0.000 NA
ATOM      3  H   UNL     1     -11.065   4.235 131.959  0.00  0.00    +0.000 HD
BRANCH   2   4
ATOM      4  N   UNL     1     -11.421   5.048 130.174  0.00  0.00    +0.000 N 
ATOM      5  C   UNL     1     -11.988   6.172 130.772  0.00  0.00    +0.000 C 
ATOM      6  O   UNL     1     -11.998   6.396 131.982  0.00  0.00    +0.000 OA
ATOM      7  H   UNL     1     -11.374   4.973 129.161  0.00  0.00    +0.000 HD
BRANCH   5   8
ATOM      8  C   UNL     1     -12.566   7.179 129.839  0.00  0.00    +0.000 A 
ATOM      9  C   UNL     1     -12.470   8.544 130.107  0.00  0.00    +0.000 A 
ATOM     10  C   UNL     1     -13.033   9.425 129.196  0.00  0.00    +0.000 A 
ATOM     11  N   UNL     1     -13.677   9.038 128.076  0.00  0.00    +0.000 NA
ATOM     12  C   UNL     1     -13.736   7.712 127.829  0.00  0.00    +0.000 A 
ATOM     13  C   UNL     1     -13.188   6.751 128.663  0.00  0.00    +0.000 A 
ENDBRANCH   5   8
ENDBRANCH   2   4
ENDBRANCH   1   2
BRANCH   1  14
ATOM     14  C   UNL     1      -9.056   2.510 130.177  0.00  0.00    +0.000 C 
BRANCH  14  16
ATOM     15  O   UNL     1      -9.896   1.474 132.196  0.00  0.00    +0.000 OA
ATOM     16  C   UNL     1      -9.119   1.432 131.244  0.00  0.00    +0.000 C 
ATOM     17  N   UNL     1      -8.271   0.370 131.124  0.00  0.00    +0.000 N 
ATOM     18  H   UNL     1      -8.360  -0.326 131.856  0.00  0.00    +0.000 HD
BRANCH  17  19
ATOM     19  C   UNL     1      -7.283   0.159 130.089  0.00  0.00    +0.000 C 
BRANCH  19  20
ATOM     20  C   UNL     1      -7.634  -1.011 129.210  0.00  0.00    +0.000 A 
ATOM     21  C   UNL     1      -7.666  -0.856 127.815  0.00  0.00    +0.000 A 
ATOM     22  C   UNL     1      -8.053  -1.913 126.993  0.00  0.00    +0.000 A 
ATOM     23  C   UNL     1      -8.351  -3.154 127.549  0.00  0.00    +0.000 A 
ATOM     24  C   UNL     1      -8.321  -3.323 128.933  0.00  0.00    +0.000 A 
ATOM     25  C   UNL     1      -7.977  -2.253 129.762  0.00  0.00    +0.000 A 
ENDBRANCH  19  20
ENDBRANCH  17  19
ENDBRANCH  14  16
ENDBRANCH   1  14
TORSDOF 7
ENDMDL
MODEL 7
REMARK VINA RESULT:      -7.0      2.594      4.173
REMARK  Name = Nialamide
REMARK  7 active torsions:
REMARK  status: ('A' for Active; 'I' for Inactive)
REMARK    1  A    between atoms: C_2  and  C_3
REMARK    2  A    between atoms: C_3  and  C_4
REMARK    3  A    between atoms: C_4  and  N_5
REMARK    4  A    between atoms: N_5  and  N_6
REMARK    5  A    between atoms: C_7  and  C_9
REMARK    6  A    between atoms: N_15  and  C_16
REMARK    7  A    between atoms: C_16  and  C_17
REMARK                            x       y       z     vdW  Elec       q    Type
REMARK                         _______ _______ _______ _____ _____    ______ ____
ROOT
ATOM      1  C   UNL     1     -10.342   1.357 124.247  0.00  0.00    +0.000 C 
ENDROOT
BRANCH   1   2
ATOM      2  N   UNL     1      -9.861  -0.024 124.111  0.00  0.00    +0.000 NA
ATOM      3  H   UNL     1      -9.111  -0.085 123.415  0.00  0.00    +0.000 HD
BRANCH   2   4
ATOM      4  N   UNL     1      -9.368  -0.547 125.337  0.00  0.00    +0.000 N 
ATOM      5  C   UNL     1      -9.236  -1.924 125.506  0.00  0.00    +0.000 C 
ATOM      6  O   UNL     1      -9.464  -2.764 124.638  0.00  0.00    +0.000 OA
ATOM      7  H   UNL     1      -9.078   0.093 126.073  0.00  0.00    +0.000 HD
BRANCH   5   8
ATOM      8  C   UNL     1      -8.727  -2.366 126.835  0.00  0.00    +0.000 A 
ATOM      9  C   UNL     1      -8.957  -3.662 127.296  0.00  0.00    +0.000 A 
ATOM     10  C   UNL     1      -8.456  -4.005 128.542  0.00  0.00    +0.000 A 
ATOM     11  N   UNL     1      -7.772  -3.157 129.337  0.00  0.00    +0.000 NA
ATOM     12  C   UNL     1      -7.544  -1.915 128.857  0.00  0.00    +0.000 A 
ATOM     13  C   UNL     1      -7.983  -1.479 127.617  0.00  0.00    +0.000 A 
ENDBRANCH   5   8
ENDBRANCH   2   4
ENDBRANCH   1   2
BRANCH   1  14
ATOM     14  C   UNL     1      -9.186   2.342 124.455  0.00  0.00    +0.000 C 
BRANCH  14  16
ATOM     15  O   UNL     1      -8.656   2.902 122.161  0.00  0.00    +0.000 OA
ATOM     16  C   UNL     1      -8.299   2.398 123.225  0.00  0.00    +0.000 C 
ATOM     17  N   UNL     1      -7.047   1.865 123.320  0.00  0.00    +0.000 N 
ATOM     18  H   UNL     1      -6.492   1.939 122.475  0.00  0.00    +0.000 HD
BRANCH  17  19
ATOM     19  C   UNL     1      -6.462   1.220 124.475  0.00  0.00    +0.000 C 
BRANCH  19  20
ATOM     20  C   UNL     1      -6.208  -0.243 124.231  0.00  0.00    +0.000 A 
ATOM     21  C   UNL     1      -6.626  -0.837 123.031  0.00  0.00    +0.000 A 
ATOM     22  C   UNL     1      -6.456  -2.204 122.819  0.00  0.00    +0.000 A 
ATOM     23  C   UNL     1      -5.811  -2.982 123.777  0.00  0.00    +0.000 A 
ATOM     24  C   UNL     1      -5.389  -2.404 124.974  0.00  0.00    +0.000 A 
ATOM     25  C   UNL     1      -5.598  -1.043 125.207  0.00  0.00    +0.000 A 
ENDBRANCH  19  20
ENDBRANCH  17  19
ENDBRANCH  14  16
ENDBRANCH   1  14
TORSDOF 7
ENDMDL
MODEL 8
REMARK VINA RESULT:      -6.9      6.258      9.952
REMARK  Name = Nialamide
REMARK  7 active torsions:
REMARK  status: ('A' for Active; 'I' for Inactive)
REMARK    1  A    between atoms: C_2  and  C_3
REMARK    2  A    between atoms: C_3  and  C_4
REMARK    3  A    between atoms: C_4  and  N_5
REMARK    4  A    between atoms: N_5  and  N_6
REMARK    5  A    between atoms: C_7  and  C_9
REMARK    6  A    between atoms: N_15  and  C_16
REMARK    7  A    between atoms: C_16  and  C_17
REMARK                            x       y       z     vdW  Elec       q    Type
REMARK                         _______ _______ _______ _____ _____    ______ ____
ROOT
ATOM      1  C   UNL     1      -8.472   2.771 132.203  0.00  0.00    +0.000 C 
ENDROOT
BRANCH   1   2
ATOM      2  N   UNL     1      -9.671   3.399 132.774  0.00  0.00    +0.000 NA
ATOM      3  H   UNL     1      -9.452   3.873 133.656  0.00  0.00    +0.000 HD
BRANCH   2   4
ATOM      4  N   UNL     1     -10.253   4.350 131.894  0.00  0.00    +0.000 N 
ATOM      5  C   UNL     1     -10.055   5.713 132.109  0.00  0.00    +0.000 C 
ATOM      6  O   UNL     1      -9.349   6.190 132.997  0.00  0.00    +0.000 OA
ATOM      7  H   UNL     1     -10.780   4.028 131.087  0.00  0.00    +0.000 HD
BRANCH   5   8
ATOM      8  C   UNL     1     -10.723   6.625 131.139  0.00  0.00    +0.000 A 
ATOM      9  C   UNL     1     -10.025   7.154 130.054  0.00  0.00    +0.000 A 
ATOM     10  C   UNL     1     -10.708   7.997 129.192  0.00  0.00    +0.000 A 
ATOM     11  N   UNL     1     -12.002   8.344 129.348  0.00  0.00    +0.000 NA
ATOM     12  C   UNL     1     -12.660   7.800 130.394  0.00  0.00    +0.000 A 
ATOM     13  C   UNL     1     -12.076   6.931 131.301  0.00  0.00    +0.000 A 
ENDBRANCH   5   8
ENDBRANCH   2   4
ENDBRANCH   1   2
BRANCH   1  14
ATOM     14  C   UNL     1      -8.830   1.599 131.283  0.00  0.00    +0.000 C 
BRANCH  14  16
ATOM     15  O   UNL     1      -9.549   2.935 129.398  0.00  0.00    +0.000 OA
ATOM     16  C   UNL     1      -8.829   2.035 129.830  0.00  0.00    +0.000 C 
ATOM     17  N   UNL     1      -7.982   1.393 128.974  0.00  0.00    +0.000 N 
ATOM     18  H   UNL     1      -8.013   1.730 128.018  0.00  0.00    +0.000 HD
BRANCH  17  19
ATOM     19  C   UNL     1      -7.082   0.308 129.294  0.00  0.00    +0.000 C 
BRANCH  19  20
ATOM     20  C   UNL     1      -7.609  -1.018 128.814  0.00  0.00    +0.000 A 
ATOM     21  C   UNL     1      -7.860  -2.047 129.734  0.00  0.00    +0.000 A 
ATOM     22  C   UNL     1      -8.285  -3.301 129.297  0.00  0.00    +0.000 A 
ATOM     23  C   UNL     1      -8.525  -3.521 127.943  0.00  0.00    +0.000 A 
ATOM     24  C   UNL     1      -8.282  -2.506 127.019  0.00  0.00    +0.000 A 
ATOM     25  C   UNL     1      -7.813  -1.263 127.449  0.00  0.00    +0.000 A 
ENDBRANCH  19  20
ENDBRANCH  17  19
ENDBRANCH  14  16
ENDBRANCH   1  14
TORSDOF 7
ENDMDL
MODEL 9
REMARK VINA RESULT:      -6.9      2.077      3.001
REMARK  Name = Nialamide
REMARK  7 active torsions:
REMARK  status: ('A' for Active; 'I' for Inactive)
REMARK    1  A    between atoms: C_2  and  C_3
REMARK    2  A    between atoms: C_3  and  C_4
REMARK    3  A    between atoms: C_4  and  N_5
REMARK    4  A    between atoms: N_5  and  N_6
REMARK    5  A    between atoms: C_7  and  C_9
REMARK    6  A    between atoms: N_15  and  C_16
REMARK    7  A    between atoms: C_16  and  C_17
REMARK                            x       y       z     vdW  Elec       q    Type
REMARK                         _______ _______ _______ _____ _____    ______ ____
ROOT
ATOM      1  C   UNL     1      -5.893   2.112 126.009  0.00  0.00    +0.000 C 
ENDROOT
BRANCH   1   2
ATOM      2  N   UNL     1      -7.343   1.943 126.177  0.00  0.00    +0.000 NA
ATOM      3  H   UNL     1      -7.860   2.565 125.547  0.00  0.00    +0.000 HD
BRANCH   2   4
ATOM      4  N   UNL     1      -7.763   0.610 125.924  0.00  0.00    +0.000 N 
ATOM      5  C   UNL     1      -7.937   0.169 124.613  0.00  0.00    +0.000 C 
ATOM      6  O   UNL     1      -7.699   0.838 123.609  0.00  0.00    +0.000 OA
ATOM      7  H   UNL     1      -7.898  -0.028 126.704  0.00  0.00    +0.000 HD
BRANCH   5   8
ATOM      8  C   UNL     1      -8.397  -1.240 124.460  0.00  0.00    +0.000 A 
ATOM      9  C   UNL     1      -8.273  -2.153 125.506  0.00  0.00    +0.000 A 
ATOM     10  C   UNL     1      -8.719  -3.447 125.294  0.00  0.00    +0.000 A 
ATOM     11  N   UNL     1      -9.253  -3.877 124.132  0.00  0.00    +0.000 NA
ATOM     12  C   UNL     1      -9.382  -2.967 123.143  0.00  0.00    +0.000 A 
ATOM     13  C   UNL     1      -8.987  -1.645 123.260  0.00  0.00    +0.000 A 
ENDBRANCH   5   8
ENDBRANCH   2   4
ENDBRANCH   1   2
BRANCH   1  14
ATOM     14  C   UNL     1      -5.559   3.379 125.215  0.00  0.00    +0.000 C 
BRANCH  14  16
ATOM     15  O   UNL     1      -7.606   4.649 125.437  0.00  0.00    +0.000 OA
ATOM     16  C   UNL     1      -6.823   4.045 124.705  0.00  0.00    +0.000 C 
ATOM     17  N   UNL     1      -7.088   3.966 123.369  0.00  0.00    +0.000 N 
ATOM     18  H   UNL     1      -7.938   4.436 123.079  0.00  0.00    +0.000 HD
BRANCH  17  19
ATOM     19  C   UNL     1      -6.298   3.289 122.365  0.00  0.00    +0.000 C 
BRANCH  19  20
ATOM     20  C   UNL     1      -6.327   4.014 121.046  0.00  0.00    +0.000 A 
ATOM     21  C   UNL     1      -7.404   3.829 120.167  0.00  0.00    +0.000 A 
ATOM     22  C   UNL     1      -7.412   4.443 118.915  0.00  0.00    +0.000 A 
ATOM     23  C   UNL     1      -6.374   5.297 118.553  0.00  0.00    +0.000 A 
ATOM     24  C   UNL     1      -5.298   5.492 119.418  0.00  0.00    +0.000 A 
ATOM     25  C   UNL     1      -5.267   4.843 120.654  0.00  0.00    +0.000 A 
ENDBRANCH  19  20
ENDBRANCH  17  19
ENDBRANCH  14  16
ENDBRANCH   1  14
TORSDOF 7
ENDMDL
