MODEL 1
REMARK VINA RESULT:      -8.2      0.000      0.000
REMARK  Name = Nicardipine
REMARK  15 active torsions:
REMARK  status: ('A' for Active; 'I' for Inactive)
REMARK    1  A    between atoms: C_1  and  O_2
REMARK    2  A    between atoms: O_2  and  C_3
REMARK    3  A    between atoms: C_3  and  C_5
REMARK    4  A    between atoms: C_6  and  C_7
REMARK    5  A    between atoms: C_9  and  C_10
REMARK    6  A    between atoms: C_11  and  C_22
REMARK    7  A    between atoms: C_12  and  C_13
REMARK    8  A    between atoms: C_15  and  N_19
REMARK    9  A    between atoms: C_22  and  O_24
REMARK   10  A    between atoms: O_24  and  C_25
REMARK   11  A    between atoms: C_25  and  C_26
REMARK   12  A    between atoms: C_26  and  N_27
REMARK   13  A    between atoms: N_27  and  C_28
REMARK   14  A    between atoms: N_27  and  C_29
REMARK   15  A    between atoms: C_29  and  C_30
REMARK                            x       y       z     vdW  Elec       q    Type
REMARK                         _______ _______ _______ _____ _____    ______ ____
ROOT
ATOM      1  C   UNL     1      -9.098   2.052 123.956  0.00  0.00    +0.000 C 
ATOM      2  C   UNL     1      -8.429   2.910 123.153  0.00  0.00    +0.000 C 
ATOM      3  C   UNL     1      -8.733   3.198 121.709  0.00  0.00    +0.000 C 
ATOM      4  N   UNL     1      -7.381   3.650 123.679  0.00  0.00    +0.000 N 
ATOM      5  C   UNL     1      -7.166   3.851 125.034  0.00  0.00    +0.000 C 
ATOM      6  C   UNL     1      -6.239   4.994 125.375  0.00  0.00    +0.000 C 
ATOM      7  C   UNL     1      -7.782   3.046 125.939  0.00  0.00    +0.000 C 
ATOM      8  C   UNL     1      -8.657   1.880 125.424  0.00  0.00    +0.000 C 
ATOM      9  H   UNL     1      -6.850   4.231 123.034  0.00  0.00    +0.000 HD
ENDROOT
BRANCH   8  10
ATOM     10  C   UNL     1      -7.862   0.572 125.549  0.00  0.00    +0.000 A 
ATOM     11  C   UNL     1      -8.410  -0.548 126.183  0.00  0.00    +0.000 A 
ATOM     12  C   UNL     1      -7.584  -1.648 126.457  0.00  0.00    +0.000 A 
ATOM     13  C   UNL     1      -6.266  -1.704 125.981  0.00  0.00    +0.000 A 
ATOM     14  C   UNL     1      -5.737  -0.612 125.304  0.00  0.00    +0.000 A 
ATOM     15  C   UNL     1      -6.522   0.518 125.107  0.00  0.00    +0.000 A 
BRANCH  12  16
ATOM     16  N   UNL     1      -8.055  -2.692 127.372  0.00  0.00    +0.000 N 
ATOM     17  O   UNL     1      -8.969  -3.433 126.982  0.00  0.00    +0.000 OA
ATOM     18  O   UNL     1      -7.543  -2.743 128.500  0.00  0.00    +0.000 OA
ENDBRANCH  12  16
ENDBRANCH   8  10
BRANCH   1  19
ATOM     19  C   UNL     1     -10.286   1.271 123.526  0.00  0.00    +0.000 C 
ATOM     20  O   UNL     1     -11.352   1.295 124.136  0.00  0.00    +0.000 OA
BRANCH  19  22
ATOM     21  C   UNL     1      -9.572  -0.812 122.670  0.00  0.00    +0.000 C 
ATOM     22  O   UNL     1     -10.037   0.523 122.421  0.00  0.00    +0.000 OA
ENDBRANCH  19  22
ENDBRANCH   1  19
BRANCH   7  23
ATOM     23  C   UNL     1      -7.570   3.264 127.402  0.00  0.00    +0.000 C 
ATOM     24  O   UNL     1      -6.652   2.756 128.040  0.00  0.00    +0.000 OA
BRANCH  23  25
ATOM     25  O   UNL     1      -8.491   4.096 127.964  0.00  0.00    +0.000 OA
BRANCH  25  26
ATOM     26  C   UNL     1      -8.527   3.965 129.401  0.00  0.00    +0.000 C 
BRANCH  26  27
ATOM     27  C   UNL     1      -8.316   5.321 130.096  0.00  0.00    +0.000 C 
BRANCH  27  28
ATOM     28  N   UNL     1      -9.573   5.880 130.637  0.00  0.00    +0.000 NA
ATOM     29  C   UNL     1      -9.504   6.016 132.100  0.00  0.00    +0.000 C 
BRANCH  28  30
ATOM     30  C   UNL     1      -9.869   7.187 130.011  0.00  0.00    +0.000 C 
BRANCH  30  31
ATOM     31  C   UNL     1     -10.978   7.131 128.974  0.00  0.00    +0.000 A 
ATOM     32  C   UNL     1     -10.716   7.276 127.598  0.00  0.00    +0.000 A 
ATOM     33  C   UNL     1     -11.738   7.238 126.659  0.00  0.00    +0.000 A 
ATOM     34  C   UNL     1     -13.048   7.058 127.083  0.00  0.00    +0.000 A 
ATOM     35  C   UNL     1     -13.335   6.938 128.444  0.00  0.00    +0.000 A 
ATOM     36  C   UNL     1     -12.306   6.972 129.387  0.00  0.00    +0.000 A 
ENDBRANCH  30  31
ENDBRANCH  28  30
ENDBRANCH  27  28
ENDBRANCH  26  27
ENDBRANCH  25  26
ENDBRANCH  23  25
ENDBRANCH   7  23
TORSDOF 11
ENDMDL
MODEL 2
REMARK VINA RESULT:      -7.8      4.095      6.457
REMARK  Name = Nicardipine
REMARK  15 active torsions:
REMARK  status: ('A' for Active; 'I' for Inactive)
REMARK    1  A    between atoms: C_1  and  O_2
REMARK    2  A    between atoms: O_2  and  C_3
REMARK    3  A    between atoms: C_3  and  C_5
REMARK    4  A    between atoms: C_6  and  C_7
REMARK    5  A    between atoms: C_9  and  C_10
REMARK    6  A    between atoms: C_11  and  C_22
REMARK    7  A    between atoms: C_12  and  C_13
REMARK    8  A    between atoms: C_15  and  N_19
REMARK    9  A    between atoms: C_22  and  O_24
REMARK   10  A    between atoms: O_24  and  C_25
REMARK   11  A    between atoms: C_25  and  C_26
REMARK   12  A    between atoms: C_26  and  N_27
REMARK   13  A    between atoms: N_27  and  C_28
REMARK   14  A    between atoms: N_27  and  C_29
REMARK   15  A    between atoms: C_29  and  C_30
REMARK                            x       y       z     vdW  Elec       q    Type
REMARK                         _______ _______ _______ _____ _____    ______ ____
ROOT
ATOM      1  C   UNL     1      -6.596  -2.241 124.956  0.00  0.00    +0.000 C 
ATOM      2  C   UNL     1      -7.787  -2.853 125.153  0.00  0.00    +0.000 C 
ATOM      3  C   UNL     1      -8.602  -3.569 124.111  0.00  0.00    +0.000 C 
ATOM      4  N   UNL     1      -8.328  -2.885 126.429  0.00  0.00    +0.000 N 
ATOM      5  C   UNL     1      -7.609  -2.650 127.591  0.00  0.00    +0.000 C 
ATOM      6  C   UNL     1      -8.269  -3.126 128.864  0.00  0.00    +0.000 C 
ATOM      7  C   UNL     1      -6.398  -2.036 127.520  0.00  0.00    +0.000 C 
ATOM      8  C   UNL     1      -5.887  -1.555 126.142  0.00  0.00    +0.000 C 
ATOM      9  H   UNL     1      -9.257  -3.287 126.533  0.00  0.00    +0.000 HD
ENDROOT
BRANCH   8  10
ATOM     10  C   UNL     1      -6.103  -0.039 126.035  0.00  0.00    +0.000 A 
ATOM     11  C   UNL     1      -7.368   0.493 125.763  0.00  0.00    +0.000 A 
ATOM     12  C   UNL     1      -7.484   1.861 125.473  0.00  0.00    +0.000 A 
ATOM     13  C   UNL     1      -6.386   2.725 125.593  0.00  0.00    +0.000 A 
ATOM     14  C   UNL     1      -5.138   2.205 125.915  0.00  0.00    +0.000 A 
ATOM     15  C   UNL     1      -4.998   0.837 126.117  0.00  0.00    +0.000 A 
BRANCH  12  16
ATOM     16  N   UNL     1      -8.733   2.372 124.901  0.00  0.00    +0.000 N 
ATOM     17  O   UNL     1      -9.767   1.715 125.089  0.00  0.00    +0.000 OA
ATOM     18  O   UNL     1      -8.674   3.408 124.221  0.00  0.00    +0.000 OA
ENDBRANCH  12  16
ENDBRANCH   8  10
BRANCH   1  19
ATOM     19  C   UNL     1      -5.884  -2.216 123.653  0.00  0.00    +0.000 C 
ATOM     20  O   UNL     1      -6.378  -1.736 122.637  0.00  0.00    +0.000 OA
BRANCH  19  22
ATOM     21  C   UNL     1      -4.666  -4.241 123.658  0.00  0.00    +0.000 C 
ATOM     22  O   UNL     1      -4.664  -2.806 123.724  0.00  0.00    +0.000 OA
ENDBRANCH  19  22
ENDBRANCH   1  19
BRANCH   7  23
ATOM     23  C   UNL     1      -5.608  -1.791 128.764  0.00  0.00    +0.000 C 
ATOM     24  O   UNL     1      -4.550  -2.359 129.021  0.00  0.00    +0.000 OA
BRANCH  23  25
ATOM     25  O   UNL     1      -6.168  -0.861 129.587  0.00  0.00    +0.000 OA
BRANCH  25  26
ATOM     26  C   UNL     1      -5.354   0.327 129.688  0.00  0.00    +0.000 C 
BRANCH  26  27
ATOM     27  C   UNL     1      -6.193   1.603 129.503  0.00  0.00    +0.000 C 
BRANCH  27  28
ATOM     28  N   UNL     1      -5.674   2.740 130.292  0.00  0.00    +0.000 NA
ATOM     29  C   UNL     1      -6.257   2.756 131.642  0.00  0.00    +0.000 C 
BRANCH  28  30
ATOM     30  C   UNL     1      -4.198   2.686 130.368  0.00  0.00    +0.000 C 
BRANCH  30  31
ATOM     31  C   UNL     1      -3.510   3.907 129.781  0.00  0.00    +0.000 A 
ATOM     32  C   UNL     1      -3.221   4.009 128.407  0.00  0.00    +0.000 A 
ATOM     33  C   UNL     1      -2.579   5.123 127.882  0.00  0.00    +0.000 A 
ATOM     34  C   UNL     1      -2.208   6.158 128.730  0.00  0.00    +0.000 A 
ATOM     35  C   UNL     1      -2.460   6.068 130.100  0.00  0.00    +0.000 A 
ATOM     36  C   UNL     1      -3.110   4.950 130.626  0.00  0.00    +0.000 A 
ENDBRANCH  30  31
ENDBRANCH  28  30
ENDBRANCH  27  28
ENDBRANCH  26  27
ENDBRANCH  25  26
ENDBRANCH  23  25
ENDBRANCH   7  23
TORSDOF 11
ENDMDL
MODEL 3
REMARK VINA RESULT:      -7.8      3.167      5.901
REMARK  Name = Nicardipine
REMARK  15 active torsions:
REMARK  status: ('A' for Active; 'I' for Inactive)
REMARK    1  A    between atoms: C_1  and  O_2
REMARK    2  A    between atoms: O_2  and  C_3
REMARK    3  A    between atoms: C_3  and  C_5
REMARK    4  A    between atoms: C_6  and  C_7
REMARK    5  A    between atoms: C_9  and  C_10
REMARK    6  A    between atoms: C_11  and  C_22
REMARK    7  A    between atoms: C_12  and  C_13
REMARK    8  A    between atoms: C_15  and  N_19
REMARK    9  A    between atoms: C_22  and  O_24
REMARK   10  A    between atoms: O_24  and  C_25
REMARK   11  A    between atoms: C_25  and  C_26
REMARK   12  A    between atoms: C_26  and  N_27
REMARK   13  A    between atoms: N_27  and  C_28
REMARK   14  A    between atoms: N_27  and  C_29
REMARK   15  A    between atoms: C_29  and  C_30
REMARK                            x       y       z     vdW  Elec       q    Type
REMARK                         _______ _______ _______ _____ _____    ______ ____
ROOT
ATOM      1  C   UNL     1      -6.261  -1.982 130.513  0.00  0.00    +0.000 C 
ATOM      2  C   UNL     1      -6.919  -2.020 131.695  0.00  0.00    +0.000 C 
ATOM      3  C   UNL     1      -6.547  -2.849 132.894  0.00  0.00    +0.000 C 
ATOM      4  N   UNL     1      -8.023  -1.202 131.882  0.00  0.00    +0.000 N 
ATOM      5  C   UNL     1      -8.320  -0.096 131.099  0.00  0.00    +0.000 C 
ATOM      6  C   UNL     1      -9.308   0.873 131.704  0.00  0.00    +0.000 C 
ATOM      7  C   UNL     1      -7.723   0.049 129.886  0.00  0.00    +0.000 C 
ATOM      8  C   UNL     1      -6.776  -1.066 129.385  0.00  0.00    +0.000 C 
ATOM      9  H   UNL     1      -8.540  -1.306 132.752  0.00  0.00    +0.000 HD
ENDROOT
BRANCH   8  10
ATOM     10  C   UNL     1      -7.524  -1.925 128.355  0.00  0.00    +0.000 A 
ATOM     11  C   UNL     1      -7.614  -1.532 127.016  0.00  0.00    +0.000 A 
ATOM     12  C   UNL     1      -8.472  -2.233 126.156  0.00  0.00    +0.000 A 
ATOM     13  C   UNL     1      -9.127  -3.401 126.576  0.00  0.00    +0.000 A 
ATOM     14  C   UNL     1      -8.996  -3.822 127.893  0.00  0.00    +0.000 A 
ATOM     15  C   UNL     1      -8.217  -3.082 128.775  0.00  0.00    +0.000 A 
BRANCH  12  16
ATOM     16  N   UNL     1      -8.804  -1.664 124.847  0.00  0.00    +0.000 N 
ATOM     17  O   UNL     1      -8.276  -0.586 124.535  0.00  0.00    +0.000 OA
ATOM     18  O   UNL     1      -9.630  -2.269 124.147  0.00  0.00    +0.000 OA
ENDBRANCH  12  16
ENDBRANCH   8  10
BRANCH   1  19
ATOM     19  C   UNL     1      -5.022  -2.749 130.231  0.00  0.00    +0.000 C 
ATOM     20  O   UNL     1      -5.020  -3.965 130.054  0.00  0.00    +0.000 OA
BRANCH  19  22
ATOM     21  C   UNL     1      -3.225  -1.860 131.481  0.00  0.00    +0.000 C 
ATOM     22  O   UNL     1      -3.918  -1.960 130.227  0.00  0.00    +0.000 OA
ENDBRANCH  19  22
ENDBRANCH   1  19
BRANCH   7  23
ATOM     23  C   UNL     1      -8.024   1.244 129.041  0.00  0.00    +0.000 C 
ATOM     24  O   UNL     1      -8.945   1.291 128.231  0.00  0.00    +0.000 OA
BRANCH  23  25
ATOM     25  O   UNL     1      -7.181   2.291 129.266  0.00  0.00    +0.000 OA
BRANCH  25  26
ATOM     26  C   UNL     1      -7.775   3.550 128.885  0.00  0.00    +0.000 C 
BRANCH  26  27
ATOM     27  C   UNL     1      -8.247   4.345 130.114  0.00  0.00    +0.000 C 
BRANCH  27  28
ATOM     28  N   UNL     1      -9.608   4.895 129.944  0.00  0.00    +0.000 NA
ATOM     29  C   UNL     1     -10.620   3.981 130.494  0.00  0.00    +0.000 C 
BRANCH  28  30
ATOM     30  C   UNL     1      -9.712   6.225 130.582  0.00  0.00    +0.000 C 
BRANCH  30  31
ATOM     31  C   UNL     1     -10.692   7.160 129.892  0.00  0.00    +0.000 A 
ATOM     32  C   UNL     1     -11.916   7.522 130.484  0.00  0.00    +0.000 A 
ATOM     33  C   UNL     1     -12.811   8.366 129.839  0.00  0.00    +0.000 A 
ATOM     34  C   UNL     1     -12.496   8.859 128.580  0.00  0.00    +0.000 A 
ATOM     35  C   UNL     1     -11.300   8.492 127.961  0.00  0.00    +0.000 A 
ATOM     36  C   UNL     1     -10.399   7.648 128.612  0.00  0.00    +0.000 A 
ENDBRANCH  30  31
ENDBRANCH  28  30
ENDBRANCH  27  28
ENDBRANCH  26  27
ENDBRANCH  25  26
ENDBRANCH  23  25
ENDBRANCH   7  23
TORSDOF 11
ENDMDL
MODEL 4
REMARK VINA RESULT:      -7.8      1.974      2.345
REMARK  Name = Nicardipine
REMARK  15 active torsions:
REMARK  status: ('A' for Active; 'I' for Inactive)
REMARK    1  A    between atoms: C_1  and  O_2
REMARK    2  A    between atoms: O_2  and  C_3
REMARK    3  A    between atoms: C_3  and  C_5
REMARK    4  A    between atoms: C_6  and  C_7
REMARK    5  A    between atoms: C_9  and  C_10
REMARK    6  A    between atoms: C_11  and  C_22
REMARK    7  A    between atoms: C_12  and  C_13
REMARK    8  A    between atoms: C_15  and  N_19
REMARK    9  A    between atoms: C_22  and  O_24
REMARK   10  A    between atoms: O_24  and  C_25
REMARK   11  A    between atoms: C_25  and  C_26
REMARK   12  A    between atoms: C_26  and  N_27
REMARK   13  A    between atoms: N_27  and  C_28
REMARK   14  A    between atoms: N_27  and  C_29
REMARK   15  A    between atoms: C_29  and  C_30
REMARK                            x       y       z     vdW  Elec       q    Type
REMARK                         _______ _______ _______ _____ _____    ______ ____
ROOT
ATOM      1  C   UNL     1      -8.694   1.591 124.252  0.00  0.00    +0.000 C 
ATOM      2  C   UNL     1      -7.860   2.378 123.532  0.00  0.00    +0.000 C 
ATOM      3  C   UNL     1      -8.172   3.034 122.216  0.00  0.00    +0.000 C 
ATOM      4  N   UNL     1      -6.602   2.669 124.037  0.00  0.00    +0.000 N 
ATOM      5  C   UNL     1      -6.235   2.514 125.365  0.00  0.00    +0.000 C 
ATOM      6  C   UNL     1      -4.986   3.255 125.778  0.00  0.00    +0.000 C 
ATOM      7  C   UNL     1      -6.994   1.741 126.186  0.00  0.00    +0.000 C 
ATOM      8  C   UNL     1      -8.215   1.000 125.592  0.00  0.00    +0.000 C 
ATOM      9  H   UNL     1      -5.972   3.201 123.441  0.00  0.00    +0.000 HD
ENDROOT
BRANCH   8  10
ATOM     10  C   UNL     1      -7.841  -0.474 125.376  0.00  0.00    +0.000 A 
ATOM     11  C   UNL     1      -6.761  -0.833 124.565  0.00  0.00    +0.000 A 
ATOM     12  C   UNL     1      -6.578  -2.183 124.230  0.00  0.00    +0.000 A 
ATOM     13  C   UNL     1      -7.368  -3.188 124.808  0.00  0.00    +0.000 A 
ATOM     14  C   UNL     1      -8.410  -2.836 125.657  0.00  0.00    +0.000 A 
ATOM     15  C   UNL     1      -8.652  -1.493 125.922  0.00  0.00    +0.000 A 
BRANCH  12  16
ATOM     16  N   UNL     1      -5.646  -2.540 123.156  0.00  0.00    +0.000 N 
ATOM     17  O   UNL     1      -5.896  -2.129 122.014  0.00  0.00    +0.000 OA
ATOM     18  O   UNL     1      -4.687  -3.271 123.445  0.00  0.00    +0.000 OA
ENDBRANCH  12  16
ENDBRANCH   8  10
BRANCH   1  19
ATOM     19  C   UNL     1     -10.090   1.281 123.851  0.00  0.00    +0.000 C 
ATOM     20  O   UNL     1     -11.046   1.430 124.608  0.00  0.00    +0.000 OA
BRANCH  19  22
ATOM     21  C   UNL     1      -9.887  -0.609 122.447  0.00  0.00    +0.000 C 
ATOM     22  O   UNL     1     -10.165   0.793 122.587  0.00  0.00    +0.000 OA
ENDBRANCH  19  22
ENDBRANCH   1  19
BRANCH   7  23
ATOM     23  C   UNL     1      -6.617   1.580 127.623  0.00  0.00    +0.000 C 
ATOM     24  O   UNL     1      -6.145   0.548 128.091  0.00  0.00    +0.000 OA
BRANCH  23  25
ATOM     25  O   UNL     1      -6.836   2.699 128.369  0.00  0.00    +0.000 OA
BRANCH  25  26
ATOM     26  C   UNL     1      -8.230   2.852 128.712  0.00  0.00    +0.000 C 
BRANCH  26  27
ATOM     27  C   UNL     1      -8.549   4.294 129.140  0.00  0.00    +0.000 C 
BRANCH  27  28
ATOM     28  N   UNL     1      -9.930   4.440 129.649  0.00  0.00    +0.000 NA
ATOM     29  C   UNL     1     -10.251   3.380 130.616  0.00  0.00    +0.000 C 
BRANCH  28  30
ATOM     30  C   UNL     1     -10.117   5.772 130.262  0.00  0.00    +0.000 C 
BRANCH  30  31
ATOM     31  C   UNL     1     -11.116   6.650 129.527  0.00  0.00    +0.000 A 
ATOM     32  C   UNL     1     -10.789   7.950 129.099  0.00  0.00    +0.000 A 
ATOM     33  C   UNL     1     -11.714   8.750 128.440  0.00  0.00    +0.000 A 
ATOM     34  C   UNL     1     -12.991   8.261 128.203  0.00  0.00    +0.000 A 
ATOM     35  C   UNL     1     -13.347   6.985 128.642  0.00  0.00    +0.000 A 
ATOM     36  C   UNL     1     -12.415   6.179 129.300  0.00  0.00    +0.000 A 
ENDBRANCH  30  31
ENDBRANCH  28  30
ENDBRANCH  27  28
ENDBRANCH  26  27
ENDBRANCH  25  26
ENDBRANCH  23  25
ENDBRANCH   7  23
TORSDOF 11
ENDMDL
MODEL 5
REMARK VINA RESULT:      -7.7      4.776      8.528
REMARK  Name = Nicardipine
REMARK  15 active torsions:
REMARK  status: ('A' for Active; 'I' for Inactive)
REMARK    1  A    between atoms: C_1  and  O_2
REMARK    2  A    between atoms: O_2  and  C_3
REMARK    3  A    between atoms: C_3  and  C_5
REMARK    4  A    between atoms: C_6  and  C_7
REMARK    5  A    between atoms: C_9  and  C_10
REMARK    6  A    between atoms: C_11  and  C_22
REMARK    7  A    between atoms: C_12  and  C_13
REMARK    8  A    between atoms: C_15  and  N_19
REMARK    9  A    between atoms: C_22  and  O_24
REMARK   10  A    between atoms: O_24  and  C_25
REMARK   11  A    between atoms: C_25  and  C_26
REMARK   12  A    between atoms: C_26  and  N_27
REMARK   13  A    between atoms: N_27  and  C_28
REMARK   14  A    between atoms: N_27  and  C_29
REMARK   15  A    between atoms: C_29  and  C_30
REMARK                            x       y       z     vdW  Elec       q    Type
REMARK                         _______ _______ _______ _____ _____    ______ ____
ROOT
ATOM      1  C   UNL     1      -6.774  -2.302 124.892  0.00  0.00    +0.000 C 
ATOM      2  C   UNL     1      -7.983  -2.891 125.044  0.00  0.00    +0.000 C 
ATOM      3  C   UNL     1      -8.803  -3.530 123.958  0.00  0.00    +0.000 C 
ATOM      4  N   UNL     1      -8.539  -2.976 126.311  0.00  0.00    +0.000 N 
ATOM      5  C   UNL     1      -7.828  -2.821 127.491  0.00  0.00    +0.000 C 
ATOM      6  C   UNL     1      -8.515  -3.346 128.730  0.00  0.00    +0.000 C 
ATOM      7  C   UNL     1      -6.600  -2.237 127.465  0.00  0.00    +0.000 C 
ATOM      8  C   UNL     1      -6.061  -1.699 126.119  0.00  0.00    +0.000 C 
ATOM      9  H   UNL     1      -9.479  -3.358 126.384  0.00  0.00    +0.000 HD
ENDROOT
BRANCH   8  10
ATOM     10  C   UNL     1      -6.236  -0.173 126.091  0.00  0.00    +0.000 A 
ATOM     11  C   UNL     1      -7.493   0.406 125.887  0.00  0.00    +0.000 A 
ATOM     12  C   UNL     1      -7.579   1.788 125.665  0.00  0.00    +0.000 A 
ATOM     13  C   UNL     1      -6.453   2.615 125.787  0.00  0.00    +0.000 A 
ATOM     14  C   UNL     1      -5.211   2.046 126.042  0.00  0.00    +0.000 A 
ATOM     15  C   UNL     1      -5.105   0.667 126.175  0.00  0.00    +0.000 A 
BRANCH  12  16
ATOM     16  N   UNL     1      -8.831   2.360 125.159  0.00  0.00    +0.000 N 
ATOM     17  O   UNL     1      -8.851   3.574 124.907  0.00  0.00    +0.000 OA
ATOM     18  O   UNL     1      -9.810   1.606 125.058  0.00  0.00    +0.000 OA
ENDBRANCH  12  16
ENDBRANCH   8  10
BRANCH   1  19
ATOM     19  C   UNL     1      -6.046  -2.227 123.600  0.00  0.00    +0.000 C 
ATOM     20  O   UNL     1      -6.546  -1.751 122.584  0.00  0.00    +0.000 OA
BRANCH  19  22
ATOM     21  C   UNL     1      -4.756  -4.205 123.704  0.00  0.00    +0.000 C 
ATOM     22  O   UNL     1      -4.804  -2.770 123.677  0.00  0.00    +0.000 OA
ENDBRANCH  19  22
ENDBRANCH   1  19
BRANCH   7  23
ATOM     23  C   UNL     1      -5.818  -2.079 128.728  0.00  0.00    +0.000 C 
ATOM     24  O   UNL     1      -6.006  -1.174 129.537  0.00  0.00    +0.000 OA
BRANCH  23  25
ATOM     25  O   UNL     1      -4.879  -3.049 128.907  0.00  0.00    +0.000 OA
BRANCH  25  26
ATOM     26  C   UNL     1      -5.176  -3.880 130.050  0.00  0.00    +0.000 C 
BRANCH  26  27
ATOM     27  C   UNL     1      -4.108  -3.734 131.147  0.00  0.00    +0.000 C 
BRANCH  27  28
ATOM     28  N   UNL     1      -4.651  -3.145 132.389  0.00  0.00    +0.000 NA
ATOM     29  C   UNL     1      -4.180  -1.763 132.567  0.00  0.00    +0.000 C 
BRANCH  28  30
ATOM     30  C   UNL     1      -6.128  -3.190 132.380  0.00  0.00    +0.000 C 
BRANCH  30  31
ATOM     31  C   UNL     1      -6.723  -3.987 133.529  0.00  0.00    +0.000 A 
ATOM     32  C   UNL     1      -7.929  -3.610 134.148  0.00  0.00    +0.000 A 
ATOM     33  C   UNL     1      -8.458  -4.337 135.208  0.00  0.00    +0.000 A 
ATOM     34  C   UNL     1      -7.780  -5.456 135.672  0.00  0.00    +0.000 A 
ATOM     35  C   UNL     1      -6.568  -5.834 135.091  0.00  0.00    +0.000 A 
ATOM     36  C   UNL     1      -6.040  -5.105 134.023  0.00  0.00    +0.000 A 
ENDBRANCH  30  31
ENDBRANCH  28  30
ENDBRANCH  27  28
ENDBRANCH  26  27
ENDBRANCH  25  26
ENDBRANCH  23  25
ENDBRANCH   7  23
TORSDOF 11
ENDMDL
MODEL 6
REMARK VINA RESULT:      -7.7      4.744      7.907
REMARK  Name = Nicardipine
REMARK  15 active torsions:
REMARK  status: ('A' for Active; 'I' for Inactive)
REMARK    1  A    between atoms: C_1  and  O_2
REMARK    2  A    between atoms: O_2  and  C_3
REMARK    3  A    between atoms: C_3  and  C_5
REMARK    4  A    between atoms: C_6  and  C_7
REMARK    5  A    between atoms: C_9  and  C_10
REMARK    6  A    between atoms: C_11  and  C_22
REMARK    7  A    between atoms: C_12  and  C_13
REMARK    8  A    between atoms: C_15  and  N_19
REMARK    9  A    between atoms: C_22  and  O_24
REMARK   10  A    between atoms: O_24  and  C_25
REMARK   11  A    between atoms: C_25  and  C_26
REMARK   12  A    between atoms: C_26  and  N_27
REMARK   13  A    between atoms: N_27  and  C_28
REMARK   14  A    between atoms: N_27  and  C_29
REMARK   15  A    between atoms: C_29  and  C_30
REMARK                            x       y       z     vdW  Elec       q    Type
REMARK                         _______ _______ _______ _____ _____    ______ ____
ROOT
ATOM      1  C   UNL     1      -9.690   5.358 129.567  0.00  0.00    +0.000 C 
ATOM      2  C   UNL     1     -10.660   5.172 130.492  0.00  0.00    +0.000 C 
ATOM      3  C   UNL     1     -11.896   6.010 130.665  0.00  0.00    +0.000 C 
ATOM      4  N   UNL     1     -10.570   4.093 131.358  0.00  0.00    +0.000 N 
ATOM      5  C   UNL     1      -9.760   2.987 131.150  0.00  0.00    +0.000 C 
ATOM      6  C   UNL     1     -10.107   1.771 131.977  0.00  0.00    +0.000 C 
ATOM      7  C   UNL     1      -8.747   3.056 130.247  0.00  0.00    +0.000 C 
ATOM      8  C   UNL     1      -8.485   4.397 129.522  0.00  0.00    +0.000 C 
ATOM      9  H   UNL     1     -11.274   4.021 132.089  0.00  0.00    +0.000 HD
ENDROOT
BRANCH   8  10
ATOM     10  C   UNL     1      -7.280   5.086 130.177  0.00  0.00    +0.000 A 
ATOM     11  C   UNL     1      -5.984   4.895 129.687  0.00  0.00    +0.000 A 
ATOM     12  C   UNL     1      -4.896   5.374 130.431  0.00  0.00    +0.000 A 
ATOM     13  C   UNL     1      -5.088   6.162 131.575  0.00  0.00    +0.000 A 
ATOM     14  C   UNL     1      -6.378   6.398 132.034  0.00  0.00    +0.000 A 
ATOM     15  C   UNL     1      -7.458   5.851 131.351  0.00  0.00    +0.000 A 
BRANCH  12  16
ATOM     16  N   UNL     1      -3.540   4.929 130.093  0.00  0.00    +0.000 N 
ATOM     17  O   UNL     1      -3.411   3.808 129.581  0.00  0.00    +0.000 OA
ATOM     18  O   UNL     1      -2.598   5.681 130.383  0.00  0.00    +0.000 OA
ENDBRANCH  12  16
ENDBRANCH   8  10
BRANCH   1  19
ATOM     19  C   UNL     1      -9.723   6.428 128.537  0.00  0.00    +0.000 C 
ATOM     20  O   UNL     1      -9.735   6.188 127.332  0.00  0.00    +0.000 OA
BRANCH  19  22
ATOM     21  C   UNL     1     -10.509   8.652 128.415  0.00  0.00    +0.000 C 
ATOM     22  O   UNL     1      -9.704   7.669 129.085  0.00  0.00    +0.000 OA
ENDBRANCH  19  22
ENDBRANCH   1  19
BRANCH   7  23
ATOM     23  C   UNL     1      -7.877   1.865 130.004  0.00  0.00    +0.000 C 
ATOM     24  O   UNL     1      -8.087   1.038 129.121  0.00  0.00    +0.000 OA
BRANCH  23  25
ATOM     25  O   UNL     1      -6.813   1.790 130.852  0.00  0.00    +0.000 OA
BRANCH  25  26
ATOM     26  C   UNL     1      -6.389   0.426 131.062  0.00  0.00    +0.000 C 
BRANCH  26  27
ATOM     27  C   UNL     1      -5.368   0.324 132.208  0.00  0.00    +0.000 C 
BRANCH  27  28
ATOM     28  N   UNL     1      -5.889   0.869 133.479  0.00  0.00    +0.000 NA
ATOM     29  C   UNL     1      -5.740  -0.104 134.571  0.00  0.00    +0.000 C 
BRANCH  28  30
ATOM     30  C   UNL     1      -5.205   2.135 133.819  0.00  0.00    +0.000 C 
BRANCH  30  31
ATOM     31  C   UNL     1      -6.140   3.218 134.329  0.00  0.00    +0.000 A 
ATOM     32  C   UNL     1      -7.510   3.229 134.008  0.00  0.00    +0.000 A 
ATOM     33  C   UNL     1      -8.354   4.231 134.468  0.00  0.00    +0.000 A 
ATOM     34  C   UNL     1      -7.837   5.250 135.258  0.00  0.00    +0.000 A 
ATOM     35  C   UNL     1      -6.476   5.275 135.567  0.00  0.00    +0.000 A 
ATOM     36  C   UNL     1      -5.629   4.264 135.108  0.00  0.00    +0.000 A 
ENDBRANCH  30  31
ENDBRANCH  28  30
ENDBRANCH  27  28
ENDBRANCH  26  27
ENDBRANCH  25  26
ENDBRANCH  23  25
ENDBRANCH   7  23
TORSDOF 11
ENDMDL
MODEL 7
REMARK VINA RESULT:      -7.7      3.696      7.576
REMARK  Name = Nicardipine
REMARK  15 active torsions:
REMARK  status: ('A' for Active; 'I' for Inactive)
REMARK    1  A    between atoms: C_1  and  O_2
REMARK    2  A    between atoms: O_2  and  C_3
REMARK    3  A    between atoms: C_3  and  C_5
REMARK    4  A    between atoms: C_6  and  C_7
REMARK    5  A    between atoms: C_9  and  C_10
REMARK    6  A    between atoms: C_11  and  C_22
REMARK    7  A    between atoms: C_12  and  C_13
REMARK    8  A    between atoms: C_15  and  N_19
REMARK    9  A    between atoms: C_22  and  O_24
REMARK   10  A    between atoms: O_24  and  C_25
REMARK   11  A    between atoms: C_25  and  C_26
REMARK   12  A    between atoms: C_26  and  N_27
REMARK   13  A    between atoms: N_27  and  C_28
REMARK   14  A    between atoms: N_27  and  C_29
REMARK   15  A    between atoms: C_29  and  C_30
REMARK                            x       y       z     vdW  Elec       q    Type
REMARK                         _______ _______ _______ _____ _____    ______ ____
ROOT
ATOM      1  C   UNL     1      -5.639   4.020 128.164  0.00  0.00    +0.000 C 
ATOM      2  C   UNL     1      -6.060   3.834 126.892  0.00  0.00    +0.000 C 
ATOM      3  C   UNL     1      -5.382   4.338 125.648  0.00  0.00    +0.000 C 
ATOM      4  N   UNL     1      -7.198   3.077 126.660  0.00  0.00    +0.000 N 
ATOM      5  C   UNL     1      -7.759   2.204 127.580  0.00  0.00    +0.000 C 
ATOM      6  C   UNL     1      -8.725   1.196 127.004  0.00  0.00    +0.000 C 
ATOM      7  C   UNL     1      -7.415   2.298 128.892  0.00  0.00    +0.000 C 
ATOM      8  C   UNL     1      -6.454   3.426 129.331  0.00  0.00    +0.000 C 
ATOM      9  H   UNL     1      -7.532   3.016 125.701  0.00  0.00    +0.000 HD
ENDROOT
BRANCH   8  10
ATOM     10  C   UNL     1      -7.273   4.550 129.982  0.00  0.00    +0.000 A 
ATOM     11  C   UNL     1      -8.480   4.980 129.422  0.00  0.00    +0.000 A 
ATOM     12  C   UNL     1      -9.092   6.137 129.927  0.00  0.00    +0.000 A 
ATOM     13  C   UNL     1      -8.595   6.783 131.068  0.00  0.00    +0.000 A 
ATOM     14  C   UNL     1      -7.424   6.324 131.658  0.00  0.00    +0.000 A 
ATOM     15  C   UNL     1      -6.764   5.231 131.109  0.00  0.00    +0.000 A 
BRANCH  12  16
ATOM     16  N   UNL     1     -10.181   6.765 129.172  0.00  0.00    +0.000 N 
ATOM     17  O   UNL     1     -10.019   7.932 128.785  0.00  0.00    +0.000 OA
ATOM     18  O   UNL     1     -11.219   6.108 129.004  0.00  0.00    +0.000 OA
ENDBRANCH  12  16
ENDBRANCH   8  10
BRANCH   1  19
ATOM     19  C   UNL     1      -4.392   4.741 128.526  0.00  0.00    +0.000 C 
ATOM     20  O   UNL     1      -3.376   4.162 128.901  0.00  0.00    +0.000 OA
BRANCH  19  22
ATOM     21  C   UNL     1      -3.771   6.860 129.367  0.00  0.00    +0.000 C 
ATOM     22  O   UNL     1      -4.528   6.088 128.422  0.00  0.00    +0.000 OA
ENDBRANCH  19  22
ENDBRANCH   1  19
BRANCH   7  23
ATOM     23  C   UNL     1      -8.001   1.353 129.890  0.00  0.00    +0.000 C 
ATOM     24  O   UNL     1      -9.046   1.566 130.499  0.00  0.00    +0.000 OA
BRANCH  23  25
ATOM     25  O   UNL     1      -7.270   0.215 130.052  0.00  0.00    +0.000 OA
BRANCH  25  26
ATOM     26  C   UNL     1      -7.738  -0.570 131.170  0.00  0.00    +0.000 C 
BRANCH  26  27
ATOM     27  C   UNL     1      -6.621  -0.803 132.202  0.00  0.00    +0.000 C 
BRANCH  27  28
ATOM     28  N   UNL     1      -6.736   0.096 133.370  0.00  0.00    +0.000 NA
ATOM     29  C   UNL     1      -6.071  -0.482 134.548  0.00  0.00    +0.000 C 
BRANCH  28  30
ATOM     30  C   UNL     1      -6.170   1.425 133.058  0.00  0.00    +0.000 C 
BRANCH  30  31
ATOM     31  C   UNL     1      -6.932   2.578 133.690  0.00  0.00    +0.000 A 
ATOM     32  C   UNL     1      -8.290   2.815 133.407  0.00  0.00    +0.000 A 
ATOM     33  C   UNL     1      -8.974   3.881 133.979  0.00  0.00    +0.000 A 
ATOM     34  C   UNL     1      -8.304   4.735 134.844  0.00  0.00    +0.000 A 
ATOM     35  C   UNL     1      -6.950   4.536 135.119  0.00  0.00    +0.000 A 
ATOM     36  C   UNL     1      -6.264   3.462 134.548  0.00  0.00    +0.000 A 
ENDBRANCH  30  31
ENDBRANCH  28  30
ENDBRANCH  27  28
ENDBRANCH  26  27
ENDBRANCH  25  26
ENDBRANCH  23  25
ENDBRANCH   7  23
TORSDOF 11
ENDMDL
MODEL 8
REMARK VINA RESULT:      -7.6      1.892      2.474
REMARK  Name = Nicardipine
REMARK  15 active torsions:
REMARK  status: ('A' for Active; 'I' for Inactive)
REMARK    1  A    between atoms: C_1  and  O_2
REMARK    2  A    between atoms: O_2  and  C_3
REMARK    3  A    between atoms: C_3  and  C_5
REMARK    4  A    between atoms: C_6  and  C_7
REMARK    5  A    between atoms: C_9  and  C_10
REMARK    6  A    between atoms: C_11  and  C_22
REMARK    7  A    between atoms: C_12  and  C_13
REMARK    8  A    between atoms: C_15  and  N_19
REMARK    9  A    between atoms: C_22  and  O_24
REMARK   10  A    between atoms: O_24  and  C_25
REMARK   11  A    between atoms: C_25  and  C_26
REMARK   12  A    between atoms: C_26  and  N_27
REMARK   13  A    between atoms: N_27  and  C_28
REMARK   14  A    between atoms: N_27  and  C_29
REMARK   15  A    between atoms: C_29  and  C_30
REMARK                            x       y       z     vdW  Elec       q    Type
REMARK                         _______ _______ _______ _____ _____    ______ ____
ROOT
ATOM      1  C   UNL     1      -6.856   2.695 125.371  0.00  0.00    +0.000 C 
ATOM      2  C   UNL     1      -5.673   3.293 125.098  0.00  0.00    +0.000 C 
ATOM      3  C   UNL     1      -5.389   4.221 123.950  0.00  0.00    +0.000 C 
ATOM      4  N   UNL     1      -4.600   3.092 125.954  0.00  0.00    +0.000 N 
ATOM      5  C   UNL     1      -4.712   2.614 127.250  0.00  0.00    +0.000 C 
ATOM      6  C   UNL     1      -3.507   2.853 128.130  0.00  0.00    +0.000 C 
ATOM      7  C   UNL     1      -5.855   1.990 127.641  0.00  0.00    +0.000 C 
ATOM      8  C   UNL     1      -6.977   1.772 126.599  0.00  0.00    +0.000 C 
ATOM      9  H   UNL     1      -3.705   3.493 125.684  0.00  0.00    +0.000 HD
ENDROOT
BRANCH   8  10
ATOM     10  C   UNL     1      -6.934   0.312 126.125  0.00  0.00    +0.000 A 
ATOM     11  C   UNL     1      -8.063  -0.509 126.213  0.00  0.00    +0.000 A 
ATOM     12  C   UNL     1      -7.928  -1.883 125.962  0.00  0.00    +0.000 A 
ATOM     13  C   UNL     1      -6.723  -2.420 125.486  0.00  0.00    +0.000 A 
ATOM     14  C   UNL     1      -5.614  -1.594 125.347  0.00  0.00    +0.000 A 
ATOM     15  C   UNL     1      -5.717  -0.248 125.680  0.00  0.00    +0.000 A 
BRANCH  12  16
ATOM     16  N   UNL     1      -9.015  -2.794 126.334  0.00  0.00    +0.000 N 
ATOM     17  O   UNL     1      -8.844  -3.523 127.322  0.00  0.00    +0.000 OA
ATOM     18  O   UNL     1     -10.022  -2.815 125.612  0.00  0.00    +0.000 OA
ENDBRANCH  12  16
ENDBRANCH   8  10
BRANCH   1  19
ATOM     19  C   UNL     1      -8.091   2.903 124.573  0.00  0.00    +0.000 C 
ATOM     20  O   UNL     1      -8.974   3.688 124.910  0.00  0.00    +0.000 OA
BRANCH  19  22
ATOM     21  C   UNL     1      -9.382   1.444 123.235  0.00  0.00    +0.000 C 
ATOM     22  O   UNL     1      -8.131   2.110 123.472  0.00  0.00    +0.000 OA
ENDBRANCH  19  22
ENDBRANCH   1  19
BRANCH   7  23
ATOM     23  C   UNL     1      -5.992   1.484 129.040  0.00  0.00    +0.000 C 
ATOM     24  O   UNL     1      -5.766   0.323 129.370  0.00  0.00    +0.000 OA
BRANCH  23  25
ATOM     25  O   UNL     1      -6.381   2.443 129.926  0.00  0.00    +0.000 OA
BRANCH  25  26
ATOM     26  C   UNL     1      -7.670   2.998 129.586  0.00  0.00    +0.000 C 
BRANCH  26  27
ATOM     27  C   UNL     1      -7.967   4.271 130.396  0.00  0.00    +0.000 C 
BRANCH  27  28
ATOM     28  N   UNL     1      -9.353   4.751 130.208  0.00  0.00    +0.000 NA
ATOM     29  C   UNL     1     -10.325   3.751 130.674  0.00  0.00    +0.000 C 
BRANCH  28  30
ATOM     30  C   UNL     1      -9.556   6.035 130.912  0.00  0.00    +0.000 C 
BRANCH  30  31
ATOM     31  C   UNL     1     -10.517   6.975 130.204  0.00  0.00    +0.000 A 
ATOM     32  C   UNL     1     -10.155   7.662 129.031  0.00  0.00    +0.000 A 
ATOM     33  C   UNL     1     -11.036   8.531 128.399  0.00  0.00    +0.000 A 
ATOM     34  C   UNL     1     -12.299   8.732 128.939  0.00  0.00    +0.000 A 
ATOM     35  C   UNL     1     -12.671   8.082 130.117  0.00  0.00    +0.000 A 
ATOM     36  C   UNL     1     -11.787   7.206 130.748  0.00  0.00    +0.000 A 
ENDBRANCH  30  31
ENDBRANCH  28  30
ENDBRANCH  27  28
ENDBRANCH  26  27
ENDBRANCH  25  26
ENDBRANCH  23  25
ENDBRANCH   7  23
TORSDOF 11
ENDMDL
MODEL 9
REMARK VINA RESULT:      -7.6      2.824      3.895
REMARK  Name = Nicardipine
REMARK  15 active torsions:
REMARK  status: ('A' for Active; 'I' for Inactive)
REMARK    1  A    between atoms: C_1  and  O_2
REMARK    2  A    between atoms: O_2  and  C_3
REMARK    3  A    between atoms: C_3  and  C_5
REMARK    4  A    between atoms: C_6  and  C_7
REMARK    5  A    between atoms: C_9  and  C_10
REMARK    6  A    between atoms: C_11  and  C_22
REMARK    7  A    between atoms: C_12  and  C_13
REMARK    8  A    between atoms: C_15  and  N_19
REMARK    9  A    between atoms: C_22  and  O_24
REMARK   10  A    between atoms: O_24  and  C_25
REMARK   11  A    between atoms: C_25  and  C_26
REMARK   12  A    between atoms: C_26  and  N_27
REMARK   13  A    between atoms: N_27  and  C_28
REMARK   14  A    between atoms: N_27  and  C_29
REMARK   15  A    between atoms: C_29  and  C_30
REMARK                            x       y       z     vdW  Elec       q    Type
REMARK                         _______ _______ _______ _____ _____    ______ ____
ROOT
ATOM      1  C   UNL     1      -7.248  -1.851 125.922  0.00  0.00    +0.000 C 
ATOM      2  C   UNL     1      -6.204  -1.591 125.101  0.00  0.00    +0.000 C 
ATOM      3  C   UNL     1      -5.921  -2.258 123.784  0.00  0.00    +0.000 C 
ATOM      4  N   UNL     1      -5.306  -0.592 125.445  0.00  0.00    +0.000 N 
ATOM      5  C   UNL     1      -5.558   0.401 126.379  0.00  0.00    +0.000 C 
ATOM      6  C   UNL     1      -4.640   1.599 126.309  0.00  0.00    +0.000 C 
ATOM      7  C   UNL     1      -6.580   0.250 127.262  0.00  0.00    +0.000 C 
ATOM      8  C   UNL     1      -7.393  -1.066 127.241  0.00  0.00    +0.000 C 
ATOM      9  H   UNL     1      -4.492  -0.469 124.847  0.00  0.00    +0.000 HD
ENDROOT
BRANCH   8  10
ATOM     10  C   UNL     1      -6.922  -1.956 128.400  0.00  0.00    +0.000 A 
ATOM     11  C   UNL     1      -5.561  -2.173 128.637  0.00  0.00    +0.000 A 
ATOM     12  C   UNL     1      -5.178  -3.148 129.570  0.00  0.00    +0.000 A 
ATOM     13  C   UNL     1      -6.128  -3.803 130.368  0.00  0.00    +0.000 A 
ATOM     14  C   UNL     1      -7.480  -3.549 130.170  0.00  0.00    +0.000 A 
ATOM     15  C   UNL     1      -7.870  -2.649 129.185  0.00  0.00    +0.000 A 
BRANCH  12  16
ATOM     16  N   UNL     1      -3.782  -3.594 129.615  0.00  0.00    +0.000 N 
ATOM     17  O   UNL     1      -3.274  -4.007 128.563  0.00  0.00    +0.000 OA
ATOM     18  O   UNL     1      -3.207  -3.576 130.713  0.00  0.00    +0.000 OA
ENDBRANCH  12  16
ENDBRANCH   8  10
BRANCH   1  19
ATOM     19  C   UNL     1      -8.315  -2.838 125.617  0.00  0.00    +0.000 C 
ATOM     20  O   UNL     1      -8.286  -3.994 126.030  0.00  0.00    +0.000 OA
BRANCH  19  22
ATOM     21  C   UNL     1      -9.495  -3.010 123.577  0.00  0.00    +0.000 C 
ATOM     22  O   UNL     1      -9.281  -2.319 124.818  0.00  0.00    +0.000 OA
ENDBRANCH  19  22
ENDBRANCH   1  19
BRANCH   7  23
ATOM     23  C   UNL     1      -6.871   1.321 128.263  0.00  0.00    +0.000 C 
ATOM     24  O   UNL     1      -6.348   1.377 129.372  0.00  0.00    +0.000 OA
BRANCH  23  25
ATOM     25  O   UNL     1      -7.769   2.245 127.820  0.00  0.00    +0.000 OA
BRANCH  25  26
ATOM     26  C   UNL     1      -8.634   2.706 128.880  0.00  0.00    +0.000 C 
BRANCH  26  27
ATOM     27  C   UNL     1      -8.434   4.205 129.159  0.00  0.00    +0.000 C 
BRANCH  27  28
ATOM     28  N   UNL     1      -9.491   4.765 130.028  0.00  0.00    +0.000 NA
ATOM     29  C   UNL     1      -9.341   4.293 131.412  0.00  0.00    +0.000 C 
BRANCH  28  30
ATOM     30  C   UNL     1      -9.471   6.242 129.981  0.00  0.00    +0.000 C 
BRANCH  30  31
ATOM     31  C   UNL     1     -10.726   6.852 129.380  0.00  0.00    +0.000 A 
ATOM     32  C   UNL     1     -11.990   6.252 129.532  0.00  0.00    +0.000 A 
ATOM     33  C   UNL     1     -13.130   6.810 128.967  0.00  0.00    +0.000 A 
ATOM     34  C   UNL     1     -13.022   7.982 128.231  0.00  0.00    +0.000 A 
ATOM     35  C   UNL     1     -11.775   8.582 128.045  0.00  0.00    +0.000 A 
ATOM     36  C   UNL     1     -10.631   8.023 128.617  0.00  0.00    +0.000 A 
ENDBRANCH  30  31
ENDBRANCH  28  30
ENDBRANCH  27  28
ENDBRANCH  26  27
ENDBRANCH  25  26
ENDBRANCH  23  25
ENDBRANCH   7  23
TORSDOF 11
ENDMDL
