MODEL 1
REMARK VINA RESULT:      -8.1      0.000      0.000
REMARK  Name = Nicergoline
REMARK  8 active torsions:
REMARK  status: ('A' for Active; 'I' for Inactive)
REMARK    1  A    between atoms: N_6  and  C_7
REMARK    2  A    between atoms: C_14  and  O_31
REMARK    3  A    between atoms: C_16  and  C_17
REMARK    4  A    between atoms: C_17  and  O_18
REMARK    5  A    between atoms: O_18  and  C_19
REMARK    6  A    between atoms: C_19  and  C_21
REMARK    7  A    between atoms: N_29  and  C_30
REMARK    8  A    between atoms: O_31  and  C_32
REMARK                            x       y       z     vdW  Elec       q    Type
REMARK                         _______ _______ _______ _____ _____    ______ ____
ROOT
ATOM      1  C   UNL     1      -6.696   4.229 130.325  0.00  0.00    +0.000 C 
ATOM      2  C   UNL     1      -6.305   4.022 128.695  0.00  0.00    +0.000 C 
ATOM      3  C   UNL     1      -4.969   4.559 128.709  0.00  0.00    +0.000 A 
ATOM      4  C   UNL     1      -4.241   5.408 127.963  0.00  0.00    +0.000 A 
ATOM      5  N   UNL     1      -3.186   5.770 128.757  0.00  0.00    +0.000 N 
ATOM      6  C   UNL     1      -2.155   6.658 128.299  0.00  0.00    +0.000 C 
ATOM      7  C   UNL     1      -3.204   5.095 129.965  0.00  0.00    +0.000 A 
ATOM      8  C   UNL     1      -2.482   5.259 131.155  0.00  0.00    +0.000 A 
ATOM      9  C   UNL     1      -2.788   4.347 132.158  0.00  0.00    +0.000 A 
ATOM     10  C   UNL     1      -3.714   3.262 131.904  0.00  0.00    +0.000 A 
ATOM     11  C   UNL     1      -4.647   3.174 130.700  0.00  0.00    +0.000 A 
ATOM     12  C   UNL     1      -4.205   4.142 129.790  0.00  0.00    +0.000 A 
ATOM     13  C   UNL     1      -6.427   2.774 130.698  0.00  0.00    +0.000 C 
ATOM     14  C   UNL     1      -8.170   2.701 129.716  0.00  0.00    +0.000 C 
ATOM     15  C   UNL     1      -9.299   4.215 129.739  0.00  0.00    +0.000 C 
ATOM     16  C   UNL     1      -8.473   5.570 129.754  0.00  0.00    +0.000 C 
ATOM     17  N   UNL     1      -7.415   5.475 130.776  0.00  0.00    +0.000 NA
ATOM     18  C   UNL     1      -8.184   5.374 132.089  0.00  0.00    +0.000 C 
ENDROOT
BRANCH  13  19
ATOM     19  O   UNL     1      -6.477   2.573 132.151  0.00  0.00    +0.000 OA
ATOM     20  C   UNL     1      -6.780   1.196 132.490  0.00  0.00    +0.000 C 
ENDBRANCH  13  19
BRANCH  15  21
ATOM     21  C   UNL     1     -10.421   4.196 130.866  0.00  0.00    +0.000 C 
BRANCH  21  22
ATOM     22  O   UNL     1     -11.477   5.060 130.389  0.00  0.00    +0.000 OA
BRANCH  22  23
ATOM     23  C   UNL     1     -11.758   6.194 131.038  0.00  0.00    +0.000 C 
ATOM     24  O   UNL     1     -11.507   6.429 132.242  0.00  0.00    +0.000 OA
BRANCH  23  25
ATOM     25  C   UNL     1     -12.350   7.190 130.133  0.00  0.00    +0.000 A 
ATOM     26  C   UNL     1     -12.577   6.822 128.819  0.00  0.00    +0.000 A 
ATOM     27  N   UNL     1     -13.091   7.648 127.872  0.00  0.00    +0.000 NA
ATOM     28  C   UNL     1     -13.374   8.918 128.251  0.00  0.00    +0.000 A 
ATOM     29  C   UNL     1     -13.169   9.388 129.535  0.00  0.00    +0.000 A 
ATOM     30 BR   UNL     1     -13.572  11.181 129.970  0.00  0.00    +0.000 Br
ATOM     31  C   UNL     1     -12.650   8.508 130.486  0.00  0.00    +0.000 A 
ENDBRANCH  23  25
ENDBRANCH  22  23
ENDBRANCH  21  22
ENDBRANCH  15  21
TORSDOF 5
ENDMDL
MODEL 2
REMARK VINA RESULT:      -8.1      6.155      8.044
REMARK  Name = Nicergoline
REMARK  8 active torsions:
REMARK  status: ('A' for Active; 'I' for Inactive)
REMARK    1  A    between atoms: N_6  and  C_7
REMARK    2  A    between atoms: C_14  and  O_31
REMARK    3  A    between atoms: C_16  and  C_17
REMARK    4  A    between atoms: C_17  and  O_18
REMARK    5  A    between atoms: O_18  and  C_19
REMARK    6  A    between atoms: C_19  and  C_21
REMARK    7  A    between atoms: N_29  and  C_30
REMARK    8  A    between atoms: O_31  and  C_32
REMARK                            x       y       z     vdW  Elec       q    Type
REMARK                         _______ _______ _______ _____ _____    ______ ____
ROOT
ATOM      1  C   UNL     1      -5.463   2.372 127.293  0.00  0.00    +0.000 C 
ATOM      2  C   UNL     1      -3.971   2.591 126.531  0.00  0.00    +0.000 C 
ATOM      3  C   UNL     1      -3.354   3.478 127.482  0.00  0.00    +0.000 A 
ATOM      4  C   UNL     1      -2.650   4.624 127.448  0.00  0.00    +0.000 A 
ATOM      5  N   UNL     1      -2.714   5.122 128.722  0.00  0.00    +0.000 N 
ATOM      6  C   UNL     1      -2.051   6.338 129.099  0.00  0.00    +0.000 C 
ATOM      7  C   UNL     1      -3.384   4.260 129.572  0.00  0.00    +0.000 A 
ATOM      8  C   UNL     1      -3.871   4.404 130.879  0.00  0.00    +0.000 A 
ATOM      9  C   UNL     1      -4.488   3.274 131.402  0.00  0.00    +0.000 A 
ATOM     10  C   UNL     1      -4.504   2.034 130.653  0.00  0.00    +0.000 A 
ATOM     11  C   UNL     1      -4.159   1.903 129.173  0.00  0.00    +0.000 A 
ATOM     12  C   UNL     1      -3.547   3.108 128.806  0.00  0.00    +0.000 A 
ATOM     13  C   UNL     1      -5.096   1.015 127.884  0.00  0.00    +0.000 C 
ATOM     14  C   UNL     1      -5.404   0.624 125.946  0.00  0.00    +0.000 C 
ATOM     15  C   UNL     1      -6.595   1.716 124.968  0.00  0.00    +0.000 C 
ATOM     16  C   UNL     1      -6.553   3.225 125.459  0.00  0.00    +0.000 C 
ATOM     17  N   UNL     1      -6.631   3.253 126.930  0.00  0.00    +0.000 NA
ATOM     18  C   UNL     1      -8.017   2.695 127.233  0.00  0.00    +0.000 C 
ENDROOT
BRANCH  13  19
ATOM     19  O   UNL     1      -6.120   0.544 128.825  0.00  0.00    +0.000 OA
ATOM     20  C   UNL     1      -6.142  -0.903 128.912  0.00  0.00    +0.000 C 
ENDBRANCH  13  19
BRANCH  15  21
ATOM     21  C   UNL     1      -8.085   1.168 124.876  0.00  0.00    +0.000 C 
BRANCH  21  22
ATOM     22  O   UNL     1      -8.268   0.744 123.508  0.00  0.00    +0.000 OA
BRANCH  22  23
ATOM     23  C   UNL     1      -9.034  -0.318 123.234  0.00  0.00    +0.000 C 
ATOM     24  O   UNL     1     -10.153  -0.289 122.674  0.00  0.00    +0.000 OA
BRANCH  23  25
ATOM     25  C   UNL     1      -8.360  -1.568 123.615  0.00  0.00    +0.000 A 
ATOM     26  C   UNL     1      -9.092  -2.518 124.304  0.00  0.00    +0.000 A 
ATOM     27  N   UNL     1      -8.590  -3.702 124.741  0.00  0.00    +0.000 NA
ATOM     28  C   UNL     1      -7.279  -3.942 124.494  0.00  0.00    +0.000 A 
ATOM     29  C   UNL     1      -6.458  -3.050 123.829  0.00  0.00    +0.000 A 
ATOM     30 BR   UNL     1      -4.636  -3.459 123.548  0.00  0.00    +0.000 Br
ATOM     31  C   UNL     1      -7.011  -1.849 123.384  0.00  0.00    +0.000 A 
ENDBRANCH  23  25
ENDBRANCH  22  23
ENDBRANCH  21  22
ENDBRANCH  15  21
TORSDOF 5
ENDMDL
MODEL 3
REMARK VINA RESULT:      -8.0      4.031      5.379
REMARK  Name = Nicergoline
REMARK  8 active torsions:
REMARK  status: ('A' for Active; 'I' for Inactive)
REMARK    1  A    between atoms: N_6  and  C_7
REMARK    2  A    between atoms: C_14  and  O_31
REMARK    3  A    between atoms: C_16  and  C_17
REMARK    4  A    between atoms: C_17  and  O_18
REMARK    5  A    between atoms: O_18  and  C_19
REMARK    6  A    between atoms: C_19  and  C_21
REMARK    7  A    between atoms: N_29  and  C_30
REMARK    8  A    between atoms: O_31  and  C_32
REMARK                            x       y       z     vdW  Elec       q    Type
REMARK                         _______ _______ _______ _____ _____    ______ ____
ROOT
ATOM      1  C   UNL     1      -7.413   1.439 127.914  0.00  0.00    +0.000 C 
ATOM      2  C   UNL     1      -8.882   1.252 127.103  0.00  0.00    +0.000 C 
ATOM      3  C   UNL     1      -8.482   0.279 126.120  0.00  0.00    +0.000 A 
ATOM      4  C   UNL     1      -8.630   0.097 124.796  0.00  0.00    +0.000 A 
ATOM      5  N   UNL     1      -7.672  -0.818 124.450  0.00  0.00    +0.000 N 
ATOM      6  C   UNL     1      -7.527  -1.298 123.105  0.00  0.00    +0.000 C 
ATOM      7  C   UNL     1      -6.977  -1.270 125.558  0.00  0.00    +0.000 A 
ATOM      8  C   UNL     1      -5.808  -2.031 125.700  0.00  0.00    +0.000 A 
ATOM      9  C   UNL     1      -5.434  -2.293 127.013  0.00  0.00    +0.000 A 
ATOM     10  C   UNL     1      -6.282  -1.878 128.112  0.00  0.00    +0.000 A 
ATOM     11  C   UNL     1      -7.442  -0.895 127.999  0.00  0.00    +0.000 A 
ATOM     12  C   UNL     1      -7.696  -0.746 126.629  0.00  0.00    +0.000 A 
ATOM     13  C   UNL     1      -7.803   0.531 129.077  0.00  0.00    +0.000 C 
ATOM     14  C   UNL     1      -8.836   2.212 129.414  0.00  0.00    +0.000 C 
ATOM     15  C   UNL     1      -8.152   3.853 128.776  0.00  0.00    +0.000 C 
ATOM     16  C   UNL     1      -7.382   3.677 127.399  0.00  0.00    +0.000 C 
ATOM     17  N   UNL     1      -6.460   2.534 127.507  0.00  0.00    +0.000 NA
ATOM     18  C   UNL     1      -5.451   2.978 128.561  0.00  0.00    +0.000 C 
ENDROOT
BRANCH  13  19
ATOM     19  O   UNL     1      -6.660   0.269 129.961  0.00  0.00    +0.000 OA
ATOM     20  C   UNL     1      -7.088  -0.019 131.316  0.00  0.00    +0.000 C 
ENDBRANCH  13  19
BRANCH  15  21
ATOM     21  C   UNL     1      -7.293   4.676 129.830  0.00  0.00    +0.000 C 
BRANCH  21  22
ATOM     22  O   UNL     1      -8.244   5.269 130.741  0.00  0.00    +0.000 OA
BRANCH  22  23
ATOM     23  C   UNL     1      -8.482   6.585 130.697  0.00  0.00    +0.000 C 
ATOM     24  O   UNL     1      -7.614   7.482 130.599  0.00  0.00    +0.000 OA
BRANCH  23  25
ATOM     25  C   UNL     1      -9.926   6.863 130.708  0.00  0.00    +0.000 A 
ATOM     26  C   UNL     1     -10.688   6.305 131.718  0.00  0.00    +0.000 A 
ATOM     27  N   UNL     1     -12.032   6.456 131.834  0.00  0.00    +0.000 NA
ATOM     28  C   UNL     1     -12.654   7.186 130.875  0.00  0.00    +0.000 A 
ATOM     29  C   UNL     1     -11.985   7.770 129.815  0.00  0.00    +0.000 A 
ATOM     30 BR   UNL     1     -12.935   8.752 128.512  0.00  0.00    +0.000 Br
ATOM     31  C   UNL     1     -10.601   7.604 129.735  0.00  0.00    +0.000 A 
ENDBRANCH  23  25
ENDBRANCH  22  23
ENDBRANCH  21  22
ENDBRANCH  15  21
TORSDOF 5
ENDMDL
MODEL 4
REMARK VINA RESULT:      -8.0      3.987      7.612
REMARK  Name = Nicergoline
REMARK  8 active torsions:
REMARK  status: ('A' for Active; 'I' for Inactive)
REMARK    1  A    between atoms: N_6  and  C_7
REMARK    2  A    between atoms: C_14  and  O_31
REMARK    3  A    between atoms: C_16  and  C_17
REMARK    4  A    between atoms: C_17  and  O_18
REMARK    5  A    between atoms: O_18  and  C_19
REMARK    6  A    between atoms: C_19  and  C_21
REMARK    7  A    between atoms: N_29  and  C_30
REMARK    8  A    between atoms: O_31  and  C_32
REMARK                            x       y       z     vdW  Elec       q    Type
REMARK                         _______ _______ _______ _____ _____    ______ ____
ROOT
ATOM      1  C   UNL     1      -5.725   5.257 131.146  0.00  0.00    +0.000 C 
ATOM      2  C   UNL     1      -6.332   6.799 130.817  0.00  0.00    +0.000 C 
ATOM      3  C   UNL     1      -7.662   6.641 131.346  0.00  0.00    +0.000 A 
ATOM      4  C   UNL     1      -8.917   6.924 130.956  0.00  0.00    +0.000 A 
ATOM      5  N   UNL     1      -9.722   6.157 131.754  0.00  0.00    +0.000 N 
ATOM      6  C   UNL     1     -11.155   6.201 131.659  0.00  0.00    +0.000 C 
ATOM      7  C   UNL     1      -8.987   5.456 132.694  0.00  0.00    +0.000 A 
ATOM      8  C   UNL     1      -9.319   4.417 133.574  0.00  0.00    +0.000 A 
ATOM      9  C   UNL     1      -8.278   3.983 134.388  0.00  0.00    +0.000 A 
ATOM     10  C   UNL     1      -6.998   4.661 134.362  0.00  0.00    +0.000 A 
ATOM     11  C   UNL     1      -6.556   5.654 133.292  0.00  0.00    +0.000 A 
ATOM     12  C   UNL     1      -7.708   5.991 132.571  0.00  0.00    +0.000 A 
ATOM     13  C   UNL     1      -4.967   5.691 132.396  0.00  0.00    +0.000 C 
ATOM     14  C   UNL     1      -3.860   6.411 130.891  0.00  0.00    +0.000 C 
ATOM     15  C   UNL     1      -3.896   5.526 129.223  0.00  0.00    +0.000 C 
ATOM     16  C   UNL     1      -5.325   4.910 128.910  0.00  0.00    +0.000 C 
ATOM     17  N   UNL     1      -5.801   4.177 130.096  0.00  0.00    +0.000 NA
ATOM     18  C   UNL     1      -4.810   3.027 130.237  0.00  0.00    +0.000 C 
ENDROOT
BRANCH  13  19
ATOM     19  O   UNL     1      -4.424   4.538 133.124  0.00  0.00    +0.000 OA
ATOM     20  C   UNL     1      -3.233   4.889 133.872  0.00  0.00    +0.000 C 
ENDBRANCH  13  19
BRANCH  15  21
ATOM     21  C   UNL     1      -2.735   4.463 129.003  0.00  0.00    +0.000 C 
BRANCH  21  22
ATOM     22  O   UNL     1      -2.392   4.533 127.601  0.00  0.00    +0.000 OA
BRANCH  22  23
ATOM     23  C   UNL     1      -2.304   3.412 126.878  0.00  0.00    +0.000 C 
ATOM     24  O   UNL     1      -1.273   2.720 126.722  0.00  0.00    +0.000 OA
BRANCH  23  25
ATOM     25  C   UNL     1      -3.614   3.034 126.324  0.00  0.00    +0.000 A 
ATOM     26  C   UNL     1      -4.273   3.954 125.529  0.00  0.00    +0.000 A 
ATOM     27  N   UNL     1      -5.497   3.749 124.978  0.00  0.00    +0.000 NA
ATOM     28  C   UNL     1      -6.106   2.570 125.253  0.00  0.00    +0.000 A 
ATOM     29  C   UNL     1      -5.539   1.593 126.050  0.00  0.00    +0.000 A 
ATOM     30 BR   UNL     1      -6.469  -0.013 126.398  0.00  0.00    +0.000 Br
ATOM     31  C   UNL     1      -4.274   1.832 126.590  0.00  0.00    +0.000 A 
ENDBRANCH  23  25
ENDBRANCH  22  23
ENDBRANCH  21  22
ENDBRANCH  15  21
TORSDOF 5
ENDMDL
MODEL 5
REMARK VINA RESULT:      -7.8      3.982      5.782
REMARK  Name = Nicergoline
REMARK  8 active torsions:
REMARK  status: ('A' for Active; 'I' for Inactive)
REMARK    1  A    between atoms: N_6  and  C_7
REMARK    2  A    between atoms: C_14  and  O_31
REMARK    3  A    between atoms: C_16  and  C_17
REMARK    4  A    between atoms: C_17  and  O_18
REMARK    5  A    between atoms: O_18  and  C_19
REMARK    6  A    between atoms: C_19  and  C_21
REMARK    7  A    between atoms: N_29  and  C_30
REMARK    8  A    between atoms: O_31  and  C_32
REMARK                            x       y       z     vdW  Elec       q    Type
REMARK                         _______ _______ _______ _____ _____    ______ ____
ROOT
ATOM      1  C   UNL     1      -6.841   1.144 128.679  0.00  0.00    +0.000 C 
ATOM      2  C   UNL     1      -6.743  -0.003 129.915  0.00  0.00    +0.000 C 
ATOM      3  C   UNL     1      -7.105  -1.180 129.167  0.00  0.00    +0.000 A 
ATOM      4  C   UNL     1      -7.923  -2.234 129.325  0.00  0.00    +0.000 A 
ATOM      5  N   UNL     1      -8.073  -2.764 128.072  0.00  0.00    +0.000 N 
ATOM      6  C   UNL     1      -8.864  -3.937 127.829  0.00  0.00    +0.000 C 
ATOM      7  C   UNL     1      -7.293  -2.098 127.142  0.00  0.00    +0.000 A 
ATOM      8  C   UNL     1      -7.251  -2.131 125.741  0.00  0.00    +0.000 A 
ATOM      9  C   UNL     1      -6.293  -1.305 125.164  0.00  0.00    +0.000 A 
ATOM     10  C   UNL     1      -5.362  -0.571 125.996  0.00  0.00    +0.000 A 
ATOM     11  C   UNL     1      -5.506  -0.369 127.501  0.00  0.00    +0.000 A 
ATOM     12  C   UNL     1      -6.494  -1.267 127.924  0.00  0.00    +0.000 A 
ATOM     13  C   UNL     1      -5.335   1.187 128.437  0.00  0.00    +0.000 C 
ATOM     14  C   UNL     1      -5.575   2.198 130.149  0.00  0.00    +0.000 C 
ATOM     15  C   UNL     1      -7.209   3.091 130.464  0.00  0.00    +0.000 C 
ATOM     16  C   UNL     1      -8.442   2.305 129.848  0.00  0.00    +0.000 C 
ATOM     17  N   UNL     1      -8.119   1.915 128.464  0.00  0.00    +0.000 NA
ATOM     18  C   UNL     1      -7.990   3.245 127.731  0.00  0.00    +0.000 C 
ENDROOT
BRANCH  13  19
ATOM     19  O   UNL     1      -5.004   1.976 127.244  0.00  0.00    +0.000 OA
ATOM     20  C   UNL     1      -3.739   2.668 127.394  0.00  0.00    +0.000 C 
ENDBRANCH  13  19
BRANCH  15  21
ATOM     21  C   UNL     1      -7.224   4.627 130.053  0.00  0.00    +0.000 C 
BRANCH  21  22
ATOM     22  O   UNL     1      -8.411   5.188 130.655  0.00  0.00    +0.000 OA
BRANCH  22  23
ATOM     23  C   UNL     1      -8.600   6.511 130.654  0.00  0.00    +0.000 C 
ATOM     24  O   UNL     1      -7.701   7.379 130.577  0.00  0.00    +0.000 OA
BRANCH  23  25
ATOM     25  C   UNL     1     -10.033   6.842 130.685  0.00  0.00    +0.000 A 
ATOM     26  C   UNL     1     -10.802   6.307 131.702  0.00  0.00    +0.000 A 
ATOM     27  N   UNL     1     -12.139   6.506 131.836  0.00  0.00    +0.000 NA
ATOM     28  C   UNL     1     -12.745   7.263 130.888  0.00  0.00    +0.000 A 
ATOM     29  C   UNL     1     -12.069   7.828 129.823  0.00  0.00    +0.000 A 
ATOM     30 BR   UNL     1     -12.999   8.851 128.537  0.00  0.00    +0.000 Br
ATOM     31  C   UNL     1     -10.693   7.612 129.724  0.00  0.00    +0.000 A 
ENDBRANCH  23  25
ENDBRANCH  22  23
ENDBRANCH  21  22
ENDBRANCH  15  21
TORSDOF 5
ENDMDL
MODEL 6
REMARK VINA RESULT:      -7.8      2.592      4.342
REMARK  Name = Nicergoline
REMARK  8 active torsions:
REMARK  status: ('A' for Active; 'I' for Inactive)
REMARK    1  A    between atoms: N_6  and  C_7
REMARK    2  A    between atoms: C_14  and  O_31
REMARK    3  A    between atoms: C_16  and  C_17
REMARK    4  A    between atoms: C_17  and  O_18
REMARK    5  A    between atoms: O_18  and  C_19
REMARK    6  A    between atoms: C_19  and  C_21
REMARK    7  A    between atoms: N_29  and  C_30
REMARK    8  A    between atoms: O_31  and  C_32
REMARK                            x       y       z     vdW  Elec       q    Type
REMARK                         _______ _______ _______ _____ _____    ______ ____
ROOT
ATOM      1  C   UNL     1      -7.791   1.723 131.542  0.00  0.00    +0.000 C 
ATOM      2  C   UNL     1      -8.783   0.367 131.720  0.00  0.00    +0.000 C 
ATOM      3  C   UNL     1      -7.773  -0.660 131.708  0.00  0.00    +0.000 A 
ATOM      4  C   UNL     1      -7.587  -1.851 131.114  0.00  0.00    +0.000 A 
ATOM      5  N   UNL     1      -6.248  -2.109 131.237  0.00  0.00    +0.000 N 
ATOM      6  C   UNL     1      -5.656  -3.320 130.743  0.00  0.00    +0.000 C 
ATOM      7  C   UNL     1      -5.607  -1.127 131.971  0.00  0.00    +0.000 A 
ATOM      8  C   UNL     1      -4.253  -0.840 132.194  0.00  0.00    +0.000 A 
ATOM      9  C   UNL     1      -4.013   0.248 133.024  0.00  0.00    +0.000 A 
ATOM     10  C   UNL     1      -5.114   0.934 133.670  0.00  0.00    +0.000 A 
ATOM     11  C   UNL     1      -6.584   0.770 133.299  0.00  0.00    +0.000 A 
ATOM     12  C   UNL     1      -6.655  -0.361 132.474  0.00  0.00    +0.000 A 
ATOM     13  C   UNL     1      -7.817   2.085 133.023  0.00  0.00    +0.000 C 
ATOM     14  C   UNL     1      -9.626   2.634 132.365  0.00  0.00    +0.000 C 
ATOM     15  C   UNL     1      -9.832   3.130 130.555  0.00  0.00    +0.000 C 
ATOM     16  C   UNL     1      -8.879   2.294 129.600  0.00  0.00    +0.000 C 
ATOM     17  N   UNL     1      -7.520   2.283 130.168  0.00  0.00    +0.000 NA
ATOM     18  C   UNL     1      -7.087   3.744 130.108  0.00  0.00    +0.000 C 
ENDROOT
BRANCH  13  19
ATOM     19  O   UNL     1      -6.870   3.164 133.330  0.00  0.00    +0.000 OA
ATOM     20  C   UNL     1      -7.323   3.974 134.444  0.00  0.00    +0.000 C 
ENDBRANCH  13  19
BRANCH  15  21
ATOM     21  C   UNL     1      -9.726   4.691 130.272  0.00  0.00    +0.000 C 
BRANCH  21  22
ATOM     22  O   UNL     1     -11.071   5.134 129.983  0.00  0.00    +0.000 OA
BRANCH  22  23
ATOM     23  C   UNL     1     -11.635   6.089 130.730  0.00  0.00    +0.000 C 
ATOM     24  O   UNL     1     -11.550   6.191 131.974  0.00  0.00    +0.000 OA
BRANCH  23  25
ATOM     25  C   UNL     1     -12.331   7.076 129.890  0.00  0.00    +0.000 A 
ATOM     26  C   UNL     1     -12.730   6.687 128.624  0.00  0.00    +0.000 A 
ATOM     27  N   UNL     1     -13.355   7.501 127.736  0.00  0.00    +0.000 NA
ATOM     28  C   UNL     1     -13.575   8.781 128.124  0.00  0.00    +0.000 A 
ATOM     29  C   UNL     1     -13.199   9.272 129.361  0.00  0.00    +0.000 A 
ATOM     30 BR   UNL     1     -13.526  11.077 129.809  0.00  0.00    +0.000 Br
ATOM     31  C   UNL     1     -12.570   8.404 130.253  0.00  0.00    +0.000 A 
ENDBRANCH  23  25
ENDBRANCH  22  23
ENDBRANCH  21  22
ENDBRANCH  15  21
TORSDOF 5
ENDMDL
MODEL 7
REMARK VINA RESULT:      -7.7      3.808      5.536
REMARK  Name = Nicergoline
REMARK  8 active torsions:
REMARK  status: ('A' for Active; 'I' for Inactive)
REMARK    1  A    between atoms: N_6  and  C_7
REMARK    2  A    between atoms: C_14  and  O_31
REMARK    3  A    between atoms: C_16  and  C_17
REMARK    4  A    between atoms: C_17  and  O_18
REMARK    5  A    between atoms: O_18  and  C_19
REMARK    6  A    between atoms: C_19  and  C_21
REMARK    7  A    between atoms: N_29  and  C_30
REMARK    8  A    between atoms: O_31  and  C_32
REMARK                            x       y       z     vdW  Elec       q    Type
REMARK                         _______ _______ _______ _____ _____    ______ ____
ROOT
ATOM      1  C   UNL     1      -7.002   0.977 128.998  0.00  0.00    +0.000 C 
ATOM      2  C   UNL     1      -5.320   0.874 128.889  0.00  0.00    +0.000 C 
ATOM      3  C   UNL     1      -5.145  -0.495 129.299  0.00  0.00    +0.000 A 
ATOM      4  C   UNL     1      -4.345  -1.178 130.136  0.00  0.00    +0.000 A 
ATOM      5  N   UNL     1      -4.973  -2.377 130.336  0.00  0.00    +0.000 N 
ATOM      6  C   UNL     1      -4.407  -3.407 131.161  0.00  0.00    +0.000 C 
ATOM      7  C   UNL     1      -6.121  -2.483 129.570  0.00  0.00    +0.000 A 
ATOM      8  C   UNL     1      -7.182  -3.400 129.572  0.00  0.00    +0.000 A 
ATOM      9  C   UNL     1      -8.162  -3.165 128.614  0.00  0.00    +0.000 A 
ATOM     10  C   UNL     1      -7.996  -2.104 127.642  0.00  0.00    +0.000 A 
ATOM     11  C   UNL     1      -6.962  -0.987 127.735  0.00  0.00    +0.000 A 
ATOM     12  C   UNL     1      -6.055  -1.375 128.730  0.00  0.00    +0.000 A 
ATOM     13  C   UNL     1      -7.230   0.802 127.500  0.00  0.00    +0.000 C 
ATOM     14  C   UNL     1      -6.551   2.678 127.665  0.00  0.00    +0.000 C 
ATOM     15  C   UNL     1      -6.859   3.627 129.268  0.00  0.00    +0.000 C 
ATOM     16  C   UNL     1      -6.824   2.674 130.537  0.00  0.00    +0.000 C 
ATOM     17  N   UNL     1      -7.646   1.483 130.265  0.00  0.00    +0.000 NA
ATOM     18  C   UNL     1      -9.059   2.038 130.129  0.00  0.00    +0.000 C 
ENDROOT
BRANCH  13  19
ATOM     19  O   UNL     1      -8.656   0.640 127.188  0.00  0.00    +0.000 OA
ATOM     20  C   UNL     1      -8.968   1.112 125.854  0.00  0.00    +0.000 C 
ENDBRANCH  13  19
BRANCH  15  21
ATOM     21  C   UNL     1      -8.154   4.551 129.261  0.00  0.00    +0.000 C 
BRANCH  21  22
ATOM     22  O   UNL     1      -8.195   5.186 130.558  0.00  0.00    +0.000 OA
BRANCH  22  23
ATOM     23  C   UNL     1      -8.408   6.502 130.652  0.00  0.00    +0.000 C 
ATOM     24  O   UNL     1      -7.525   7.389 130.644  0.00  0.00    +0.000 OA
BRANCH  23  25
ATOM     25  C   UNL     1      -9.847   6.804 130.696  0.00  0.00    +0.000 A 
ATOM     26  C   UNL     1     -10.597   6.246 131.715  0.00  0.00    +0.000 A 
ATOM     27  N   UNL     1     -11.936   6.417 131.861  0.00  0.00    +0.000 NA
ATOM     28  C   UNL     1     -12.565   7.169 130.925  0.00  0.00    +0.000 A 
ATOM     29  C   UNL     1     -11.909   7.756 129.859  0.00  0.00    +0.000 A 
ATOM     30 BR   UNL     1     -12.869   8.771 128.589  0.00  0.00    +0.000 Br
ATOM     31  C   UNL     1     -10.530   7.569 129.747  0.00  0.00    +0.000 A 
ENDBRANCH  23  25
ENDBRANCH  22  23
ENDBRANCH  21  22
ENDBRANCH  15  21
TORSDOF 5
ENDMDL
MODEL 8
REMARK VINA RESULT:      -7.7      4.579      8.163
REMARK  Name = Nicergoline
REMARK  8 active torsions:
REMARK  status: ('A' for Active; 'I' for Inactive)
REMARK    1  A    between atoms: N_6  and  C_7
REMARK    2  A    between atoms: C_14  and  O_31
REMARK    3  A    between atoms: C_16  and  C_17
REMARK    4  A    between atoms: C_17  and  O_18
REMARK    5  A    between atoms: O_18  and  C_19
REMARK    6  A    between atoms: C_19  and  C_21
REMARK    7  A    between atoms: N_29  and  C_30
REMARK    8  A    between atoms: O_31  and  C_32
REMARK                            x       y       z     vdW  Elec       q    Type
REMARK                         _______ _______ _______ _____ _____    ______ ____
ROOT
ATOM      1  C   UNL     1      -8.042   2.222 130.928  0.00  0.00    +0.000 C 
ATOM      2  C   UNL     1      -9.360   2.356 129.880  0.00  0.00    +0.000 C 
ATOM      3  C   UNL     1      -9.750   3.711 130.173  0.00  0.00    +0.000 A 
ATOM      4  C   UNL     1     -10.892   4.373 130.429  0.00  0.00    +0.000 A 
ATOM      5  N   UNL     1     -10.501   5.554 131.001  0.00  0.00    +0.000 N 
ATOM      6  C   UNL     1     -11.446   6.560 131.396  0.00  0.00    +0.000 C 
ATOM      7  C   UNL     1      -9.122   5.671 131.034  0.00  0.00    +0.000 A 
ATOM      8  C   UNL     1      -8.262   6.569 131.680  0.00  0.00    +0.000 A 
ATOM      9  C   UNL     1      -6.908   6.357 131.446  0.00  0.00    +0.000 A 
ATOM     10  C   UNL     1      -6.479   5.337 130.510  0.00  0.00    +0.000 A 
ATOM     11  C   UNL     1      -7.370   4.234 129.950  0.00  0.00    +0.000 A 
ATOM     12  C   UNL     1      -8.686   4.597 130.262  0.00  0.00    +0.000 A 
ATOM     13  C   UNL     1      -6.999   2.451 129.838  0.00  0.00    +0.000 C 
ATOM     14  C   UNL     1      -7.634   0.582 129.507  0.00  0.00    +0.000 C 
ATOM     15  C   UNL     1      -8.289  -0.435 130.958  0.00  0.00    +0.000 C 
ATOM     16  C   UNL     1      -9.053   0.469 132.017  0.00  0.00    +0.000 C 
ATOM     17  N   UNL     1      -8.233   1.657 132.313  0.00  0.00    +0.000 NA
ATOM     18  C   UNL     1      -6.991   1.085 132.987  0.00  0.00    +0.000 C 
ENDROOT
BRANCH  13  19
ATOM     19  O   UNL     1      -5.653   2.602 130.404  0.00  0.00    +0.000 OA
ATOM     20  C   UNL     1      -4.629   2.184 129.468  0.00  0.00    +0.000 C 
ENDBRANCH  13  19
BRANCH  15  21
ATOM     21  C   UNL     1      -7.215  -1.378 131.655  0.00  0.00    +0.000 C 
BRANCH  21  22
ATOM     22  O   UNL     1      -7.557  -2.726 131.263  0.00  0.00    +0.000 OA
BRANCH  22  23
ATOM     23  C   UNL     1      -6.698  -3.448 130.536  0.00  0.00    +0.000 C 
ATOM     24  O   UNL     1      -5.974  -4.374 130.965  0.00  0.00    +0.000 OA
BRANCH  23  25
ATOM     25  C   UNL     1      -6.752  -3.064 129.117  0.00  0.00    +0.000 A 
ATOM     26  C   UNL     1      -5.616  -2.518 128.547  0.00  0.00    +0.000 A 
ATOM     27  N   UNL     1      -5.534  -2.095 127.260  0.00  0.00    +0.000 NA
ATOM     28  C   UNL     1      -6.655  -2.202 126.505  0.00  0.00    +0.000 A 
ATOM     29  C   UNL     1      -7.845  -2.718 126.985  0.00  0.00    +0.000 A 
ATOM     30 BR   UNL     1      -9.364  -2.810 125.868  0.00  0.00    +0.000 Br
ATOM     31  C   UNL     1      -7.889  -3.154 128.310  0.00  0.00    +0.000 A 
ENDBRANCH  23  25
ENDBRANCH  22  23
ENDBRANCH  21  22
ENDBRANCH  15  21
TORSDOF 5
ENDMDL
MODEL 9
REMARK VINA RESULT:      -7.6      3.699      5.649
REMARK  Name = Nicergoline
REMARK  8 active torsions:
REMARK  status: ('A' for Active; 'I' for Inactive)
REMARK    1  A    between atoms: N_6  and  C_7
REMARK    2  A    between atoms: C_14  and  O_31
REMARK    3  A    between atoms: C_16  and  C_17
REMARK    4  A    between atoms: C_17  and  O_18
REMARK    5  A    between atoms: O_18  and  C_19
REMARK    6  A    between atoms: C_19  and  C_21
REMARK    7  A    between atoms: N_29  and  C_30
REMARK    8  A    between atoms: O_31  and  C_32
REMARK                            x       y       z     vdW  Elec       q    Type
REMARK                         _______ _______ _______ _____ _____    ______ ____
ROOT
ATOM      1  C   UNL     1      -6.623   0.341 131.193  0.00  0.00    +0.000 C 
ATOM      2  C   UNL     1      -4.963   0.545 131.427  0.00  0.00    +0.000 C 
ATOM      3  C   UNL     1      -4.584  -0.833 131.609  0.00  0.00    +0.000 A 
ATOM      4  C   UNL     1      -3.819  -1.540 132.458  0.00  0.00    +0.000 A 
ATOM      5  N   UNL     1      -4.212  -2.841 132.297  0.00  0.00    +0.000 N 
ATOM      6  C   UNL     1      -3.599  -3.919 133.022  0.00  0.00    +0.000 C 
ATOM      7  C   UNL     1      -5.162  -2.966 131.299  0.00  0.00    +0.000 A 
ATOM      8  C   UNL     1      -5.996  -4.023 130.909  0.00  0.00    +0.000 A 
ATOM      9  C   UNL     1      -6.820  -3.750 129.823  0.00  0.00    +0.000 A 
ATOM     10  C   UNL     1      -6.710  -2.489 129.118  0.00  0.00    +0.000 A 
ATOM     11  C   UNL     1      -5.960  -1.264 129.631  0.00  0.00    +0.000 A 
ATOM     12  C   UNL     1      -5.180  -1.705 130.708  0.00  0.00    +0.000 A 
ATOM     13  C   UNL     1      -6.546   0.463 129.675  0.00  0.00    +0.000 C 
ATOM     14  C   UNL     1      -6.306   2.343 130.319  0.00  0.00    +0.000 C 
ATOM     15  C   UNL     1      -7.078   2.854 131.965  0.00  0.00    +0.000 C 
ATOM     16  C   UNL     1      -7.068   1.665 133.018  0.00  0.00    +0.000 C 
ATOM     17  N   UNL     1      -7.568   0.442 132.365  0.00  0.00    +0.000 NA
ATOM     18  C   UNL     1      -9.019   0.772 132.035  0.00  0.00    +0.000 C 
ENDROOT
BRANCH  13  19
ATOM     19  O   UNL     1      -7.831   0.139 129.043  0.00  0.00    +0.000 OA
ATOM     20  C   UNL     1      -7.999   0.837 127.783  0.00  0.00    +0.000 C 
ENDBRANCH  13  19
BRANCH  15  21
ATOM     21  C   UNL     1      -8.513   3.528 131.852  0.00  0.00    +0.000 C 
BRANCH  21  22
ATOM     22  O   UNL     1      -8.274   4.944 131.692  0.00  0.00    +0.000 OA
BRANCH  22  23
ATOM     23  C   UNL     1      -8.985   5.826 132.403  0.00  0.00    +0.000 C 
ATOM     24  O   UNL     1      -8.754   6.170 133.584  0.00  0.00    +0.000 OA
BRANCH  23  25
ATOM     25  C   UNL     1     -10.060   6.416 131.592  0.00  0.00    +0.000 A 
ATOM     26  C   UNL     1     -11.357   6.324 132.065  0.00  0.00    +0.000 A 
ATOM     27  N   UNL     1     -12.446   6.799 131.407  0.00  0.00    +0.000 NA
ATOM     28  C   UNL     1     -12.232   7.378 130.201  0.00  0.00    +0.000 A 
ATOM     29  C   UNL     1     -10.977   7.503 129.633  0.00  0.00    +0.000 A 
ATOM     30 BR   UNL     1     -10.774   8.306 127.936  0.00  0.00    +0.000 Br
ATOM     31  C   UNL     1      -9.879   7.015 130.343  0.00  0.00    +0.000 A 
ENDBRANCH  23  25
ENDBRANCH  22  23
ENDBRANCH  21  22
ENDBRANCH  15  21
TORSDOF 5
ENDMDL
