MODEL 1
REMARK VINA RESULT:      -7.3      0.000      0.000
REMARK  Name = Niclosamide
REMARK  4 active torsions:
REMARK  status: ('A' for Active; 'I' for Inactive)
REMARK    1  A    between atoms: O_1  and  C_2
REMARK    2  A    between atoms: C_3  and  C_9
REMARK    3  A    between atoms: N_11  and  C_12
REMARK    4  A    between atoms: C_16  and  N_19
REMARK                            x       y       z     vdW  Elec       q    Type
REMARK                         _______ _______ _______ _____ _____    ______ ____
ROOT
ATOM      1  C   UNL     1     -11.575   6.554 130.633  0.00  0.00    +0.000 C 
ATOM      2  O   UNL     1     -11.812   6.513 131.846  0.00  0.00    +0.000 OA
ATOM      3  N   UNL     1     -10.609   5.747 130.036  0.00  0.00    +0.000 N 
ATOM      4  H   UNL     1     -10.088   6.116 129.264  0.00  0.00    +0.000 HD
ENDROOT
BRANCH   1   6
ATOM      5  C   UNL     1     -12.771   7.438 128.490  0.00  0.00    +0.000 A 
ATOM      6  C   UNL     1     -12.323   7.572 129.813  0.00  0.00    +0.000 A 
ATOM      7  C   UNL     1     -12.575   8.810 130.461  0.00  0.00    +0.000 A 
ATOM      8  C   UNL     1     -13.232   9.858 129.808  0.00  0.00    +0.000 A 
ATOM      9 CL   UNL     1     -13.507  11.355 130.612  0.00  0.00    +0.000 Cl
ATOM     10  C   UNL     1     -13.664   9.703 128.501  0.00  0.00    +0.000 A 
ATOM     11  C   UNL     1     -13.434   8.495 127.850  0.00  0.00    +0.000 A 
BRANCH   5  12
ATOM     12  O   UNL     1     -12.603   6.370 127.657  0.00  0.00    +0.000 OA
ATOM     13  H   UNL     1     -12.304   5.587 128.130  0.00  0.00    +0.000 HD
ENDBRANCH   5  12
ENDBRANCH   1   6
BRANCH   3  14
ATOM     14  C   UNL     1      -9.931   4.710 130.731  0.00  0.00    +0.000 A 
ATOM     15  C   UNL     1      -8.735   4.899 131.447  0.00  0.00    +0.000 A 
ATOM     16 CL   UNL     1      -8.036   6.458 131.729  0.00  0.00    +0.000 Cl
ATOM     17  C   UNL     1      -8.143   3.830 132.121  0.00  0.00    +0.000 A 
ATOM     18  C   UNL     1      -8.744   2.567 132.090  0.00  0.00    +0.000 A 
ATOM     19  C   UNL     1      -9.952   2.367 131.412  0.00  0.00    +0.000 A 
ATOM     20  C   UNL     1     -10.551   3.445 130.752  0.00  0.00    +0.000 A 
BRANCH  18  21
ATOM     21  N   UNL     1      -8.105   1.454 132.800  0.00  0.00    +0.000 N 
ATOM     22  O   UNL     1      -8.401   0.305 132.449  0.00  0.00    +0.000 OA
ATOM     23  O   UNL     1      -7.305   1.732 133.705  0.00  0.00    +0.000 OA
ENDBRANCH  18  21
ENDBRANCH   3  14
TORSDOF 4
ENDMDL
MODEL 2
REMARK VINA RESULT:      -7.1      2.222      2.837
REMARK  Name = Niclosamide
REMARK  4 active torsions:
REMARK  status: ('A' for Active; 'I' for Inactive)
REMARK    1  A    between atoms: O_1  and  C_2
REMARK    2  A    between atoms: C_3  and  C_9
REMARK    3  A    between atoms: N_11  and  C_12
REMARK    4  A    between atoms: C_16  and  N_19
REMARK                            x       y       z     vdW  Elec       q    Type
REMARK                         _______ _______ _______ _____ _____    ______ ____
ROOT
ATOM      1  C   UNL     1     -10.412   6.815 129.096  0.00  0.00    +0.000 C 
ATOM      2  O   UNL     1      -9.762   6.264 128.200  0.00  0.00    +0.000 OA
ATOM      3  N   UNL     1     -10.083   6.683 130.444  0.00  0.00    +0.000 N 
ATOM      4  H   UNL     1     -10.824   6.663 131.118  0.00  0.00    +0.000 HD
ENDROOT
BRANCH   1   6
ATOM      5  C   UNL     1     -12.458   7.362 127.573  0.00  0.00    +0.000 A 
ATOM      6  C   UNL     1     -11.639   7.588 128.690  0.00  0.00    +0.000 A 
ATOM      7  C   UNL     1     -11.976   8.681 129.531  0.00  0.00    +0.000 A 
ATOM      8  C   UNL     1     -13.072   9.506 129.256  0.00  0.00    +0.000 A 
ATOM      9 CL   UNL     1     -13.448  10.836 130.282  0.00  0.00    +0.000 Cl
ATOM     10  C   UNL     1     -13.866   9.263 128.146  0.00  0.00    +0.000 A 
ATOM     11  C   UNL     1     -13.557   8.193 127.313  0.00  0.00    +0.000 A 
BRANCH   5  12
ATOM     12  O   UNL     1     -12.304   6.411 126.606  0.00  0.00    +0.000 OA
ATOM     13  H   UNL     1     -12.713   5.576 126.852  0.00  0.00    +0.000 HD
ENDBRANCH   5  12
ENDBRANCH   1   6
BRANCH   3  14
ATOM     14  C   UNL     1      -8.896   6.043 130.890  0.00  0.00    +0.000 A 
ATOM     15  C   UNL     1      -8.780   4.654 131.081  0.00  0.00    +0.000 A 
ATOM     16 CL   UNL     1     -10.010   3.528 130.617  0.00  0.00    +0.000 Cl
ATOM     17  C   UNL     1      -7.569   4.102 131.502  0.00  0.00    +0.000 A 
ATOM     18  C   UNL     1      -6.466   4.931 131.730  0.00  0.00    +0.000 A 
ATOM     19  C   UNL     1      -6.552   6.312 131.513  0.00  0.00    +0.000 A 
ATOM     20  C   UNL     1      -7.762   6.859 131.073  0.00  0.00    +0.000 A 
BRANCH  18  21
ATOM     21  N   UNL     1      -5.203   4.333 132.177  0.00  0.00    +0.000 N 
ATOM     22  O   UNL     1      -4.166   4.985 131.999  0.00  0.00    +0.000 OA
ATOM     23  O   UNL     1      -5.252   3.216 132.710  0.00  0.00    +0.000 OA
ENDBRANCH  18  21
ENDBRANCH   3  14
TORSDOF 4
ENDMDL
MODEL 3
REMARK VINA RESULT:      -6.9      2.111      2.580
REMARK  Name = Niclosamide
REMARK  4 active torsions:
REMARK  status: ('A' for Active; 'I' for Inactive)
REMARK    1  A    between atoms: O_1  and  C_2
REMARK    2  A    between atoms: C_3  and  C_9
REMARK    3  A    between atoms: N_11  and  C_12
REMARK    4  A    between atoms: C_16  and  N_19
REMARK                            x       y       z     vdW  Elec       q    Type
REMARK                         _______ _______ _______ _____ _____    ______ ____
ROOT
ATOM      1  C   UNL     1     -10.338   6.194 131.286  0.00  0.00    +0.000 C 
ATOM      2  O   UNL     1     -10.405   6.482 132.487  0.00  0.00    +0.000 OA
ATOM      3  N   UNL     1      -9.447   5.243 130.797  0.00  0.00    +0.000 N 
ATOM      4  H   UNL     1      -9.045   5.385 129.890  0.00  0.00    +0.000 HD
ENDROOT
BRANCH   1   6
ATOM      5  C   UNL     1     -12.462   7.549 130.609  0.00  0.00    +0.000 A 
ATOM      6  C   UNL     1     -11.215   6.968 130.337  0.00  0.00    +0.000 A 
ATOM      7  C   UNL     1     -10.715   7.095 129.013  0.00  0.00    +0.000 A 
ATOM      8  C   UNL     1     -11.439   7.762 128.019  0.00  0.00    +0.000 A 
ATOM      9 CL   UNL     1     -10.818   7.884 126.418  0.00  0.00    +0.000 Cl
ATOM     10  C   UNL     1     -12.670   8.326 128.312  0.00  0.00    +0.000 A 
ATOM     11  C   UNL     1     -13.174   8.219 129.603  0.00  0.00    +0.000 A 
BRANCH   5  12
ATOM     12  O   UNL     1     -13.159   7.515 131.783  0.00  0.00    +0.000 OA
ATOM     13  H   UNL     1     -12.805   6.862 132.395  0.00  0.00    +0.000 HD
ENDBRANCH   5  12
ENDBRANCH   1   6
BRANCH   3  14
ATOM     14  C   UNL     1      -8.656   4.418 131.642  0.00  0.00    +0.000 A 
ATOM     15  C   UNL     1      -7.386   4.782 132.126  0.00  0.00    +0.000 A 
ATOM     16 CL   UNL     1      -6.705   6.359 131.908  0.00  0.00    +0.000 Cl
ATOM     17  C   UNL     1      -6.684   3.921 132.971  0.00  0.00    +0.000 A 
ATOM     18  C   UNL     1      -7.245   2.695 133.341  0.00  0.00    +0.000 A 
ATOM     19  C   UNL     1      -8.522   2.329 132.897  0.00  0.00    +0.000 A 
ATOM     20  C   UNL     1      -9.231   3.203 132.065  0.00  0.00    +0.000 A 
BRANCH  18  21
ATOM     21  N   UNL     1      -6.489   1.801 134.225  0.00  0.00    +0.000 N 
ATOM     22  O   UNL     1      -5.653   2.314 134.980  0.00  0.00    +0.000 OA
ATOM     23  O   UNL     1      -6.737   0.588 134.166  0.00  0.00    +0.000 OA
ENDBRANCH  18  21
ENDBRANCH   3  14
TORSDOF 4
ENDMDL
MODEL 4
REMARK VINA RESULT:      -6.9      1.806      2.128
REMARK  Name = Niclosamide
REMARK  4 active torsions:
REMARK  status: ('A' for Active; 'I' for Inactive)
REMARK    1  A    between atoms: O_1  and  C_2
REMARK    2  A    between atoms: C_3  and  C_9
REMARK    3  A    between atoms: N_11  and  C_12
REMARK    4  A    between atoms: C_16  and  N_19
REMARK                            x       y       z     vdW  Elec       q    Type
REMARK                         _______ _______ _______ _____ _____    ______ ____
ROOT
ATOM      1  C   UNL     1      -9.607   5.608 129.776  0.00  0.00    +0.000 C 
ATOM      2  O   UNL     1      -8.455   5.463 129.352  0.00  0.00    +0.000 OA
ATOM      3  N   UNL     1     -10.142   4.795 130.772  0.00  0.00    +0.000 N 
ATOM      4  H   UNL     1     -11.117   4.568 130.734  0.00  0.00    +0.000 HD
ENDROOT
BRANCH   1   6
ATOM      5  C   UNL     1     -10.508   6.997 127.761  0.00  0.00    +0.000 A 
ATOM      6  C   UNL     1     -10.460   6.663 129.122  0.00  0.00    +0.000 A 
ATOM      7  C   UNL     1     -11.287   7.410 130.003  0.00  0.00    +0.000 A 
ATOM      8  C   UNL     1     -12.108   8.441 129.537  0.00  0.00    +0.000 A 
ATOM      9 CL   UNL     1     -13.086   9.344 130.630  0.00  0.00    +0.000 Cl
ATOM     10  C   UNL     1     -12.137   8.755 128.188  0.00  0.00    +0.000 A 
ATOM     11  C   UNL     1     -11.341   8.031 127.307  0.00  0.00    +0.000 A 
BRANCH   5  12
ATOM     12  O   UNL     1      -9.775   6.457 126.743  0.00  0.00    +0.000 OA
ATOM     13  H   UNL     1      -9.531   5.543 126.920  0.00  0.00    +0.000 HD
ENDBRANCH   5  12
ENDBRANCH   1   6
BRANCH   3  14
ATOM     14  C   UNL     1      -9.369   3.841 131.489  0.00  0.00    +0.000 A 
ATOM     15  C   UNL     1      -8.574   4.157 132.606  0.00  0.00    +0.000 A 
ATOM     16 CL   UNL     1      -8.582   5.713 133.364  0.00  0.00    +0.000 Cl
ATOM     17  C   UNL     1      -7.862   3.155 133.266  0.00  0.00    +0.000 A 
ATOM     18  C   UNL     1      -7.942   1.832 132.820  0.00  0.00    +0.000 A 
ATOM     19  C   UNL     1      -8.755   1.492 131.731  0.00  0.00    +0.000 A 
ATOM     20  C   UNL     1      -9.481   2.496 131.083  0.00  0.00    +0.000 A 
BRANCH  18  21
ATOM     21  N   UNL     1      -7.182   0.793 133.524  0.00  0.00    +0.000 N 
ATOM     22  O   UNL     1      -6.401   1.158 134.413  0.00  0.00    +0.000 OA
ATOM     23  O   UNL     1      -7.371  -0.385 133.190  0.00  0.00    +0.000 OA
ENDBRANCH  18  21
ENDBRANCH   3  14
TORSDOF 4
ENDMDL
MODEL 5
REMARK VINA RESULT:      -6.9      4.022      5.019
REMARK  Name = Niclosamide
REMARK  4 active torsions:
REMARK  status: ('A' for Active; 'I' for Inactive)
REMARK    1  A    between atoms: O_1  and  C_2
REMARK    2  A    between atoms: C_3  and  C_9
REMARK    3  A    between atoms: N_11  and  C_12
REMARK    4  A    between atoms: C_16  and  N_19
REMARK                            x       y       z     vdW  Elec       q    Type
REMARK                         _______ _______ _______ _____ _____    ______ ____
ROOT
ATOM      1  C   UNL     1      -8.503   6.346 130.668  0.00  0.00    +0.000 C 
ATOM      2  O   UNL     1      -8.106   5.823 129.620  0.00  0.00    +0.000 OA
ATOM      3  N   UNL     1      -7.671   6.530 131.770  0.00  0.00    +0.000 N 
ATOM      4  H   UNL     1      -8.066   6.448 132.687  0.00  0.00    +0.000 HD
ENDROOT
BRANCH   1   6
ATOM      5  C   UNL     1     -10.873   6.382 131.757  0.00  0.00    +0.000 A 
ATOM      6  C   UNL     1      -9.959   6.722 130.748  0.00  0.00    +0.000 A 
ATOM      7  C   UNL     1     -10.451   7.490 129.659  0.00  0.00    +0.000 A 
ATOM      8  C   UNL     1     -11.791   7.883 129.588  0.00  0.00    +0.000 A 
ATOM      9 CL   UNL     1     -12.365   8.797 128.246  0.00  0.00    +0.000 Cl
ATOM     10  C   UNL     1     -12.676   7.533 130.595  0.00  0.00    +0.000 A 
ATOM     11  C   UNL     1     -12.213   6.789 131.674  0.00  0.00    +0.000 A 
BRANCH   5  12
ATOM     12  O   UNL     1     -10.645   5.618 132.865  0.00  0.00    +0.000 OA
ATOM     13  H   UNL     1      -9.837   5.874 133.321  0.00  0.00    +0.000 HD
ENDBRANCH   5  12
ENDBRANCH   1   6
BRANCH   3  14
ATOM     14  C   UNL     1      -6.273   6.278 131.733  0.00  0.00    +0.000 A 
ATOM     15  C   UNL     1      -5.667   5.142 132.300  0.00  0.00    +0.000 A 
ATOM     16 CL   UNL     1      -6.566   3.813 132.950  0.00  0.00    +0.000 Cl
ATOM     17  C   UNL     1      -4.287   4.960 132.201  0.00  0.00    +0.000 A 
ATOM     18  C   UNL     1      -3.504   5.907 131.532  0.00  0.00    +0.000 A 
ATOM     19  C   UNL     1      -4.093   7.026 130.932  0.00  0.00    +0.000 A 
ATOM     20  C   UNL     1      -5.479   7.196 131.018  0.00  0.00    +0.000 A 
BRANCH  18  21
ATOM     21  N   UNL     1      -2.055   5.701 131.443  0.00  0.00    +0.000 N 
ATOM     22  O   UNL     1      -1.557   4.814 132.150  0.00  0.00    +0.000 OA
ATOM     23  O   UNL     1      -1.417   6.422 130.662  0.00  0.00    +0.000 OA
ENDBRANCH  18  21
ENDBRANCH   3  14
TORSDOF 4
ENDMDL
MODEL 6
REMARK VINA RESULT:      -6.8      1.735      2.010
REMARK  Name = Niclosamide
REMARK  4 active torsions:
REMARK  status: ('A' for Active; 'I' for Inactive)
REMARK    1  A    between atoms: O_1  and  C_2
REMARK    2  A    between atoms: C_3  and  C_9
REMARK    3  A    between atoms: N_11  and  C_12
REMARK    4  A    between atoms: C_16  and  N_19
REMARK                            x       y       z     vdW  Elec       q    Type
REMARK                         _______ _______ _______ _____ _____    ______ ____
ROOT
ATOM      1  C   UNL     1     -10.280   6.259 128.830  0.00  0.00    +0.000 C 
ATOM      2  O   UNL     1      -9.462   6.091 127.917  0.00  0.00    +0.000 OA
ATOM      3  N   UNL     1     -10.187   5.586 130.046  0.00  0.00    +0.000 N 
ATOM      4  H   UNL     1     -11.033   5.324 130.514  0.00  0.00    +0.000 HD
ENDROOT
BRANCH   1   6
ATOM      5  C   UNL     1     -12.230   7.235 127.399  0.00  0.00    +0.000 A 
ATOM      6  C   UNL     1     -11.444   7.175 128.560  0.00  0.00    +0.000 A 
ATOM      7  C   UNL     1     -11.752   8.092 129.600  0.00  0.00    +0.000 A 
ATOM      8  C   UNL     1     -12.789   9.022 129.472  0.00  0.00    +0.000 A 
ATOM      9 CL   UNL     1     -13.128  10.135 130.742  0.00  0.00    +0.000 Cl
ATOM     10  C   UNL     1     -13.551   9.063 128.316  0.00  0.00    +0.000 A 
ATOM     11  C   UNL     1     -13.270   8.170 127.288  0.00  0.00    +0.000 A 
BRANCH   5  12
ATOM     12  O   UNL     1     -12.093   6.495 126.260  0.00  0.00    +0.000 OA
ATOM     13  H   UNL     1     -12.026   5.554 126.447  0.00  0.00    +0.000 HD
ENDBRANCH   5  12
ENDBRANCH   1   6
BRANCH   3  14
ATOM     14  C   UNL     1      -9.073   4.777 130.398  0.00  0.00    +0.000 A 
ATOM     15  C   UNL     1      -7.827   5.291 130.800  0.00  0.00    +0.000 A 
ATOM     16 CL   UNL     1      -7.548   6.974 131.098  0.00  0.00    +0.000 Cl
ATOM     17  C   UNL     1      -6.790   4.425 131.150  0.00  0.00    +0.000 A 
ATOM     18  C   UNL     1      -6.991   3.042 131.106  0.00  0.00    +0.000 A 
ATOM     19  C   UNL     1      -8.235   2.511 130.742  0.00  0.00    +0.000 A 
ATOM     20  C   UNL     1      -9.277   3.383 130.409  0.00  0.00    +0.000 A 
BRANCH  18  21
ATOM     21  N   UNL     1      -5.888   2.148 131.473  0.00  0.00    +0.000 N 
ATOM     22  O   UNL     1      -4.751   2.451 131.086  0.00  0.00    +0.000 OA
ATOM     23  O   UNL     1      -6.159   1.146 132.151  0.00  0.00    +0.000 OA
ENDBRANCH  18  21
ENDBRANCH   3  14
TORSDOF 4
ENDMDL
MODEL 7
REMARK VINA RESULT:      -6.7      2.320      3.100
REMARK  Name = Niclosamide
REMARK  4 active torsions:
REMARK  status: ('A' for Active; 'I' for Inactive)
REMARK    1  A    between atoms: O_1  and  C_2
REMARK    2  A    between atoms: C_3  and  C_9
REMARK    3  A    between atoms: N_11  and  C_12
REMARK    4  A    between atoms: C_16  and  N_19
REMARK                            x       y       z     vdW  Elec       q    Type
REMARK                         _______ _______ _______ _____ _____    ______ ____
ROOT
ATOM      1  C   UNL     1      -9.636   4.904 130.654  0.00  0.00    +0.000 C 
ATOM      2  O   UNL     1      -8.513   4.935 130.137  0.00  0.00    +0.000 OA
ATOM      3  N   UNL     1     -10.039   3.871 131.496  0.00  0.00    +0.000 N 
ATOM      4  H   UNL     1     -10.999   3.582 131.474  0.00  0.00    +0.000 HD
ENDROOT
BRANCH   1   6
ATOM      5  C   UNL     1     -11.666   6.492 131.052  0.00  0.00    +0.000 A 
ATOM      6  C   UNL     1     -10.601   5.999 130.284  0.00  0.00    +0.000 A 
ATOM      7  C   UNL     1     -10.411   6.569 128.997  0.00  0.00    +0.000 A 
ATOM      8  C   UNL     1     -11.254   7.574 128.510  0.00  0.00    +0.000 A 
ATOM      9 CL   UNL     1     -11.013   8.234 126.939  0.00  0.00    +0.000 Cl
ATOM     10  C   UNL     1     -12.301   8.044 129.287  0.00  0.00    +0.000 A 
ATOM     11  C   UNL     1     -12.500   7.504 130.553  0.00  0.00    +0.000 A 
BRANCH   5  12
ATOM     12  O   UNL     1     -12.070   6.070 132.287  0.00  0.00    +0.000 OA
ATOM     13  H   UNL     1     -12.060   6.782 132.933  0.00  0.00    +0.000 HD
ENDBRANCH   5  12
ENDBRANCH   1   6
BRANCH   3  14
ATOM     14  C   UNL     1      -9.155   2.857 131.954  0.00  0.00    +0.000 A 
ATOM     15  C   UNL     1      -8.363   2.971 133.111  0.00  0.00    +0.000 A 
ATOM     16 CL   UNL     1      -8.504   4.285 134.229  0.00  0.00    +0.000 Cl
ATOM     17  C   UNL     1      -7.536   1.917 133.502  0.00  0.00    +0.000 A 
ATOM     18  C   UNL     1      -7.497   0.742 132.745  0.00  0.00    +0.000 A 
ATOM     19  C   UNL     1      -8.303   0.596 131.609  0.00  0.00    +0.000 A 
ATOM     20  C   UNL     1      -9.145   1.647 131.231  0.00  0.00    +0.000 A 
BRANCH  18  21
ATOM     21  N   UNL     1      -6.617  -0.352 133.169  0.00  0.00    +0.000 N 
ATOM     22  O   UNL     1      -6.566  -0.610 134.379  0.00  0.00    +0.000 OA
ATOM     23  O   UNL     1      -5.983  -0.955 132.291  0.00  0.00    +0.000 OA
ENDBRANCH  18  21
ENDBRANCH   3  14
TORSDOF 4
ENDMDL
MODEL 8
REMARK VINA RESULT:      -6.7      9.030     10.242
REMARK  Name = Niclosamide
REMARK  4 active torsions:
REMARK  status: ('A' for Active; 'I' for Inactive)
REMARK    1  A    between atoms: O_1  and  C_2
REMARK    2  A    between atoms: C_3  and  C_9
REMARK    3  A    between atoms: N_11  and  C_12
REMARK    4  A    between atoms: C_16  and  N_19
REMARK                            x       y       z     vdW  Elec       q    Type
REMARK                         _______ _______ _______ _____ _____    ______ ____
ROOT
ATOM      1  C   UNL     1      -8.185  -2.946 127.917  0.00  0.00    +0.000 C 
ATOM      2  O   UNL     1      -9.015  -3.720 128.409  0.00  0.00    +0.000 OA
ATOM      3  N   UNL     1      -7.409  -2.093 128.697  0.00  0.00    +0.000 N 
ATOM      4  H   UNL     1      -7.172  -1.191 128.330  0.00  0.00    +0.000 HD
ENDROOT
BRANCH   1   6
ATOM      5  C   UNL     1      -9.138  -2.968 125.489  0.00  0.00    +0.000 A 
ATOM      6  C   UNL     1      -8.087  -2.897 126.415  0.00  0.00    +0.000 A 
ATOM      7  C   UNL     1      -6.770  -2.789 125.894  0.00  0.00    +0.000 A 
ATOM      8  C   UNL     1      -6.527  -2.764 124.517  0.00  0.00    +0.000 A 
ATOM      9 CL   UNL     1      -4.918  -2.653 123.913  0.00  0.00    +0.000 Cl
ATOM     10  C   UNL     1      -7.581  -2.837 123.621  0.00  0.00    +0.000 A 
ATOM     11  C   UNL     1      -8.879  -2.935 124.110  0.00  0.00    +0.000 A 
BRANCH   5  12
ATOM     12  O   UNL     1     -10.469  -3.121 125.749  0.00  0.00    +0.000 OA
ATOM     13  H   UNL     1     -10.651  -3.156 126.693  0.00  0.00    +0.000 HD
ENDBRANCH   5  12
ENDBRANCH   1   6
BRANCH   3  14
ATOM     14  C   UNL     1      -7.389  -2.148 130.117  0.00  0.00    +0.000 A 
ATOM     15  C   UNL     1      -6.744  -3.158 130.853  0.00  0.00    +0.000 A 
ATOM     16 CL   UNL     1      -5.732  -4.360 130.127  0.00  0.00    +0.000 Cl
ATOM     17  C   UNL     1      -6.755  -3.125 132.249  0.00  0.00    +0.000 A 
ATOM     18  C   UNL     1      -7.406  -2.083 132.917  0.00  0.00    +0.000 A 
ATOM     19  C   UNL     1      -8.024  -1.050 132.202  0.00  0.00    +0.000 A 
ATOM     20  C   UNL     1      -7.995  -1.077 130.804  0.00  0.00    +0.000 A 
BRANCH  18  21
ATOM     21  N   UNL     1      -7.411  -2.069 134.384  0.00  0.00    +0.000 N 
ATOM     22  O   UNL     1      -8.222  -2.805 134.961  0.00  0.00    +0.000 OA
ATOM     23  O   UNL     1      -6.601  -1.326 134.956  0.00  0.00    +0.000 OA
ENDBRANCH  18  21
ENDBRANCH   3  14
TORSDOF 4
ENDMDL
MODEL 9
REMARK VINA RESULT:      -6.7      4.131      7.751
REMARK  Name = Niclosamide
REMARK  4 active torsions:
REMARK  status: ('A' for Active; 'I' for Inactive)
REMARK    1  A    between atoms: O_1  and  C_2
REMARK    2  A    between atoms: C_3  and  C_9
REMARK    3  A    between atoms: N_11  and  C_12
REMARK    4  A    between atoms: C_16  and  N_19
REMARK                            x       y       z     vdW  Elec       q    Type
REMARK                         _______ _______ _______ _____ _____    ______ ____
ROOT
ATOM      1  C   UNL     1      -6.022   6.020 130.668  0.00  0.00    +0.000 C 
ATOM      2  O   UNL     1      -6.399   5.322 129.719  0.00  0.00    +0.000 OA
ATOM      3  N   UNL     1      -6.901   6.805 131.410  0.00  0.00    +0.000 N 
ATOM      4  H   UNL     1      -6.574   7.683 131.768  0.00  0.00    +0.000 HD
ENDROOT
BRANCH   1   6
ATOM      5  C   UNL     1      -3.607   5.036 130.741  0.00  0.00    +0.000 A 
ATOM      6  C   UNL     1      -4.545   6.056 130.960  0.00  0.00    +0.000 A 
ATOM      7  C   UNL     1      -4.069   7.259 131.545  0.00  0.00    +0.000 A 
ATOM      8  C   UNL     1      -2.725   7.420 131.898  0.00  0.00    +0.000 A 
ATOM      9 CL   UNL     1      -2.179   8.882 132.624  0.00  0.00    +0.000 Cl
ATOM     10  C   UNL     1      -1.818   6.397 131.673  0.00  0.00    +0.000 A 
ATOM     11  C   UNL     1      -2.262   5.213 131.094  0.00  0.00    +0.000 A 
BRANCH   5  12
ATOM     12  O   UNL     1      -3.837   3.786 130.240  0.00  0.00    +0.000 OA
ATOM     13  H   UNL     1      -4.311   3.814 129.403  0.00  0.00    +0.000 HD
ENDBRANCH   5  12
ENDBRANCH   1   6
BRANCH   3  14
ATOM     14  C   UNL     1      -8.311   6.753 131.244  0.00  0.00    +0.000 A 
ATOM     15  C   UNL     1      -9.186   6.139 132.159  0.00  0.00    +0.000 A 
ATOM     16 CL   UNL     1      -8.673   5.531 133.697  0.00  0.00    +0.000 Cl
ATOM     17  C   UNL     1     -10.562   6.151 131.931  0.00  0.00    +0.000 A 
ATOM     18  C   UNL     1     -11.076   6.781 130.792  0.00  0.00    +0.000 A 
ATOM     19  C   UNL     1     -10.225   7.427 129.887  0.00  0.00    +0.000 A 
ATOM     20  C   UNL     1      -8.847   7.428 130.129  0.00  0.00    +0.000 A 
BRANCH  18  21
ATOM     21  N   UNL     1     -12.525   6.778 130.567  0.00  0.00    +0.000 N 
ATOM     22  O   UNL     1     -12.931   6.442 129.446  0.00  0.00    +0.000 OA
ATOM     23  O   UNL     1     -13.255   7.109 131.512  0.00  0.00    +0.000 OA
ENDBRANCH  18  21
ENDBRANCH   3  14
TORSDOF 4
ENDMDL
