MODEL 1
REMARK VINA RESULT:      -5.6      0.000      0.000
REMARK  Name = Nicoboxil
REMARK  9 active torsions:
REMARK  status: ('A' for Active; 'I' for Inactive)
REMARK    1  A    between atoms: C_1  and  C_2
REMARK    2  A    between atoms: C_2  and  C_3
REMARK    3  A    between atoms: C_3  and  C_4
REMARK    4  A    between atoms: C_4  and  O_5
REMARK    5  A    between atoms: O_5  and  C_6
REMARK    6  A    between atoms: C_6  and  C_7
REMARK    7  A    between atoms: C_7  and  O_8
REMARK    8  A    between atoms: O_8  and  C_9
REMARK    9  A    between atoms: C_9  and  C_11
REMARK                            x       y       z     vdW  Elec       q    Type
REMARK                         _______ _______ _______ _____ _____    ______ ____
ROOT
ATOM      1  O   UNL     1      -7.670   1.542 123.622  0.00  0.00    +0.000 OA
ENDROOT
BRANCH   1   2
ATOM      2  C   UNL     1      -7.820   2.890 123.517  0.00  0.00    +0.000 C 
ATOM      3  O   UNL     1      -8.547   3.586 124.213  0.00  0.00    +0.000 OA
BRANCH   2   4
ATOM      4  C   UNL     1      -6.951   3.464 122.468  0.00  0.00    +0.000 A 
ATOM      5  C   UNL     1      -5.761   4.078 122.844  0.00  0.00    +0.000 A 
ATOM      6  N   UNL     1      -4.914   4.698 121.978  0.00  0.00    +0.000 NA
ATOM      7  C   UNL     1      -5.284   4.725 120.681  0.00  0.00    +0.000 A 
ATOM      8  C   UNL     1      -6.455   4.150 120.208  0.00  0.00    +0.000 A 
ATOM      9  C   UNL     1      -7.302   3.506 121.117  0.00  0.00    +0.000 A 
ENDBRANCH   2   4
ENDBRANCH   1   2
BRANCH   1  10
ATOM     10  C   UNL     1      -8.869   0.839 124.027  0.00  0.00    +0.000 C 
BRANCH  10  11
ATOM     11  C   UNL     1      -9.771   0.601 122.814  0.00  0.00    +0.000 C 
BRANCH  11  12
ATOM     12  O   UNL     1     -10.087  -0.788 122.675  0.00  0.00    +0.000 OA
BRANCH  12  13
ATOM     13  C   UNL     1      -8.974  -1.600 123.059  0.00  0.00    +0.000 C 
BRANCH  13  14
ATOM     14  C   UNL     1      -9.432  -3.035 123.290  0.00  0.00    +0.000 C 
BRANCH  14  16
ATOM     15  C   UNL     1      -9.292  -2.932 125.797  0.00  0.00    +0.000 C 
ATOM     16  C   UNL     1      -8.775  -3.613 124.543  0.00  0.00    +0.000 C 
ENDBRANCH  14  16
ENDBRANCH  13  14
ENDBRANCH  12  13
ENDBRANCH  11  12
ENDBRANCH  10  11
ENDBRANCH   1  10
TORSDOF 8
ENDMDL
MODEL 2
REMARK VINA RESULT:      -5.5      4.126      6.954
REMARK  Name = Nicoboxil
REMARK  9 active torsions:
REMARK  status: ('A' for Active; 'I' for Inactive)
REMARK    1  A    between atoms: C_1  and  C_2
REMARK    2  A    between atoms: C_2  and  C_3
REMARK    3  A    between atoms: C_3  and  C_4
REMARK    4  A    between atoms: C_4  and  O_5
REMARK    5  A    between atoms: O_5  and  C_6
REMARK    6  A    between atoms: C_6  and  C_7
REMARK    7  A    between atoms: C_7  and  O_8
REMARK    8  A    between atoms: O_8  and  C_9
REMARK    9  A    between atoms: C_9  and  C_11
REMARK                            x       y       z     vdW  Elec       q    Type
REMARK                         _______ _______ _______ _____ _____    ______ ____
ROOT
ATOM      1  O   UNL     1      -9.595  -2.106 124.634  0.00  0.00    +0.000 OA
ENDROOT
BRANCH   1   2
ATOM      2  C   UNL     1      -8.958  -3.148 125.233  0.00  0.00    +0.000 C 
ATOM      3  O   UNL     1      -8.626  -4.192 124.689  0.00  0.00    +0.000 OA
BRANCH   2   4
ATOM      4  C   UNL     1      -8.650  -2.868 126.652  0.00  0.00    +0.000 A 
ATOM      5  C   UNL     1      -8.012  -1.676 126.979  0.00  0.00    +0.000 A 
ATOM      6  N   UNL     1      -7.620  -1.340 128.238  0.00  0.00    +0.000 NA
ATOM      7  C   UNL     1      -7.857  -2.244 129.210  0.00  0.00    +0.000 A 
ATOM      8  C   UNL     1      -8.478  -3.463 128.984  0.00  0.00    +0.000 A 
ATOM      9  C   UNL     1      -8.885  -3.780 127.683  0.00  0.00    +0.000 A 
ENDBRANCH   2   4
ENDBRANCH   1   2
BRANCH   1  10
ATOM     10  C   UNL     1      -8.992  -1.673 123.392  0.00  0.00    +0.000 C 
BRANCH  10  11
ATOM     11  C   UNL     1      -8.392  -0.275 123.562  0.00  0.00    +0.000 C 
BRANCH  11  12
ATOM     12  O   UNL     1      -6.965  -0.339 123.661  0.00  0.00    +0.000 OA
BRANCH  12  13
ATOM     13  C   UNL     1      -6.467  -1.526 123.038  0.00  0.00    +0.000 C 
BRANCH  13  14
ATOM     14  C   UNL     1      -5.554  -2.275 124.000  0.00  0.00    +0.000 C 
BRANCH  14  16
ATOM     15  C   UNL     1      -4.684  -4.629 123.891  0.00  0.00    +0.000 C 
ATOM     16  C   UNL     1      -4.664  -3.257 123.241  0.00  0.00    +0.000 C 
ENDBRANCH  14  16
ENDBRANCH  13  14
ENDBRANCH  12  13
ENDBRANCH  11  12
ENDBRANCH  10  11
ENDBRANCH   1  10
TORSDOF 8
ENDMDL
MODEL 3
REMARK VINA RESULT:      -5.3      9.318     10.643
REMARK  Name = Nicoboxil
REMARK  9 active torsions:
REMARK  status: ('A' for Active; 'I' for Inactive)
REMARK    1  A    between atoms: C_1  and  C_2
REMARK    2  A    between atoms: C_2  and  C_3
REMARK    3  A    between atoms: C_3  and  C_4
REMARK    4  A    between atoms: C_4  and  O_5
REMARK    5  A    between atoms: O_5  and  C_6
REMARK    6  A    between atoms: C_6  and  C_7
REMARK    7  A    between atoms: C_7  and  O_8
REMARK    8  A    between atoms: O_8  and  C_9
REMARK    9  A    between atoms: C_9  and  C_11
REMARK                            x       y       z     vdW  Elec       q    Type
REMARK                         _______ _______ _______ _____ _____    ______ ____
ROOT
ATOM      1  O   UNL     1      -8.150   6.765 130.336  0.00  0.00    +0.000 OA
ENDROOT
BRANCH   1   2
ATOM      2  C   UNL     1      -9.436   6.811 130.778  0.00  0.00    +0.000 C 
ATOM      3  O   UNL     1      -9.801   6.658 131.935  0.00  0.00    +0.000 OA
BRANCH   2   4
ATOM      4  C   UNL     1     -10.385   7.124 129.689  0.00  0.00    +0.000 A 
ATOM      5  C   UNL     1     -11.486   6.295 129.499  0.00  0.00    +0.000 A 
ATOM      6  N   UNL     1     -12.389   6.444 128.491  0.00  0.00    +0.000 NA
ATOM      7  C   UNL     1     -12.170   7.452 127.622  0.00  0.00    +0.000 A 
ATOM      8  C   UNL     1     -11.097   8.326 127.721  0.00  0.00    +0.000 A 
ATOM      9  C   UNL     1     -10.190   8.161 128.774  0.00  0.00    +0.000 A 
ENDBRANCH   2   4
ENDBRANCH   1   2
BRANCH   1  10
ATOM     10  C   UNL     1      -7.158   6.749 131.391  0.00  0.00    +0.000 C 
BRANCH  10  11
ATOM     11  C   UNL     1      -5.754   6.688 130.785  0.00  0.00    +0.000 C 
BRANCH  11  12
ATOM     12  O   UNL     1      -5.400   7.939 130.185  0.00  0.00    +0.000 OA
BRANCH  12  13
ATOM     13  C   UNL     1      -4.053   7.907 129.705  0.00  0.00    +0.000 C 
BRANCH  13  14
ATOM     14  C   UNL     1      -3.121   7.413 130.804  0.00  0.00    +0.000 C 
BRANCH  14  16
ATOM     15  C   UNL     1      -2.146   6.383 128.730  0.00  0.00    +0.000 C 
ATOM     16  C   UNL     1      -2.127   6.394 130.248  0.00  0.00    +0.000 C 
ENDBRANCH  14  16
ENDBRANCH  13  14
ENDBRANCH  12  13
ENDBRANCH  11  12
ENDBRANCH  10  11
ENDBRANCH   1  10
TORSDOF 8
ENDMDL
MODEL 4
REMARK VINA RESULT:      -5.3      2.333      2.833
REMARK  Name = Nicoboxil
REMARK  9 active torsions:
REMARK  status: ('A' for Active; 'I' for Inactive)
REMARK    1  A    between atoms: C_1  and  C_2
REMARK    2  A    between atoms: C_2  and  C_3
REMARK    3  A    between atoms: C_3  and  C_4
REMARK    4  A    between atoms: C_4  and  O_5
REMARK    5  A    between atoms: O_5  and  C_6
REMARK    6  A    between atoms: C_6  and  C_7
REMARK    7  A    between atoms: C_7  and  O_8
REMARK    8  A    between atoms: O_8  and  C_9
REMARK    9  A    between atoms: C_9  and  C_11
REMARK                            x       y       z     vdW  Elec       q    Type
REMARK                         _______ _______ _______ _____ _____    ______ ____
ROOT
ATOM      1  O   UNL     1      -6.677   2.451 122.941  0.00  0.00    +0.000 OA
ENDROOT
BRANCH   1   2
ATOM      2  C   UNL     1      -7.579   3.134 122.186  0.00  0.00    +0.000 C 
ATOM      3  O   UNL     1      -8.781   3.209 122.401  0.00  0.00    +0.000 OA
BRANCH   2   4
ATOM      4  C   UNL     1      -6.936   3.845 121.061  0.00  0.00    +0.000 A 
ATOM      5  C   UNL     1      -5.660   4.370 121.239  0.00  0.00    +0.000 A 
ATOM      6  N   UNL     1      -4.996   5.098 120.301  0.00  0.00    +0.000 NA
ATOM      7  C   UNL     1      -5.644   5.332 119.142  0.00  0.00    +0.000 A 
ATOM      8  C   UNL     1      -6.920   4.859 118.871  0.00  0.00    +0.000 A 
ATOM      9  C   UNL     1      -7.576   4.100 119.847  0.00  0.00    +0.000 A 
ENDBRANCH   2   4
ENDBRANCH   1   2
BRANCH   1  10
ATOM     10  C   UNL     1      -7.125   1.141 123.366  0.00  0.00    +0.000 C 
BRANCH  10  11
ATOM     11  C   UNL     1      -7.229   1.095 124.892  0.00  0.00    +0.000 C 
BRANCH  11  12
ATOM     12  O   UNL     1      -6.605  -0.084 125.413  0.00  0.00    +0.000 OA
BRANCH  12  13
ATOM     13  C   UNL     1      -6.665  -1.149 124.461  0.00  0.00    +0.000 C 
BRANCH  13  14
ATOM     14  C   UNL     1      -5.401  -1.995 124.546  0.00  0.00    +0.000 C 
BRANCH  14  16
ATOM     15  C   UNL     1      -4.409  -4.101 123.601  0.00  0.00    +0.000 C 
ATOM     16  C   UNL     1      -5.260  -2.878 123.308  0.00  0.00    +0.000 C 
ENDBRANCH  14  16
ENDBRANCH  13  14
ENDBRANCH  12  13
ENDBRANCH  11  12
ENDBRANCH  10  11
ENDBRANCH   1  10
TORSDOF 8
ENDMDL
MODEL 5
REMARK VINA RESULT:      -5.3      4.803      6.463
REMARK  Name = Nicoboxil
REMARK  9 active torsions:
REMARK  status: ('A' for Active; 'I' for Inactive)
REMARK    1  A    between atoms: C_1  and  C_2
REMARK    2  A    between atoms: C_2  and  C_3
REMARK    3  A    between atoms: C_3  and  C_4
REMARK    4  A    between atoms: C_4  and  O_5
REMARK    5  A    between atoms: O_5  and  C_6
REMARK    6  A    between atoms: C_6  and  C_7
REMARK    7  A    between atoms: C_7  and  O_8
REMARK    8  A    between atoms: O_8  and  C_9
REMARK    9  A    between atoms: C_9  and  C_11
REMARK                            x       y       z     vdW  Elec       q    Type
REMARK                         _______ _______ _______ _____ _____    ______ ____
ROOT
ATOM      1  O   UNL     1      -7.966  -1.674 127.600  0.00  0.00    +0.000 OA
ENDROOT
BRANCH   1   2
ATOM      2  C   UNL     1      -8.568  -2.727 126.983  0.00  0.00    +0.000 C 
ATOM      3  O   UNL     1      -8.898  -3.777 127.517  0.00  0.00    +0.000 OA
BRANCH   2   4
ATOM      4  C   UNL     1      -8.839  -2.452 125.555  0.00  0.00    +0.000 A 
ATOM      5  C   UNL     1      -9.003  -1.134 125.144  0.00  0.00    +0.000 A 
ATOM      6  N   UNL     1      -9.320  -0.764 123.874  0.00  0.00    +0.000 NA
ATOM      7  C   UNL     1      -9.503  -1.756 122.979  0.00  0.00    +0.000 A 
ATOM      8  C   UNL     1      -9.371  -3.101 123.293  0.00  0.00    +0.000 A 
ATOM      9  C   UNL     1      -9.030  -3.455 124.603  0.00  0.00    +0.000 A 
ENDBRANCH   2   4
ENDBRANCH   1   2
BRANCH   1  10
ATOM     10  C   UNL     1      -6.749  -2.014 128.305  0.00  0.00    +0.000 C 
BRANCH  10  11
ATOM     11  C   UNL     1      -5.617  -2.260 127.304  0.00  0.00    +0.000 C 
BRANCH  11  12
ATOM     12  O   UNL     1      -5.300  -1.063 126.584  0.00  0.00    +0.000 OA
BRANCH  12  13
ATOM     13  C   UNL     1      -5.411  -1.277 125.175  0.00  0.00    +0.000 C 
BRANCH  13  14
ATOM     14  C   UNL     1      -5.367  -2.769 124.869  0.00  0.00    +0.000 C 
BRANCH  14  16
ATOM     15  C   UNL     1      -5.901  -2.084 122.512  0.00  0.00    +0.000 C 
ATOM     16  C   UNL     1      -5.073  -3.006 123.389  0.00  0.00    +0.000 C 
ENDBRANCH  14  16
ENDBRANCH  13  14
ENDBRANCH  12  13
ENDBRANCH  11  12
ENDBRANCH  10  11
ENDBRANCH   1  10
TORSDOF 8
ENDMDL
MODEL 6
REMARK VINA RESULT:      -5.2      8.559      9.790
REMARK  Name = Nicoboxil
REMARK  9 active torsions:
REMARK  status: ('A' for Active; 'I' for Inactive)
REMARK    1  A    between atoms: C_1  and  C_2
REMARK    2  A    between atoms: C_2  and  C_3
REMARK    3  A    between atoms: C_3  and  C_4
REMARK    4  A    between atoms: C_4  and  O_5
REMARK    5  A    between atoms: O_5  and  C_6
REMARK    6  A    between atoms: C_6  and  C_7
REMARK    7  A    between atoms: C_7  and  O_8
REMARK    8  A    between atoms: O_8  and  C_9
REMARK    9  A    between atoms: C_9  and  C_11
REMARK                            x       y       z     vdW  Elec       q    Type
REMARK                         _______ _______ _______ _____ _____    ______ ____
ROOT
ATOM      1  O   UNL     1     -11.382   5.818 131.346  0.00  0.00    +0.000 OA
ENDROOT
BRANCH   1   2
ATOM      2  C   UNL     1     -12.262   6.747 130.886  0.00  0.00    +0.000 C 
ATOM      3  O   UNL     1     -13.185   7.237 131.524  0.00  0.00    +0.000 OA
BRANCH   2   4
ATOM      4  C   UNL     1     -11.959   7.162 129.500  0.00  0.00    +0.000 A 
ATOM      5  C   UNL     1     -12.705   6.621 128.458  0.00  0.00    +0.000 A 
ATOM      6  N   UNL     1     -12.475   6.876 127.142  0.00  0.00    +0.000 NA
ATOM      7  C   UNL     1     -11.439   7.689 126.851  0.00  0.00    +0.000 A 
ATOM      8  C   UNL     1     -10.630   8.270 127.817  0.00  0.00    +0.000 A 
ATOM      9  C   UNL     1     -10.896   8.004 129.165  0.00  0.00    +0.000 A 
ENDBRANCH   2   4
ENDBRANCH   1   2
BRANCH   1  10
ATOM     10  C   UNL     1     -10.587   6.257 132.473  0.00  0.00    +0.000 C 
BRANCH  10  11
ATOM     11  C   UNL     1      -9.311   5.416 132.571  0.00  0.00    +0.000 C 
BRANCH  11  12
ATOM     12  O   UNL     1      -9.622   4.020 132.637  0.00  0.00    +0.000 OA
BRANCH  12  13
ATOM     13  C   UNL     1      -8.782   3.360 133.588  0.00  0.00    +0.000 C 
BRANCH  13  14
ATOM     14  C   UNL     1      -8.212   2.084 132.981  0.00  0.00    +0.000 C 
BRANCH  14  16
ATOM     15  C   UNL     1      -9.034   0.073 131.720  0.00  0.00    +0.000 C 
ATOM     16  C   UNL     1      -9.104   1.584 131.846  0.00  0.00    +0.000 C 
ENDBRANCH  14  16
ENDBRANCH  13  14
ENDBRANCH  12  13
ENDBRANCH  11  12
ENDBRANCH  10  11
ENDBRANCH   1  10
TORSDOF 8
ENDMDL
MODEL 7
REMARK VINA RESULT:      -5.0      9.153     10.699
REMARK  Name = Nicoboxil
REMARK  9 active torsions:
REMARK  status: ('A' for Active; 'I' for Inactive)
REMARK    1  A    between atoms: C_1  and  C_2
REMARK    2  A    between atoms: C_2  and  C_3
REMARK    3  A    between atoms: C_3  and  C_4
REMARK    4  A    between atoms: C_4  and  O_5
REMARK    5  A    between atoms: O_5  and  C_6
REMARK    6  A    between atoms: C_6  and  C_7
REMARK    7  A    between atoms: C_7  and  O_8
REMARK    8  A    between atoms: O_8  and  C_9
REMARK    9  A    between atoms: C_9  and  C_11
REMARK                            x       y       z     vdW  Elec       q    Type
REMARK                         _______ _______ _______ _____ _____    ______ ____
ROOT
ATOM      1  O   UNL     1     -10.594   5.629 131.023  0.00  0.00    +0.000 OA
ENDROOT
BRANCH   1   2
ATOM      2  C   UNL     1     -11.773   6.295 130.892  0.00  0.00    +0.000 C 
ATOM      3  O   UNL     1     -12.488   6.674 131.810  0.00  0.00    +0.000 OA
BRANCH   2   4
ATOM      4  C   UNL     1     -12.100   6.570 129.477  0.00  0.00    +0.000 A 
ATOM      5  C   UNL     1     -11.066   6.637 128.549  0.00  0.00    +0.000 A 
ATOM      6  N   UNL     1     -11.237   6.947 127.235  0.00  0.00    +0.000 NA
ATOM      7  C   UNL     1     -12.495   7.226 126.835  0.00  0.00    +0.000 A 
ATOM      8  C   UNL     1     -13.591   7.195 127.685  0.00  0.00    +0.000 A 
ATOM      9  C   UNL     1     -13.391   6.859 129.028  0.00  0.00    +0.000 A 
ENDBRANCH   2   4
ENDBRANCH   1   2
BRANCH   1  10
ATOM     10  C   UNL     1      -9.635   6.281 131.889  0.00  0.00    +0.000 C 
BRANCH  10  11
ATOM     11  C   UNL     1      -8.442   6.775 131.067  0.00  0.00    +0.000 C 
BRANCH  11  12
ATOM     12  O   UNL     1      -7.214   6.571 131.774  0.00  0.00    +0.000 OA
BRANCH  12  13
ATOM     13  C   UNL     1      -6.100   7.004 130.987  0.00  0.00    +0.000 C 
BRANCH  13  14
ATOM     14  C   UNL     1      -4.803   6.780 131.753  0.00  0.00    +0.000 C 
BRANCH  14  16
ATOM     15  C   UNL     1      -4.061   8.337 129.927  0.00  0.00    +0.000 C 
ATOM     16  C   UNL     1      -3.613   7.325 130.966  0.00  0.00    +0.000 C 
ENDBRANCH  14  16
ENDBRANCH  13  14
ENDBRANCH  12  13
ENDBRANCH  11  12
ENDBRANCH  10  11
ENDBRANCH   1  10
TORSDOF 8
ENDMDL
MODEL 8
REMARK VINA RESULT:      -5.0      8.935     10.435
REMARK  Name = Nicoboxil
REMARK  9 active torsions:
REMARK  status: ('A' for Active; 'I' for Inactive)
REMARK    1  A    between atoms: C_1  and  C_2
REMARK    2  A    between atoms: C_2  and  C_3
REMARK    3  A    between atoms: C_3  and  C_4
REMARK    4  A    between atoms: C_4  and  O_5
REMARK    5  A    between atoms: O_5  and  C_6
REMARK    6  A    between atoms: C_6  and  C_7
REMARK    7  A    between atoms: C_7  and  O_8
REMARK    8  A    between atoms: O_8  and  C_9
REMARK    9  A    between atoms: C_9  and  C_11
REMARK                            x       y       z     vdW  Elec       q    Type
REMARK                         _______ _______ _______ _____ _____    ______ ____
ROOT
ATOM      1  O   UNL     1      -8.943   5.085 130.288  0.00  0.00    +0.000 OA
ENDROOT
BRANCH   1   2
ATOM      2  C   UNL     1      -9.610   5.864 129.395  0.00  0.00    +0.000 C 
ATOM      3  O   UNL     1      -9.361   5.959 128.201  0.00  0.00    +0.000 OA
BRANCH   2   4
ATOM      4  C   UNL     1     -10.743   6.579 130.021  0.00  0.00    +0.000 A 
ATOM      5  C   UNL     1     -11.275   6.086 131.208  0.00  0.00    +0.000 A 
ATOM      6  N   UNL     1     -12.356   6.620 131.839  0.00  0.00    +0.000 NA
ATOM      7  C   UNL     1     -12.945   7.679 131.247  0.00  0.00    +0.000 A 
ATOM      8  C   UNL     1     -12.495   8.237 130.060  0.00  0.00    +0.000 A 
ATOM      9  C   UNL     1     -11.373   7.680 129.437  0.00  0.00    +0.000 A 
ENDBRANCH   2   4
ENDBRANCH   1   2
BRANCH   1  10
ATOM     10  C   UNL     1      -7.581   5.504 130.544  0.00  0.00    +0.000 C 
BRANCH  10  11
ATOM     11  C   UNL     1      -7.462   6.051 131.968  0.00  0.00    +0.000 C 
BRANCH  11  12
ATOM     12  O   UNL     1      -7.263   4.989 132.909  0.00  0.00    +0.000 OA
BRANCH  12  13
ATOM     13  C   UNL     1      -8.193   5.091 133.990  0.00  0.00    +0.000 C 
BRANCH  13  14
ATOM     14  C   UNL     1      -9.205   3.955 133.916  0.00  0.00    +0.000 C 
BRANCH  14  16
ATOM     15  C   UNL     1      -9.629   2.086 132.292  0.00  0.00    +0.000 C 
ATOM     16  C   UNL     1      -8.605   2.748 133.197  0.00  0.00    +0.000 C 
ENDBRANCH  14  16
ENDBRANCH  13  14
ENDBRANCH  12  13
ENDBRANCH  11  12
ENDBRANCH  10  11
ENDBRANCH   1  10
TORSDOF 8
ENDMDL
MODEL 9
REMARK VINA RESULT:      -5.0      8.507      9.627
REMARK  Name = Nicoboxil
REMARK  9 active torsions:
REMARK  status: ('A' for Active; 'I' for Inactive)
REMARK    1  A    between atoms: C_1  and  C_2
REMARK    2  A    between atoms: C_2  and  C_3
REMARK    3  A    between atoms: C_3  and  C_4
REMARK    4  A    between atoms: C_4  and  O_5
REMARK    5  A    between atoms: O_5  and  C_6
REMARK    6  A    between atoms: C_6  and  C_7
REMARK    7  A    between atoms: C_7  and  O_8
REMARK    8  A    between atoms: O_8  and  C_9
REMARK    9  A    between atoms: C_9  and  C_11
REMARK                            x       y       z     vdW  Elec       q    Type
REMARK                         _______ _______ _______ _____ _____    ______ ____
ROOT
ATOM      1  O   UNL     1      -9.450   5.477 130.869  0.00  0.00    +0.000 OA
ENDROOT
BRANCH   1   2
ATOM      2  C   UNL     1     -10.339   6.386 131.354  0.00  0.00    +0.000 C 
ATOM      3  O   UNL     1     -10.629   6.545 132.532  0.00  0.00    +0.000 OA
BRANCH   2   4
ATOM      4  C   UNL     1     -10.909   7.230 130.282  0.00  0.00    +0.000 A 
ATOM      5  C   UNL     1     -12.284   7.437 130.250  0.00  0.00    +0.000 A 
ATOM      6  N   UNL     1     -12.928   8.138 129.278  0.00  0.00    +0.000 NA
ATOM      7  C   UNL     1     -12.168   8.635 128.281  0.00  0.00    +0.000 A 
ATOM      8  C   UNL     1     -10.791   8.475 128.219  0.00  0.00    +0.000 A 
ATOM      9  C   UNL     1     -10.150   7.763 129.238  0.00  0.00    +0.000 A 
ENDBRANCH   2   4
ENDBRANCH   1   2
BRANCH   1  10
ATOM     10  C   UNL     1     -10.054   4.257 130.378  0.00  0.00    +0.000 C 
BRANCH  10  11
ATOM     11  C   UNL     1      -8.998   3.396 129.681  0.00  0.00    +0.000 C 
BRANCH  11  12
ATOM     12  O   UNL     1      -8.904   2.105 130.292  0.00  0.00    +0.000 OA
BRANCH  12  13
ATOM     13  C   UNL     1      -9.515   2.113 131.586  0.00  0.00    +0.000 C 
BRANCH  13  14
ATOM     14  C   UNL     1      -8.508   1.671 132.639  0.00  0.00    +0.000 C 
BRANCH  14  16
ATOM     15  C   UNL     1      -9.133   3.727 133.941  0.00  0.00    +0.000 C 
ATOM     16  C   UNL     1      -7.988   2.875 133.424  0.00  0.00    +0.000 C 
ENDBRANCH  14  16
ENDBRANCH  13  14
ENDBRANCH  12  13
ENDBRANCH  11  12
ENDBRANCH  10  11
ENDBRANCH   1  10
TORSDOF 8
ENDMDL
