MODEL 1
REMARK VINA RESULT:      -6.0      0.000      0.000
REMARK  Name = Nicotine
REMARK  2 active torsions:
REMARK  status: ('A' for Active; 'I' for Inactive)
REMARK    1  A    between atoms: C_1  and  N_2
REMARK    2  A    between atoms: C_6  and  C_7
REMARK                            x       y       z     vdW  Elec       q    Type
REMARK                         _______ _______ _______ _____ _____    ______ ____
ROOT
ATOM      1  C   UNL     1     -10.390   7.061 127.074  0.00  0.00    +0.000 C 
ATOM      2  N   UNL     1     -11.594   7.856 127.265  0.00  0.00    +0.000 NA
ATOM      3  C   UNL     1     -12.834   7.102 127.112  0.00  0.00    +0.000 C 
ATOM      4  C   UNL     1     -13.887   8.009 127.749  0.00  0.00    +0.000 C 
ATOM      5  C   UNL     1     -13.114   9.037 128.576  0.00  0.00    +0.000 C 
ATOM      6  C   UNL     1     -11.662   8.558 128.559  0.00  0.00    +0.000 C 
ENDROOT
BRANCH   6   7
ATOM      7  C   UNL     1     -11.316   7.730 129.786  0.00  0.00    +0.000 A 
ATOM      8  C   UNL     1     -12.277   7.272 130.690  0.00  0.00    +0.000 A 
ATOM      9  N   UNL     1     -12.035   6.466 131.746  0.00  0.00    +0.000 NA
ATOM     10  C   UNL     1     -10.756   6.124 131.949  0.00  0.00    +0.000 A 
ATOM     11  C   UNL     1      -9.708   6.555 131.152  0.00  0.00    +0.000 A 
ATOM     12  C   UNL     1      -9.996   7.362 130.050  0.00  0.00    +0.000 A 
ENDBRANCH   6   7
TORSDOF 1
ENDMDL
MODEL 2
REMARK VINA RESULT:      -5.4      1.382      2.142
REMARK  Name = Nicotine
REMARK  2 active torsions:
REMARK  status: ('A' for Active; 'I' for Inactive)
REMARK    1  A    between atoms: C_1  and  N_2
REMARK    2  A    between atoms: C_6  and  C_7
REMARK                            x       y       z     vdW  Elec       q    Type
REMARK                         _______ _______ _______ _____ _____    ______ ____
ROOT
ATOM      1  C   UNL     1     -12.838   9.694 130.018  0.00  0.00    +0.000 C 
ATOM      2  N   UNL     1     -13.191   8.587 129.142  0.00  0.00    +0.000 NA
ATOM      3  C   UNL     1     -12.489   8.596 127.861  0.00  0.00    +0.000 C 
ATOM      4  C   UNL     1     -12.698   7.178 127.328  0.00  0.00    +0.000 C 
ATOM      5  C   UNL     1     -13.163   6.342 128.520  0.00  0.00    +0.000 C 
ATOM      6  C   UNL     1     -13.002   7.252 129.738  0.00  0.00    +0.000 C 
ENDROOT
BRANCH   6   7
ATOM      7  C   UNL     1     -11.681   7.024 130.455  0.00  0.00    +0.000 A 
ATOM      8  C   UNL     1     -11.602   6.605 131.786  0.00  0.00    +0.000 A 
ATOM      9  N   UNL     1     -10.462   6.307 132.444  0.00  0.00    +0.000 NA
ATOM     10  C   UNL     1      -9.322   6.474 131.760  0.00  0.00    +0.000 A 
ATOM     11  C   UNL     1      -9.268   6.932 130.454  0.00  0.00    +0.000 A 
ATOM     12  C   UNL     1     -10.467   7.201 129.791  0.00  0.00    +0.000 A 
ENDBRANCH   6   7
TORSDOF 1
ENDMDL
MODEL 3
REMARK VINA RESULT:      -5.1      1.737      4.275
REMARK  Name = Nicotine
REMARK  2 active torsions:
REMARK  status: ('A' for Active; 'I' for Inactive)
REMARK    1  A    between atoms: C_1  and  N_2
REMARK    2  A    between atoms: C_6  and  C_7
REMARK                            x       y       z     vdW  Elec       q    Type
REMARK                         _______ _______ _______ _____ _____    ______ ____
ROOT
ATOM      1  C   UNL     1     -11.110   4.180 130.385  0.00  0.00    +0.000 C 
ATOM      2  N   UNL     1      -9.894   4.809 130.877  0.00  0.00    +0.000 NA
ATOM      3  C   UNL     1      -8.761   4.712 129.961  0.00  0.00    +0.000 C 
ATOM      4  C   UNL     1      -7.782   5.762 130.487  0.00  0.00    +0.000 C 
ATOM      5  C   UNL     1      -8.590   6.661 131.423  0.00  0.00    +0.000 C 
ATOM      6  C   UNL     1     -10.045   6.231 131.240  0.00  0.00    +0.000 C 
ENDROOT
BRANCH   6   7
ATOM      7  C   UNL     1     -10.779   7.100 130.233  0.00  0.00    +0.000 A 
ATOM      8  C   UNL     1     -12.135   7.416 130.349  0.00  0.00    +0.000 A 
ATOM      9  N   UNL     1     -12.816   8.249 129.532  0.00  0.00    +0.000 NA
ATOM     10  C   UNL     1     -12.125   8.771 128.510  0.00  0.00    +0.000 A 
ATOM     11  C   UNL     1     -10.790   8.494 128.261  0.00  0.00    +0.000 A 
ATOM     12  C   UNL     1     -10.108   7.654 129.142  0.00  0.00    +0.000 A 
ENDBRANCH   6   7
TORSDOF 1
ENDMDL
MODEL 4
REMARK VINA RESULT:      -4.9     10.004     11.060
REMARK  Name = Nicotine
REMARK  2 active torsions:
REMARK  status: ('A' for Active; 'I' for Inactive)
REMARK    1  A    between atoms: C_1  and  N_2
REMARK    2  A    between atoms: C_6  and  C_7
REMARK                            x       y       z     vdW  Elec       q    Type
REMARK                         _______ _______ _______ _____ _____    ______ ____
ROOT
ATOM      1  C   UNL     1      -9.387  -0.075 125.747  0.00  0.00    +0.000 C 
ATOM      2  N   UNL     1      -9.398  -1.231 124.862  0.00  0.00    +0.000 NA
ATOM      3  C   UNL     1      -8.406  -1.169 123.793  0.00  0.00    +0.000 C 
ATOM      4  C   UNL     1      -8.332  -2.611 123.289  0.00  0.00    +0.000 C 
ATOM      5  C   UNL     1      -8.989  -3.471 124.369  0.00  0.00    +0.000 C 
ATOM      6  C   UNL     1      -9.227  -2.525 125.547  0.00  0.00    +0.000 C 
ENDROOT
BRANCH   6   7
ATOM      7  C   UNL     1      -8.109  -2.593 126.574  0.00  0.00    +0.000 A 
ATOM      8  C   UNL     1      -6.782  -2.272 126.274  0.00  0.00    +0.000 A 
ATOM      9  N   UNL     1      -5.768  -2.234 127.165  0.00  0.00    +0.000 NA
ATOM     10  C   UNL     1      -6.072  -2.578 128.424  0.00  0.00    +0.000 A 
ATOM     11  C   UNL     1      -7.338  -2.964 128.832  0.00  0.00    +0.000 A 
ATOM     12  C   UNL     1      -8.371  -2.962 127.894  0.00  0.00    +0.000 A 
ENDBRANCH   6   7
TORSDOF 1
ENDMDL
MODEL 5
REMARK VINA RESULT:      -4.7      9.004     10.924
REMARK  Name = Nicotine
REMARK  2 active torsions:
REMARK  status: ('A' for Active; 'I' for Inactive)
REMARK    1  A    between atoms: C_1  and  N_2
REMARK    2  A    between atoms: C_6  and  C_7
REMARK                            x       y       z     vdW  Elec       q    Type
REMARK                         _______ _______ _______ _____ _____    ______ ____
ROOT
ATOM      1  C   UNL     1      -7.867  -1.124 126.493  0.00  0.00    +0.000 C 
ATOM      2  N   UNL     1      -8.012  -2.121 125.444  0.00  0.00    +0.000 NA
ATOM      3  C   UNL     1      -9.349  -2.702 125.357  0.00  0.00    +0.000 C 
ATOM      4  C   UNL     1      -9.362  -3.368 123.980  0.00  0.00    +0.000 C 
ATOM      5  C   UNL     1      -8.176  -2.780 123.215  0.00  0.00    +0.000 C 
ATOM      6  C   UNL     1      -7.651  -1.646 124.096  0.00  0.00    +0.000 C 
ENDROOT
BRANCH   6   7
ATOM      7  C   UNL     1      -8.216  -0.295 123.691  0.00  0.00    +0.000 A 
ATOM      8  C   UNL     1      -7.518   0.903 123.864  0.00  0.00    +0.000 A 
ATOM      9  N   UNL     1      -7.937   2.118 123.449  0.00  0.00    +0.000 NA
ATOM     10  C   UNL     1      -9.141   2.161 122.862  0.00  0.00    +0.000 A 
ATOM     11  C   UNL     1      -9.948   1.050 122.679  0.00  0.00    +0.000 A 
ATOM     12  C   UNL     1      -9.473  -0.196 123.093  0.00  0.00    +0.000 A 
ENDBRANCH   6   7
TORSDOF 1
ENDMDL
MODEL 6
REMARK VINA RESULT:      -4.6      9.349     11.187
REMARK  Name = Nicotine
REMARK  2 active torsions:
REMARK  status: ('A' for Active; 'I' for Inactive)
REMARK    1  A    between atoms: C_1  and  N_2
REMARK    2  A    between atoms: C_6  and  C_7
REMARK                            x       y       z     vdW  Elec       q    Type
REMARK                         _______ _______ _______ _____ _____    ______ ____
ROOT
ATOM      1  C   UNL     1      -9.252  -2.849 126.123  0.00  0.00    +0.000 C 
ATOM      2  N   UNL     1      -7.896  -2.709 125.614  0.00  0.00    +0.000 NA
ATOM      3  C   UNL     1      -7.610  -3.542 124.450  0.00  0.00    +0.000 C 
ATOM      4  C   UNL     1      -6.333  -2.929 123.875  0.00  0.00    +0.000 C 
ATOM      5  C   UNL     1      -6.201  -1.547 124.516  0.00  0.00    +0.000 C 
ATOM      6  C   UNL     1      -7.512  -1.327 125.271  0.00  0.00    +0.000 C 
ENDROOT
BRANCH   6   7
ATOM      7  C   UNL     1      -8.522  -0.539 124.453  0.00  0.00    +0.000 A 
ATOM      8  C   UNL     1      -9.018  -0.984 123.225  0.00  0.00    +0.000 A 
ATOM      9  N   UNL     1      -9.975  -0.367 122.500  0.00  0.00    +0.000 NA
ATOM     10  C   UNL     1     -10.443   0.787 122.995  0.00  0.00    +0.000 A 
ATOM     11  C   UNL     1      -9.994   1.356 124.176  0.00  0.00    +0.000 A 
ATOM     12  C   UNL     1      -9.026   0.676 124.918  0.00  0.00    +0.000 A 
ENDBRANCH   6   7
TORSDOF 1
ENDMDL
MODEL 7
REMARK VINA RESULT:      -4.6      2.821      4.547
REMARK  Name = Nicotine
REMARK  2 active torsions:
REMARK  status: ('A' for Active; 'I' for Inactive)
REMARK    1  A    between atoms: C_1  and  N_2
REMARK    2  A    between atoms: C_6  and  C_7
REMARK                            x       y       z     vdW  Elec       q    Type
REMARK                         _______ _______ _______ _____ _____    ______ ____
ROOT
ATOM      1  C   UNL     1      -7.660   6.582 131.340  0.00  0.00    +0.000 C 
ATOM      2  N   UNL     1      -9.074   6.926 131.354  0.00  0.00    +0.000 NA
ATOM      3  C   UNL     1      -9.707   6.890 130.039  0.00  0.00    +0.000 C 
ATOM      4  C   UNL     1     -11.202   6.870 130.360  0.00  0.00    +0.000 C 
ATOM      5  C   UNL     1     -11.311   6.492 131.838  0.00  0.00    +0.000 C 
ATOM      6  C   UNL     1      -9.895   6.101 132.260  0.00  0.00    +0.000 C 
ENDROOT
BRANCH   6   7
ATOM      7  C   UNL     1      -9.665   4.601 132.186  0.00  0.00    +0.000 A 
ATOM      8  C   UNL     1      -9.970   3.841 131.053  0.00  0.00    +0.000 A 
ATOM      9  N   UNL     1      -9.710   2.525 130.903  0.00  0.00    +0.000 NA
ATOM     10  C   UNL     1      -9.153   1.907 131.954  0.00  0.00    +0.000 A 
ATOM     11  C   UNL     1      -8.851   2.541 133.148  0.00  0.00    +0.000 A 
ATOM     12  C   UNL     1      -9.103   3.909 133.260  0.00  0.00    +0.000 A 
ENDBRANCH   6   7
TORSDOF 1
ENDMDL
MODEL 8
REMARK VINA RESULT:      -4.6      2.248      5.109
REMARK  Name = Nicotine
REMARK  2 active torsions:
REMARK  status: ('A' for Active; 'I' for Inactive)
REMARK    1  A    between atoms: C_1  and  N_2
REMARK    2  A    between atoms: C_6  and  C_7
REMARK                            x       y       z     vdW  Elec       q    Type
REMARK                         _______ _______ _______ _____ _____    ______ ____
ROOT
ATOM      1  C   UNL     1      -9.307   3.989 132.704  0.00  0.00    +0.000 C 
ATOM      2  N   UNL     1      -8.259   4.889 132.249  0.00  0.00    +0.000 NA
ATOM      3  C   UNL     1      -7.515   4.398 131.093  0.00  0.00    +0.000 C 
ATOM      4  C   UNL     1      -6.799   5.644 130.571  0.00  0.00    +0.000 C 
ATOM      5  C   UNL     1      -7.497   6.838 131.223  0.00  0.00    +0.000 C 
ATOM      6  C   UNL     1      -8.721   6.252 131.928  0.00  0.00    +0.000 C 
ENDROOT
BRANCH   6   7
ATOM      7  C   UNL     1      -9.976   6.347 131.075  0.00  0.00    +0.000 A 
ATOM      8  C   UNL     1      -9.967   6.167 129.689  0.00  0.00    +0.000 A 
ATOM      9  N   UNL     1     -11.060   6.157 128.896  0.00  0.00    +0.000 NA
ATOM     10  C   UNL     1     -12.234   6.381 129.503  0.00  0.00    +0.000 A 
ATOM     11  C   UNL     1     -12.365   6.622 130.861  0.00  0.00    +0.000 A 
ATOM     12  C   UNL     1     -11.219   6.595 131.657  0.00  0.00    +0.000 A 
ENDBRANCH   6   7
TORSDOF 1
ENDMDL
MODEL 9
REMARK VINA RESULT:      -4.4      8.321      9.793
REMARK  Name = Nicotine
REMARK  2 active torsions:
REMARK  status: ('A' for Active; 'I' for Inactive)
REMARK    1  A    between atoms: C_1  and  N_2
REMARK    2  A    between atoms: C_6  and  C_7
REMARK                            x       y       z     vdW  Elec       q    Type
REMARK                         _______ _______ _______ _____ _____    ______ ____
ROOT
ATOM      1  C   UNL     1      -8.233   0.858 127.354  0.00  0.00    +0.000 C 
ATOM      2  N   UNL     1      -8.966   1.437 126.239  0.00  0.00    +0.000 NA
ATOM      3  C   UNL     1      -8.133   2.192 125.308  0.00  0.00    +0.000 C 
ATOM      4  C   UNL     1      -9.015   2.329 124.066  0.00  0.00    +0.000 C 
ATOM      5  C   UNL     1     -10.135   1.300 124.228  0.00  0.00    +0.000 C 
ATOM      6  C   UNL     1      -9.742   0.465 125.447  0.00  0.00    +0.000 C 
ENDROOT
BRANCH   6   7
ATOM      7  C   UNL     1      -9.012  -0.811 125.059  0.00  0.00    +0.000 A 
ATOM      8  C   UNL     1      -8.145  -0.887 123.967  0.00  0.00    +0.000 A 
ATOM      9  N   UNL     1      -7.409  -1.968 123.628  0.00  0.00    +0.000 NA
ATOM     10  C   UNL     1      -7.572  -3.058 124.390  0.00  0.00    +0.000 A 
ATOM     11  C   UNL     1      -8.439  -3.121 125.468  0.00  0.00    +0.000 A 
ATOM     12  C   UNL     1      -9.162  -1.977 125.811  0.00  0.00    +0.000 A 
ENDBRANCH   6   7
TORSDOF 1
ENDMDL
