MODEL 1
REMARK VINA RESULT:      -5.0      0.000      0.000
REMARK  Name = Nicotinamide
REMARK  1 active torsions:
REMARK  status: ('A' for Active; 'I' for Inactive)
REMARK    1  A    between atoms: C_2  and  C_4
REMARK                            x       y       z     vdW  Elec       q    Type
REMARK                         _______ _______ _______ _____ _____    ______ ____
ROOT
ATOM      1  C   UNL     1     -11.878   7.195 129.796  0.00  0.00    +0.000 A 
ATOM      2  C   UNL     1     -12.754   7.106 128.714  0.00  0.00    +0.000 A 
ATOM      3  C   UNL     1     -12.319   7.506 127.451  0.00  0.00    +0.000 A 
ATOM      4  C   UNL     1     -11.019   7.972 127.318  0.00  0.00    +0.000 A 
ATOM      5  N   UNL     1     -10.145   8.062 128.345  0.00  0.00    +0.000 NA
ATOM      6  C   UNL     1     -10.598   7.683 129.568  0.00  0.00    +0.000 A 
ENDROOT
BRANCH   1   8
ATOM      7  N   UNL     1     -11.460   6.012 131.870  0.00  0.00    +0.000 N 
ATOM      8  C   UNL     1     -12.289   6.841 131.167  0.00  0.00    +0.000 C 
ATOM      9  O   UNL     1     -13.321   7.283 131.655  0.00  0.00    +0.000 OA
ATOM     10  H   UNL     1     -11.712   5.810 132.830  0.00  0.00    +0.000 HD
ATOM     11  H   UNL     1     -10.540   5.742 131.553  0.00  0.00    +0.000 HD
ENDBRANCH   1   8
TORSDOF 1
ENDMDL
MODEL 2
REMARK VINA RESULT:      -4.8      2.227      3.883
REMARK  Name = Nicotinamide
REMARK  1 active torsions:
REMARK  status: ('A' for Active; 'I' for Inactive)
REMARK    1  A    between atoms: C_2  and  C_4
REMARK                            x       y       z     vdW  Elec       q    Type
REMARK                         _______ _______ _______ _____ _____    ______ ____
ROOT
ATOM      1  C   UNL     1     -11.385   7.714 129.722  0.00  0.00    +0.000 A 
ATOM      2  C   UNL     1     -10.105   7.272 130.056  0.00  0.00    +0.000 A 
ATOM      3  C   UNL     1      -9.926   6.529 131.222  0.00  0.00    +0.000 A 
ATOM      4  C   UNL     1     -11.036   6.250 132.005  0.00  0.00    +0.000 A 
ATOM      5  N   UNL     1     -12.289   6.658 131.704  0.00  0.00    +0.000 NA
ATOM      6  C   UNL     1     -12.435   7.395 130.572  0.00  0.00    +0.000 A 
ENDROOT
BRANCH   1   8
ATOM      7  N   UNL     1     -12.652   9.463 128.621  0.00  0.00    +0.000 N 
ATOM      8  C   UNL     1     -11.638   8.550 128.533  0.00  0.00    +0.000 C 
ATOM      9  O   UNL     1     -10.961   8.437 127.520  0.00  0.00    +0.000 OA
ATOM     10  H   UNL     1     -12.794  10.075 127.826  0.00  0.00    +0.000 HD
ATOM     11  H   UNL     1     -13.137   9.680 129.480  0.00  0.00    +0.000 HD
ENDBRANCH   1   8
TORSDOF 1
ENDMDL
MODEL 3
REMARK VINA RESULT:      -4.8      2.118      3.603
REMARK  Name = Nicotinamide
REMARK  1 active torsions:
REMARK  status: ('A' for Active; 'I' for Inactive)
REMARK    1  A    between atoms: C_2  and  C_4
REMARK                            x       y       z     vdW  Elec       q    Type
REMARK                         _______ _______ _______ _____ _____    ______ ____
ROOT
ATOM      1  C   UNL     1     -12.238   7.878 129.703  0.00  0.00    +0.000 A 
ATOM      2  C   UNL     1     -10.859   7.725 129.562  0.00  0.00    +0.000 A 
ATOM      3  C   UNL     1     -10.158   6.974 130.504  0.00  0.00    +0.000 A 
ATOM      4  C   UNL     1     -10.866   6.398 131.549  0.00  0.00    +0.000 A 
ATOM      5  N   UNL     1     -12.202   6.522 131.708  0.00  0.00    +0.000 NA
ATOM      6  C   UNL     1     -12.859   7.273 130.787  0.00  0.00    +0.000 A 
ENDROOT
BRANCH   1   8
ATOM      7  N   UNL     1     -12.978  10.059 128.945  0.00  0.00    +0.000 N 
ATOM      8  C   UNL     1     -13.033   8.703 128.775  0.00  0.00    +0.000 C 
ATOM      9  O   UNL     1     -13.701   8.195 127.884  0.00  0.00    +0.000 OA
ATOM     10  H   UNL     1     -13.480  10.630 128.277  0.00  0.00    +0.000 HD
ATOM     11  H   UNL     1     -12.334  10.517 129.575  0.00  0.00    +0.000 HD
ENDBRANCH   1   8
TORSDOF 1
ENDMDL
MODEL 4
REMARK VINA RESULT:      -4.8      2.027      2.027
REMARK  Name = Nicotinamide
REMARK  1 active torsions:
REMARK  status: ('A' for Active; 'I' for Inactive)
REMARK    1  A    between atoms: C_2  and  C_4
REMARK                            x       y       z     vdW  Elec       q    Type
REMARK                         _______ _______ _______ _____ _____    ______ ____
ROOT
ATOM      1  C   UNL     1     -12.313   6.794 129.644  0.00  0.00    +0.000 A 
ATOM      2  C   UNL     1     -13.172   6.560 128.569  0.00  0.00    +0.000 A 
ATOM      3  C   UNL     1     -13.724   7.646 127.892  0.00  0.00    +0.000 A 
ATOM      4  C   UNL     1     -13.390   8.926 128.310  0.00  0.00    +0.000 A 
ATOM      5  N   UNL     1     -12.556   9.184 129.342  0.00  0.00    +0.000 NA
ATOM      6  C   UNL     1     -12.045   8.110 129.997  0.00  0.00    +0.000 A 
ENDROOT
BRANCH   1   8
ATOM      7  N   UNL     1     -11.614   5.898 131.785  0.00  0.00    +0.000 N 
ATOM      8  C   UNL     1     -11.737   5.694 130.439  0.00  0.00    +0.000 C 
ATOM      9  O   UNL     1     -11.398   4.641 129.916  0.00  0.00    +0.000 OA
ATOM     10  H   UNL     1     -11.269   5.126 132.341  0.00  0.00    +0.000 HD
ATOM     11  H   UNL     1     -12.008   6.693 132.268  0.00  0.00    +0.000 HD
ENDBRANCH   1   8
TORSDOF 1
ENDMDL
MODEL 5
REMARK VINA RESULT:      -4.7      2.146      3.338
REMARK  Name = Nicotinamide
REMARK  1 active torsions:
REMARK  status: ('A' for Active; 'I' for Inactive)
REMARK    1  A    between atoms: C_2  and  C_4
REMARK                            x       y       z     vdW  Elec       q    Type
REMARK                         _______ _______ _______ _____ _____    ______ ____
ROOT
ATOM      1  C   UNL     1     -12.273   8.046 129.685  0.00  0.00    +0.000 A 
ATOM      2  C   UNL     1     -12.793   7.416 130.816  0.00  0.00    +0.000 A 
ATOM      3  C   UNL     1     -11.948   6.645 131.614  0.00  0.00    +0.000 A 
ATOM      4  C   UNL     1     -10.613   6.540 131.253  0.00  0.00    +0.000 A 
ATOM      5  N   UNL     1     -10.079   7.144 130.168  0.00  0.00    +0.000 NA
ATOM      6  C   UNL     1     -10.926   7.876 129.398  0.00  0.00    +0.000 A 
ENDROOT
BRANCH   1   8
ATOM      7  N   UNL     1     -13.122  10.189 128.933  0.00  0.00    +0.000 N 
ATOM      8  C   UNL     1     -13.120   8.831 128.769  0.00  0.00    +0.000 C 
ATOM      9  O   UNL     1     -13.780   8.290 127.892  0.00  0.00    +0.000 OA
ATOM     10  H   UNL     1     -13.661  10.734 128.272  0.00  0.00    +0.000 HD
ATOM     11  H   UNL     1     -12.489  10.678 129.550  0.00  0.00    +0.000 HD
ENDBRANCH   1   8
TORSDOF 1
ENDMDL
MODEL 6
REMARK VINA RESULT:      -4.7      2.340      3.358
REMARK  Name = Nicotinamide
REMARK  1 active torsions:
REMARK  status: ('A' for Active; 'I' for Inactive)
REMARK    1  A    between atoms: C_2  and  C_4
REMARK                            x       y       z     vdW  Elec       q    Type
REMARK                         _______ _______ _______ _____ _____    ______ ____
ROOT
ATOM      1  C   UNL     1     -12.684   8.488 129.819  0.00  0.00    +0.000 A 
ATOM      2  C   UNL     1     -12.614   7.825 131.045  0.00  0.00    +0.000 A 
ATOM      3  C   UNL     1     -12.157   6.509 131.080  0.00  0.00    +0.000 A 
ATOM      4  C   UNL     1     -11.779   5.908 129.887  0.00  0.00    +0.000 A 
ATOM      5  N   UNL     1     -11.830   6.527 128.687  0.00  0.00    +0.000 NA
ATOM      6  C   UNL     1     -12.295   7.803 128.677  0.00  0.00    +0.000 A 
ENDROOT
BRANCH   1   8
ATOM      7  N   UNL     1     -13.667  10.249 128.473  0.00  0.00    +0.000 N 
ATOM      8  C   UNL     1     -13.209   9.861 129.702  0.00  0.00    +0.000 C 
ATOM      9  O   UNL     1     -13.244  10.613 130.667  0.00  0.00    +0.000 OA
ATOM     10  H   UNL     1     -14.077  11.171 128.402  0.00  0.00    +0.000 HD
ATOM     11  H   UNL     1     -13.782   9.615 127.695  0.00  0.00    +0.000 HD
ENDBRANCH   1   8
TORSDOF 1
ENDMDL
MODEL 7
REMARK VINA RESULT:      -4.6      1.777      2.160
REMARK  Name = Nicotinamide
REMARK  1 active torsions:
REMARK  status: ('A' for Active; 'I' for Inactive)
REMARK    1  A    between atoms: C_2  and  C_4
REMARK                            x       y       z     vdW  Elec       q    Type
REMARK                         _______ _______ _______ _____ _____    ______ ____
ROOT
ATOM      1  C   UNL     1     -11.200   7.036 130.414  0.00  0.00    +0.000 A 
ATOM      2  C   UNL     1     -10.229   7.505 129.530  0.00  0.00    +0.000 A 
ATOM      3  C   UNL     1     -10.612   8.337 128.478  0.00  0.00    +0.000 A 
ATOM      4  C   UNL     1     -11.953   8.674 128.357  0.00  0.00    +0.000 A 
ATOM      5  N   UNL     1     -12.914   8.241 129.202  0.00  0.00    +0.000 NA
ATOM      6  C   UNL     1     -12.519   7.419 130.207  0.00  0.00    +0.000 A 
ENDROOT
BRANCH   1   8
ATOM      7  N   UNL     1     -10.988   4.772 131.255  0.00  0.00    +0.000 N 
ATOM      8  C   UNL     1     -10.874   6.110 131.514  0.00  0.00    +0.000 C 
ATOM      9  O   UNL     1     -10.506   6.524 132.606  0.00  0.00    +0.000 OA
ATOM     10  H   UNL     1     -10.714   4.133 131.991  0.00  0.00    +0.000 HD
ATOM     11  H   UNL     1     -11.153   4.394 130.333  0.00  0.00    +0.000 HD
ENDBRANCH   1   8
TORSDOF 1
ENDMDL
MODEL 8
REMARK VINA RESULT:      -4.5      2.019      3.054
REMARK  Name = Nicotinamide
REMARK  1 active torsions:
REMARK  status: ('A' for Active; 'I' for Inactive)
REMARK    1  A    between atoms: C_2  and  C_4
REMARK                            x       y       z     vdW  Elec       q    Type
REMARK                         _______ _______ _______ _____ _____    ______ ____
ROOT
ATOM      1  C   UNL     1     -11.168   6.959 130.784  0.00  0.00    +0.000 A 
ATOM      2  C   UNL     1     -10.578   6.306 131.867  0.00  0.00    +0.000 A 
ATOM      3  C   UNL     1      -9.188   6.213 131.930  0.00  0.00    +0.000 A 
ATOM      4  C   UNL     1      -8.441   6.784 130.910  0.00  0.00    +0.000 A 
ATOM      5  N   UNL     1      -8.983   7.428 129.853  0.00  0.00    +0.000 NA
ATOM      6  C   UNL     1     -10.338   7.491 129.805  0.00  0.00    +0.000 A 
ENDROOT
BRANCH   1   8
ATOM      7  N   UNL     1     -13.127   6.928 129.357  0.00  0.00    +0.000 N 
ATOM      8  C   UNL     1     -12.631   7.046 130.626  0.00  0.00    +0.000 C 
ATOM      9  O   UNL     1     -13.367   7.204 131.591  0.00  0.00    +0.000 OA
ATOM     10  H   UNL     1     -14.134   6.935 129.251  0.00  0.00    +0.000 HD
ATOM     11  H   UNL     1     -12.567   6.661 128.560  0.00  0.00    +0.000 HD
ENDBRANCH   1   8
TORSDOF 1
ENDMDL
MODEL 9
REMARK VINA RESULT:      -4.3      2.026      2.312
REMARK  Name = Nicotinamide
REMARK  1 active torsions:
REMARK  status: ('A' for Active; 'I' for Inactive)
REMARK    1  A    between atoms: C_2  and  C_4
REMARK                            x       y       z     vdW  Elec       q    Type
REMARK                         _______ _______ _______ _____ _____    ______ ____
ROOT
ATOM      1  C   UNL     1     -11.008   7.111 128.989  0.00  0.00    +0.000 A 
ATOM      2  C   UNL     1     -12.353   6.856 129.255  0.00  0.00    +0.000 A 
ATOM      3  C   UNL     1     -13.268   6.868 128.202  0.00  0.00    +0.000 A 
ATOM      4  C   UNL     1     -12.800   7.128 126.923  0.00  0.00    +0.000 A 
ATOM      5  N   UNL     1     -11.502   7.371 126.634  0.00  0.00    +0.000 NA
ATOM      6  C   UNL     1     -10.634   7.371 127.678  0.00  0.00    +0.000 A 
ENDROOT
BRANCH   1   8
ATOM      7  N   UNL     1     -10.318   6.576 131.250  0.00  0.00    +0.000 N 
ATOM      8  C   UNL     1      -9.996   7.168 130.061  0.00  0.00    +0.000 C 
ATOM      9  O   UNL     1      -8.913   7.709 129.884  0.00  0.00    +0.000 OA
ATOM     10  H   UNL     1      -9.606   6.567 131.970  0.00  0.00    +0.000 HD
ATOM     11  H   UNL     1     -11.139   6.004 131.386  0.00  0.00    +0.000 HD
ENDBRANCH   1   8
TORSDOF 1
ENDMDL
