MODEL 1
REMARK VINA RESULT:      -6.0      0.000      0.000
REMARK  Name = Nicorandil
REMARK  5 active torsions:
REMARK  status: ('A' for Active; 'I' for Inactive)
REMARK    1  A    between atoms: N_2  and  O_4
REMARK    2  A    between atoms: O_4  and  C_5
REMARK    3  A    between atoms: C_5  and  C_6
REMARK    4  A    between atoms: C_6  and  N_7
REMARK    5  A    between atoms: C_8  and  C_10
REMARK                            x       y       z     vdW  Elec       q    Type
REMARK                         _______ _______ _______ _____ _____    ______ ____
ROOT
ATOM      1  N   UNL     1     -11.462   6.809 129.648  0.00  0.00    +0.000 N 
ATOM      2  C   UNL     1     -11.270   6.545 130.995  0.00  0.00    +0.000 C 
ATOM      3  O   UNL     1     -12.191   6.427 131.794  0.00  0.00    +0.000 OA
ATOM      4  H   UNL     1     -10.667   6.782 129.022  0.00  0.00    +0.000 HD
ENDROOT
BRANCH   2   5
ATOM      5  C   UNL     1      -9.871   6.382 131.462  0.00  0.00    +0.000 A 
ATOM      6  C   UNL     1      -8.774   6.868 130.747  0.00  0.00    +0.000 A 
ATOM      7  C   UNL     1      -7.491   6.729 131.282  0.00  0.00    +0.000 A 
ATOM      8  C   UNL     1      -7.346   6.106 132.513  0.00  0.00    +0.000 A 
ATOM      9  N   UNL     1      -8.385   5.624 133.228  0.00  0.00    +0.000 NA
ATOM     10  C   UNL     1      -9.625   5.787 132.695  0.00  0.00    +0.000 A 
ENDBRANCH   2   5
BRANCH   1  11
ATOM     11  C   UNL     1     -12.809   6.946 129.099  0.00  0.00    +0.000 C 
BRANCH  11  12
ATOM     12  C   UNL     1     -12.863   7.573 127.699  0.00  0.00    +0.000 C 
BRANCH  12  13
ATOM     13  O   UNL     1     -12.187   6.706 126.788  0.00  0.00    +0.000 OA
BRANCH  13  15
ATOM     14  O   UNL     1     -10.887   8.029 125.590  0.00  0.00    +0.000 OA
ATOM     15  N   UNL     1     -10.883   7.157 126.459  0.00  0.00    +0.000 N 
ATOM     16  O   UNL     1      -9.940   6.644 127.059  0.00  0.00    +0.000 OA
ENDBRANCH  13  15
ENDBRANCH  12  13
ENDBRANCH  11  12
ENDBRANCH   1  11
TORSDOF 5
ENDMDL
MODEL 2
REMARK VINA RESULT:      -6.0      0.770      1.285
REMARK  Name = Nicorandil
REMARK  5 active torsions:
REMARK  status: ('A' for Active; 'I' for Inactive)
REMARK    1  A    between atoms: N_2  and  O_4
REMARK    2  A    between atoms: O_4  and  C_5
REMARK    3  A    between atoms: C_5  and  C_6
REMARK    4  A    between atoms: C_6  and  N_7
REMARK    5  A    between atoms: C_8  and  C_10
REMARK                            x       y       z     vdW  Elec       q    Type
REMARK                         _______ _______ _______ _____ _____    ______ ____
ROOT
ATOM      1  N   UNL     1     -11.711   6.520 129.490  0.00  0.00    +0.000 N 
ATOM      2  C   UNL     1     -11.595   6.617 130.868  0.00  0.00    +0.000 C 
ATOM      3  O   UNL     1     -12.551   6.810 131.610  0.00  0.00    +0.000 OA
ATOM      4  H   UNL     1     -10.902   6.246 128.946  0.00  0.00    +0.000 HD
ENDROOT
BRANCH   2   5
ATOM      5  C   UNL     1     -10.240   6.453 131.449  0.00  0.00    +0.000 A 
ATOM      6  C   UNL     1     -10.013   5.809 132.667  0.00  0.00    +0.000 A 
ATOM      7  C   UNL     1      -8.702   5.639 133.120  0.00  0.00    +0.000 A 
ATOM      8  C   UNL     1      -7.662   6.123 132.341  0.00  0.00    +0.000 A 
ATOM      9  N   UNL     1      -7.847   6.751 131.160  0.00  0.00    +0.000 NA
ATOM     10  C   UNL     1      -9.131   6.888 130.733  0.00  0.00    +0.000 A 
ENDBRANCH   2   5
BRANCH   1  11
ATOM     11  C   UNL     1     -13.014   6.632 128.841  0.00  0.00    +0.000 C 
BRANCH  11  12
ATOM     12  C   UNL     1     -12.999   7.401 127.513  0.00  0.00    +0.000 C 
BRANCH  12  13
ATOM     13  O   UNL     1     -12.231   6.655 126.567  0.00  0.00    +0.000 OA
BRANCH  13  15
ATOM     14  O   UNL     1     -10.909   8.072 125.508  0.00  0.00    +0.000 OA
ATOM     15  N   UNL     1     -10.932   7.190 126.365  0.00  0.00    +0.000 N 
ATOM     16  O   UNL     1     -10.019   6.725 127.047  0.00  0.00    +0.000 OA
ENDBRANCH  13  15
ENDBRANCH  12  13
ENDBRANCH  11  12
ENDBRANCH   1  11
TORSDOF 5
ENDMDL
MODEL 3
REMARK VINA RESULT:      -5.4      2.635      5.245
REMARK  Name = Nicorandil
REMARK  5 active torsions:
REMARK  status: ('A' for Active; 'I' for Inactive)
REMARK    1  A    between atoms: N_2  and  O_4
REMARK    2  A    between atoms: O_4  and  C_5
REMARK    3  A    between atoms: C_5  and  C_6
REMARK    4  A    between atoms: C_6  and  N_7
REMARK    5  A    between atoms: C_8  and  C_10
REMARK                            x       y       z     vdW  Elec       q    Type
REMARK                         _______ _______ _______ _____ _____    ______ ____
ROOT
ATOM      1  N   UNL     1     -10.232   6.818 130.836  0.00  0.00    +0.000 N 
ATOM      2  C   UNL     1     -11.610   6.823 130.992  0.00  0.00    +0.000 C 
ATOM      3  O   UNL     1     -12.174   6.389 131.989  0.00  0.00    +0.000 OA
ATOM      4  H   UNL     1      -9.824   7.294 130.041  0.00  0.00    +0.000 HD
ENDROOT
BRANCH   2   5
ATOM      5  C   UNL     1     -12.415   7.408 129.892  0.00  0.00    +0.000 A 
ATOM      6  C   UNL     1     -12.579   8.784 129.724  0.00  0.00    +0.000 A 
ATOM      7  C   UNL     1     -13.302   9.261 128.627  0.00  0.00    +0.000 A 
ATOM      8  C   UNL     1     -13.841   8.345 127.737  0.00  0.00    +0.000 A 
ATOM      9  N   UNL     1     -13.703   7.008 127.871  0.00  0.00    +0.000 NA
ATOM     10  C   UNL     1     -12.980   6.570 128.936  0.00  0.00    +0.000 A 
ENDBRANCH   2   5
BRANCH   1  11
ATOM     11  C   UNL     1      -9.364   6.295 131.888  0.00  0.00    +0.000 C 
BRANCH  11  12
ATOM     12  C   UNL     1      -8.657   4.980 131.534  0.00  0.00    +0.000 C 
BRANCH  12  13
ATOM     13  O   UNL     1      -9.631   3.936 131.507  0.00  0.00    +0.000 OA
BRANCH  13  15
ATOM     14  O   UNL     1     -11.355   3.384 130.242  0.00  0.00    +0.000 OA
ATOM     15  N   UNL     1     -10.171   3.716 130.213  0.00  0.00    +0.000 N 
ATOM     16  O   UNL     1      -9.418   3.878 129.253  0.00  0.00    +0.000 OA
ENDBRANCH  13  15
ENDBRANCH  12  13
ENDBRANCH  11  12
ENDBRANCH   1  11
TORSDOF 5
ENDMDL
MODEL 4
REMARK VINA RESULT:      -5.3      1.349      1.613
REMARK  Name = Nicorandil
REMARK  5 active torsions:
REMARK  status: ('A' for Active; 'I' for Inactive)
REMARK    1  A    between atoms: N_2  and  O_4
REMARK    2  A    between atoms: O_4  and  C_5
REMARK    3  A    between atoms: C_5  and  C_6
REMARK    4  A    between atoms: C_6  and  N_7
REMARK    5  A    between atoms: C_8  and  C_10
REMARK                            x       y       z     vdW  Elec       q    Type
REMARK                         _______ _______ _______ _____ _____    ______ ____
ROOT
ATOM      1  N   UNL     1     -10.351   5.760 130.423  0.00  0.00    +0.000 N 
ATOM      2  C   UNL     1      -9.893   6.138 131.676  0.00  0.00    +0.000 C 
ATOM      3  O   UNL     1     -10.638   6.461 132.594  0.00  0.00    +0.000 OA
ATOM      4  H   UNL     1      -9.691   5.396 129.747  0.00  0.00    +0.000 HD
ENDROOT
BRANCH   2   5
ATOM      5  C   UNL     1      -8.426   6.122 131.896  0.00  0.00    +0.000 A 
ATOM      6  C   UNL     1      -7.534   6.839 131.097  0.00  0.00    +0.000 A 
ATOM      7  C   UNL     1      -6.170   6.823 131.405  0.00  0.00    +0.000 A 
ATOM      8  C   UNL     1      -5.745   6.085 132.499  0.00  0.00    +0.000 A 
ATOM      9  N   UNL     1      -6.580   5.379 133.291  0.00  0.00    +0.000 NA
ATOM     10  C   UNL     1      -7.904   5.426 132.981  0.00  0.00    +0.000 A 
ENDBRANCH   2   5
BRANCH   1  11
ATOM     11  C   UNL     1     -11.782   5.712 130.135  0.00  0.00    +0.000 C 
BRANCH  11  12
ATOM     12  C   UNL     1     -12.263   6.768 129.131  0.00  0.00    +0.000 C 
BRANCH  12  13
ATOM     13  O   UNL     1     -11.515   6.619 127.924  0.00  0.00    +0.000 OA
BRANCH  13  15
ATOM     14  O   UNL     1     -10.888   8.089 126.399  0.00  0.00    +0.000 OA
ATOM     15  N   UNL     1     -10.773   7.780 127.585  0.00  0.00    +0.000 N 
ATOM     16  O   UNL     1     -10.129   8.319 128.484  0.00  0.00    +0.000 OA
ENDBRANCH  13  15
ENDBRANCH  12  13
ENDBRANCH  11  12
ENDBRANCH   1  11
TORSDOF 5
ENDMDL
MODEL 5
REMARK VINA RESULT:      -5.2      2.383      2.929
REMARK  Name = Nicorandil
REMARK  5 active torsions:
REMARK  status: ('A' for Active; 'I' for Inactive)
REMARK    1  A    between atoms: N_2  and  O_4
REMARK    2  A    between atoms: O_4  and  C_5
REMARK    3  A    between atoms: C_5  and  C_6
REMARK    4  A    between atoms: C_6  and  N_7
REMARK    5  A    between atoms: C_8  and  C_10
REMARK                            x       y       z     vdW  Elec       q    Type
REMARK                         _______ _______ _______ _____ _____    ______ ____
ROOT
ATOM      1  N   UNL     1     -11.721   5.935 131.739  0.00  0.00    +0.000 N 
ATOM      2  C   UNL     1     -10.336   5.882 131.774  0.00  0.00    +0.000 C 
ATOM      3  O   UNL     1      -9.621   6.852 131.552  0.00  0.00    +0.000 OA
ATOM      4  H   UNL     1     -12.253   5.128 132.043  0.00  0.00    +0.000 HD
ENDROOT
BRANCH   2   5
ATOM      5  C   UNL     1      -9.715   4.580 132.120  0.00  0.00    +0.000 A 
ATOM      6  C   UNL     1      -9.120   4.333 133.359  0.00  0.00    +0.000 A 
ATOM      7  C   UNL     1      -8.610   3.061 133.634  0.00  0.00    +0.000 A 
ATOM      8  C   UNL     1      -8.708   2.080 132.658  0.00  0.00    +0.000 A 
ATOM      9  N   UNL     1      -9.275   2.287 131.450  0.00  0.00    +0.000 NA
ATOM     10  C   UNL     1      -9.780   3.527 131.214  0.00  0.00    +0.000 A 
ENDBRANCH   2   5
BRANCH   1  11
ATOM     11  C   UNL     1     -12.413   7.187 131.444  0.00  0.00    +0.000 C 
BRANCH  11  12
ATOM     12  C   UNL     1     -12.866   7.333 129.985  0.00  0.00    +0.000 C 
BRANCH  12  13
ATOM     13  O   UNL     1     -12.020   8.287 129.342  0.00  0.00    +0.000 OA
BRANCH  13  15
ATOM     14  O   UNL     1      -9.973   8.362 128.516  0.00  0.00    +0.000 OA
ATOM     15  N   UNL     1     -11.000   7.685 128.562  0.00  0.00    +0.000 N 
ATOM     16  O   UNL     1     -11.253   6.598 128.044  0.00  0.00    +0.000 OA
ENDBRANCH  13  15
ENDBRANCH  12  13
ENDBRANCH  11  12
ENDBRANCH   1  11
TORSDOF 5
ENDMDL
MODEL 6
REMARK VINA RESULT:      -5.1      2.860      5.347
REMARK  Name = Nicorandil
REMARK  5 active torsions:
REMARK  status: ('A' for Active; 'I' for Inactive)
REMARK    1  A    between atoms: N_2  and  O_4
REMARK    2  A    between atoms: O_4  and  C_5
REMARK    3  A    between atoms: C_5  and  C_6
REMARK    4  A    between atoms: C_6  and  N_7
REMARK    5  A    between atoms: C_8  and  C_10
REMARK                            x       y       z     vdW  Elec       q    Type
REMARK                         _______ _______ _______ _____ _____    ______ ____
ROOT
ATOM      1  N   UNL     1     -11.138   5.337 130.122  0.00  0.00    +0.000 N 
ATOM      2  C   UNL     1     -11.973   6.277 130.706  0.00  0.00    +0.000 C 
ATOM      3  O   UNL     1     -12.194   6.323 131.910  0.00  0.00    +0.000 OA
ATOM      4  H   UNL     1     -10.908   5.424 129.140  0.00  0.00    +0.000 HD
ENDROOT
BRANCH   2   5
ATOM      5  C   UNL     1     -12.601   7.277 129.809  0.00  0.00    +0.000 A 
ATOM      6  C   UNL     1     -12.545   8.651 130.052  0.00  0.00    +0.000 A 
ATOM      7  C   UNL     1     -13.109   9.535 129.128  0.00  0.00    +0.000 A 
ATOM      8  C   UNL     1     -13.713   9.016 127.993  0.00  0.00    +0.000 A 
ATOM      9  N   UNL     1     -13.785   7.694 127.729  0.00  0.00    +0.000 NA
ATOM     10  C   UNL     1     -13.214   6.855 128.634  0.00  0.00    +0.000 A 
ENDBRANCH   2   5
BRANCH   1  11
ATOM     11  C   UNL     1     -10.450   4.340 130.939  0.00  0.00    +0.000 C 
BRANCH  11  12
ATOM     12  C   UNL     1      -8.938   4.565 131.075  0.00  0.00    +0.000 C 
BRANCH  12  13
ATOM     13  O   UNL     1      -8.594   5.762 130.375  0.00  0.00    +0.000 OA
BRANCH  13  15
ATOM     14  O   UNL     1      -7.636   6.282 132.296  0.00  0.00    +0.000 OA
ATOM     15  N   UNL     1      -7.713   6.598 131.109  0.00  0.00    +0.000 N 
ATOM     16  O   UNL     1      -7.152   7.503 130.494  0.00  0.00    +0.000 OA
ENDBRANCH  13  15
ENDBRANCH  12  13
ENDBRANCH  11  12
ENDBRANCH   1  11
TORSDOF 5
ENDMDL
MODEL 7
REMARK VINA RESULT:      -5.1      3.339      3.832
REMARK  Name = Nicorandil
REMARK  5 active torsions:
REMARK  status: ('A' for Active; 'I' for Inactive)
REMARK    1  A    between atoms: N_2  and  O_4
REMARK    2  A    between atoms: O_4  and  C_5
REMARK    3  A    between atoms: C_5  and  C_6
REMARK    4  A    between atoms: C_6  and  N_7
REMARK    5  A    between atoms: C_8  and  C_10
REMARK                            x       y       z     vdW  Elec       q    Type
REMARK                         _______ _______ _______ _____ _____    ______ ____
ROOT
ATOM      1  N   UNL     1      -9.886   5.339 130.850  0.00  0.00    +0.000 N 
ATOM      2  C   UNL     1     -10.537   4.164 130.505  0.00  0.00    +0.000 C 
ATOM      3  O   UNL     1     -11.676   4.135 130.054  0.00  0.00    +0.000 OA
ATOM      4  H   UNL     1      -8.908   5.303 131.109  0.00  0.00    +0.000 HD
ENDROOT
BRANCH   2   5
ATOM      5  C   UNL     1      -9.788   2.896 130.681  0.00  0.00    +0.000 A 
ATOM      6  C   UNL     1      -9.980   2.051 131.775  0.00  0.00    +0.000 A 
ATOM      7  C   UNL     1      -9.281   0.842 131.840  0.00  0.00    +0.000 A 
ATOM      8  C   UNL     1      -8.409   0.523 130.810  0.00  0.00    +0.000 A 
ATOM      9  N   UNL     1      -8.199   1.318 129.739  0.00  0.00    +0.000 NA
ATOM     10  C   UNL     1      -8.905   2.480 129.691  0.00  0.00    +0.000 A 
ENDBRANCH   2   5
BRANCH   1  11
ATOM     11  C   UNL     1     -10.539   6.634 130.672  0.00  0.00    +0.000 C 
BRANCH  11  12
ATOM     12  C   UNL     1      -9.923   7.509 129.572  0.00  0.00    +0.000 C 
BRANCH  12  13
ATOM     13  O   UNL     1      -9.799   6.724 128.386  0.00  0.00    +0.000 OA
BRANCH  13  15
ATOM     14  O   UNL     1     -10.402   6.590 126.265  0.00  0.00    +0.000 OA
ATOM     15  N   UNL     1     -10.471   7.293 127.273  0.00  0.00    +0.000 N 
ATOM     16  O   UNL     1     -11.022   8.380 127.443  0.00  0.00    +0.000 OA
ENDBRANCH  13  15
ENDBRANCH  12  13
ENDBRANCH  11  12
ENDBRANCH   1  11
TORSDOF 5
ENDMDL
MODEL 8
REMARK VINA RESULT:      -4.9      8.221      9.409
REMARK  Name = Nicorandil
REMARK  5 active torsions:
REMARK  status: ('A' for Active; 'I' for Inactive)
REMARK    1  A    between atoms: N_2  and  O_4
REMARK    2  A    between atoms: O_4  and  C_5
REMARK    3  A    between atoms: C_5  and  C_6
REMARK    4  A    between atoms: C_6  and  N_7
REMARK    5  A    between atoms: C_8  and  C_10
REMARK                            x       y       z     vdW  Elec       q    Type
REMARK                         _______ _______ _______ _____ _____    ______ ____
ROOT
ATOM      1  N   UNL     1      -7.788   1.730 124.854  0.00  0.00    +0.000 N 
ATOM      2  C   UNL     1      -7.997   3.025 124.403  0.00  0.00    +0.000 C 
ATOM      3  O   UNL     1      -8.779   3.803 124.936  0.00  0.00    +0.000 OA
ATOM      4  H   UNL     1      -7.047   1.178 124.440  0.00  0.00    +0.000 HD
ENDROOT
BRANCH   2   5
ATOM      5  C   UNL     1      -7.209   3.470 123.228  0.00  0.00    +0.000 A 
ATOM      6  C   UNL     1      -5.911   3.971 123.335  0.00  0.00    +0.000 A 
ATOM      7  C   UNL     1      -5.209   4.313 122.175  0.00  0.00    +0.000 A 
ATOM      8  C   UNL     1      -5.832   4.147 120.948  0.00  0.00    +0.000 A 
ATOM      9  N   UNL     1      -7.087   3.667 120.809  0.00  0.00    +0.000 NA
ATOM     10  C   UNL     1      -7.741   3.324 121.951  0.00  0.00    +0.000 A 
ENDBRANCH   2   5
BRANCH   1  11
ATOM     11  C   UNL     1      -8.495   1.226 126.028  0.00  0.00    +0.000 C 
BRANCH  11  12
ATOM     12  C   UNL     1      -9.258  -0.085 125.795  0.00  0.00    +0.000 C 
BRANCH  12  13
ATOM     13  O   UNL     1      -9.655  -0.140 124.424  0.00  0.00    +0.000 OA
BRANCH  13  15
ATOM     14  O   UNL     1      -8.005  -0.845 123.136  0.00  0.00    +0.000 OA
ATOM     15  N   UNL     1      -9.035  -1.198 123.711  0.00  0.00    +0.000 N 
ATOM     16  O   UNL     1      -9.579  -2.301 123.751  0.00  0.00    +0.000 OA
ENDBRANCH  13  15
ENDBRANCH  12  13
ENDBRANCH  11  12
ENDBRANCH   1  11
TORSDOF 5
ENDMDL
MODEL 9
REMARK VINA RESULT:      -4.9     10.991     12.091
REMARK  Name = Nicorandil
REMARK  5 active torsions:
REMARK  status: ('A' for Active; 'I' for Inactive)
REMARK    1  A    between atoms: N_2  and  O_4
REMARK    2  A    between atoms: O_4  and  C_5
REMARK    3  A    between atoms: C_5  and  C_6
REMARK    4  A    between atoms: C_6  and  N_7
REMARK    5  A    between atoms: C_8  and  C_10
REMARK                            x       y       z     vdW  Elec       q    Type
REMARK                         _______ _______ _______ _____ _____    ______ ____
ROOT
ATOM      1  N   UNL     1      -7.416  -2.863 128.348  0.00  0.00    +0.000 N 
ATOM      2  C   UNL     1      -8.470  -3.373 127.605  0.00  0.00    +0.000 C 
ATOM      3  O   UNL     1      -9.297  -4.155 128.061  0.00  0.00    +0.000 OA
ATOM      4  H   UNL     1      -6.838  -2.135 127.947  0.00  0.00    +0.000 HD
ENDROOT
BRANCH   2   5
ATOM      5  C   UNL     1      -8.593  -2.917 126.199  0.00  0.00    +0.000 A 
ATOM      6  C   UNL     1      -8.360  -3.758 125.109  0.00  0.00    +0.000 A 
ATOM      7  C   UNL     1      -8.555  -3.272 123.813  0.00  0.00    +0.000 A 
ATOM      8  C   UNL     1      -8.973  -1.960 123.651  0.00  0.00    +0.000 A 
ATOM      9  N   UNL     1      -9.205  -1.121 124.683  0.00  0.00    +0.000 NA
ATOM     10  C   UNL     1      -9.025  -1.622 125.934  0.00  0.00    +0.000 A 
ENDBRANCH   2   5
BRANCH   1  11
ATOM     11  C   UNL     1      -7.246  -3.231 129.751  0.00  0.00    +0.000 C 
BRANCH  11  12
ATOM     12  C   UNL     1      -5.895  -3.883 130.077  0.00  0.00    +0.000 C 
BRANCH  12  13
ATOM     13  O   UNL     1      -4.898  -3.305 129.233  0.00  0.00    +0.000 OA
BRANCH  13  15
ATOM     14  O   UNL     1      -3.374  -3.523 130.817  0.00  0.00    +0.000 OA
ATOM     15  N   UNL     1      -3.578  -3.663 129.611  0.00  0.00    +0.000 N 
ATOM     16  O   UNL     1      -2.825  -4.057 128.722  0.00  0.00    +0.000 OA
ENDBRANCH  13  15
ENDBRANCH  12  13
ENDBRANCH  11  12
ENDBRANCH   1  11
TORSDOF 5
ENDMDL
