MODEL 1
REMARK VINA RESULT:      -6.6      0.000      0.000
REMARK  Name = Nifurtimox
REMARK  4 active torsions:
REMARK  status: ('A' for Active; 'I' for Inactive)
REMARK    1  A    between atoms: C_1  and  C_2
REMARK    2  A    between atoms: N_9  and  N_10
REMARK    3  A    between atoms: C_11  and  C_12
REMARK    4  A    between atoms: C_15  and  N_17
REMARK                            x       y       z     vdW  Elec       q    Type
REMARK                         _______ _______ _______ _____ _____    ______ ____
ROOT
ATOM      1  N   UNL     1      -6.877   0.773 123.428  0.00  0.00    +0.000 NA
ATOM      2  C   UNL     1      -7.315   2.000 123.358  0.00  0.00    +0.000 C 
ENDROOT
BRANCH   1  11
ATOM      3  C   UNL     1      -8.909  -0.093 126.164  0.00  0.00    +0.000 C 
ATOM      4  C   UNL     1      -7.646  -0.582 125.444  0.00  0.00    +0.000 C 
ATOM      5  C   UNL     1      -7.402  -2.081 125.619  0.00  0.00    +0.000 C 
ATOM      6  S   UNL     1      -8.674  -3.044 124.854  0.00  0.00    +0.000 S 
ATOM      7  O   UNL     1      -9.956  -2.730 125.439  0.00  0.00    +0.000 OA
ATOM      8  O   UNL     1      -8.220  -4.428 124.820  0.00  0.00    +0.000 OA
ATOM      9  C   UNL     1      -8.602  -2.394 123.212  0.00  0.00    +0.000 C 
ATOM     10  C   UNL     1      -8.704  -0.870 123.224  0.00  0.00    +0.000 C 
ATOM     11  N   UNL     1      -7.619  -0.228 124.013  0.00  0.00    +0.000 N 
ENDBRANCH   1  11
BRANCH   2  12
ATOM     12  C   UNL     1      -6.512   3.055 122.754  0.00  0.00    +0.000 A 
ATOM     13  C   UNL     1      -5.503   3.818 123.312  0.00  0.00    +0.000 A 
ATOM     14  C   UNL     1      -5.031   4.706 122.321  0.00  0.00    +0.000 A 
ATOM     15  C   UNL     1      -5.783   4.450 121.201  0.00  0.00    +0.000 A 
ATOM     16  O   UNL     1      -6.673   3.423 121.421  0.00  0.00    +0.000 OA
BRANCH  15  17
ATOM     17  N   UNL     1      -5.739   5.097 119.918  0.00  0.00    +0.000 N 
ATOM     18  O   UNL     1      -6.428   4.642 118.998  0.00  0.00    +0.000 OA
ATOM     19  O   UNL     1      -4.996   6.089 119.839  0.00  0.00    +0.000 OA
ENDBRANCH  15  17
ENDBRANCH   2  12
TORSDOF 3
ENDMDL
MODEL 2
REMARK VINA RESULT:      -6.6      9.653     10.678
REMARK  Name = Nifurtimox
REMARK  4 active torsions:
REMARK  status: ('A' for Active; 'I' for Inactive)
REMARK    1  A    between atoms: C_1  and  C_2
REMARK    2  A    between atoms: N_9  and  N_10
REMARK    3  A    between atoms: C_11  and  C_12
REMARK    4  A    between atoms: C_15  and  N_17
REMARK                            x       y       z     vdW  Elec       q    Type
REMARK                         _______ _______ _______ _____ _____    ______ ____
ROOT
ATOM      1  N   UNL     1      -8.941   7.629 129.954  0.00  0.00    +0.000 NA
ATOM      2  C   UNL     1      -8.602   6.687 130.791  0.00  0.00    +0.000 C 
ENDROOT
BRANCH   1  11
ATOM      3  C   UNL     1     -12.336   8.178 130.683  0.00  0.00    +0.000 C 
ATOM      4  C   UNL     1     -11.439   7.134 130.006  0.00  0.00    +0.000 C 
ATOM      5  C   UNL     1     -12.176   6.306 128.954  0.00  0.00    +0.000 C 
ATOM      6  S   UNL     1     -12.699   7.302 127.588  0.00  0.00    +0.000 S 
ATOM      7  O   UNL     1     -13.591   8.341 128.042  0.00  0.00    +0.000 OA
ATOM      8  O   UNL     1     -13.127   6.403 126.524  0.00  0.00    +0.000 OA
ATOM      9  C   UNL     1     -11.151   8.017 127.123  0.00  0.00    +0.000 C 
ATOM     10  C   UNL     1     -10.470   8.670 128.323  0.00  0.00    +0.000 C 
ATOM     11  N   UNL     1     -10.211   7.710 129.429  0.00  0.00    +0.000 N 
ENDBRANCH   1  11
BRANCH   2  12
ATOM     12  C   UNL     1      -7.250   6.602 131.325  0.00  0.00    +0.000 A 
ATOM     13  C   UNL     1      -6.791   5.939 132.449  0.00  0.00    +0.000 A 
ATOM     14  C   UNL     1      -5.399   6.155 132.542  0.00  0.00    +0.000 A 
ATOM     15  C   UNL     1      -5.071   6.951 131.472  0.00  0.00    +0.000 A 
ATOM     16  O   UNL     1      -6.173   7.212 130.690  0.00  0.00    +0.000 OA
BRANCH  15  17
ATOM     17  N   UNL     1      -3.791   7.497 131.113  0.00  0.00    +0.000 N 
ATOM     18  O   UNL     1      -3.057   7.929 132.008  0.00  0.00    +0.000 OA
ATOM     19  O   UNL     1      -3.520   7.484 129.901  0.00  0.00    +0.000 OA
ENDBRANCH  15  17
ENDBRANCH   2  12
TORSDOF 3
ENDMDL
MODEL 3
REMARK VINA RESULT:      -6.4     10.441     12.301
REMARK  Name = Nifurtimox
REMARK  4 active torsions:
REMARK  status: ('A' for Active; 'I' for Inactive)
REMARK    1  A    between atoms: C_1  and  C_2
REMARK    2  A    between atoms: N_9  and  N_10
REMARK    3  A    between atoms: C_11  and  C_12
REMARK    4  A    between atoms: C_15  and  N_17
REMARK                            x       y       z     vdW  Elec       q    Type
REMARK                         _______ _______ _______ _____ _____    ______ ____
ROOT
ATOM      1  N   UNL     1      -9.827   6.537 131.206  0.00  0.00    +0.000 NA
ATOM      2  C   UNL     1     -10.226   5.908 132.277  0.00  0.00    +0.000 C 
ENDROOT
BRANCH   1  11
ATOM      3  C   UNL     1     -12.869   8.238 130.742  0.00  0.00    +0.000 C 
ATOM      4  C   UNL     1     -12.189   6.925 130.334  0.00  0.00    +0.000 C 
ATOM      5  C   UNL     1     -12.726   6.358 129.020  0.00  0.00    +0.000 C 
ATOM      6  S   UNL     1     -12.361   7.418 127.652  0.00  0.00    +0.000 S 
ATOM      7  O   UNL     1     -12.958   8.716 127.854  0.00  0.00    +0.000 OA
ATOM      8  O   UNL     1     -12.649   6.679 126.431  0.00  0.00    +0.000 OA
ATOM      9  C   UNL     1     -10.607   7.546 127.825  0.00  0.00    +0.000 C 
ATOM     10  C   UNL     1     -10.229   7.973 129.242  0.00  0.00    +0.000 C 
ATOM     11  N   UNL     1     -10.719   7.025 130.278  0.00  0.00    +0.000 N 
ENDBRANCH   1  11
BRANCH   2  12
ATOM     12  C   UNL     1      -9.271   5.379 133.242  0.00  0.00    +0.000 A 
ATOM     13  C   UNL     1      -8.930   4.066 133.509  0.00  0.00    +0.000 A 
ATOM     14  C   UNL     1      -7.955   4.070 134.530  0.00  0.00    +0.000 A 
ATOM     15  C   UNL     1      -7.751   5.390 134.847  0.00  0.00    +0.000 A 
ATOM     16  O   UNL     1      -8.514   6.217 134.055  0.00  0.00    +0.000 OA
BRANCH  15  17
ATOM     17  N   UNL     1      -6.886   5.955 135.848  0.00  0.00    +0.000 N 
ATOM     18  O   UNL     1      -7.371   6.282 136.936  0.00  0.00    +0.000 OA
ATOM     19  O   UNL     1      -5.691   6.064 135.529  0.00  0.00    +0.000 OA
ENDBRANCH  15  17
ENDBRANCH   2  12
TORSDOF 3
ENDMDL
MODEL 4
REMARK VINA RESULT:      -6.3      4.419      8.353
REMARK  Name = Nifurtimox
REMARK  4 active torsions:
REMARK  status: ('A' for Active; 'I' for Inactive)
REMARK    1  A    between atoms: C_1  and  C_2
REMARK    2  A    between atoms: N_9  and  N_10
REMARK    3  A    between atoms: C_11  and  C_12
REMARK    4  A    between atoms: C_15  and  N_17
REMARK                            x       y       z     vdW  Elec       q    Type
REMARK                         _______ _______ _______ _____ _____    ______ ____
ROOT
ATOM      1  N   UNL     1      -7.362  -2.579 126.383  0.00  0.00    +0.000 NA
ATOM      2  C   UNL     1      -7.307  -2.097 127.595  0.00  0.00    +0.000 C 
ENDROOT
BRANCH   1  11
ATOM      3  C   UNL     1      -9.110  -2.997 123.362  0.00  0.00    +0.000 C 
ATOM      4  C   UNL     1      -7.937  -2.189 123.933  0.00  0.00    +0.000 C 
ATOM      5  C   UNL     1      -7.700  -0.875 123.190  0.00  0.00    +0.000 C 
ATOM      6  S   UNL     1      -9.060   0.240 123.383  0.00  0.00    +0.000 S 
ATOM      7  O   UNL     1     -10.269  -0.353 122.864  0.00  0.00    +0.000 OA
ATOM      8  O   UNL     1      -8.634   1.545 122.896  0.00  0.00    +0.000 OA
ATOM      9  C   UNL     1      -9.150   0.307 125.148  0.00  0.00    +0.000 C 
ATOM     10  C   UNL     1      -9.226  -1.097 125.743  0.00  0.00    +0.000 C 
ATOM     11  N   UNL     1      -8.055  -1.939 125.381  0.00  0.00    +0.000 N 
ENDBRANCH   1  11
BRANCH   2  12
ATOM     12  C   UNL     1      -6.586  -2.793 128.653  0.00  0.00    +0.000 A 
ATOM     13  C   UNL     1      -7.076  -3.602 129.662  0.00  0.00    +0.000 A 
ATOM     14  C   UNL     1      -5.980  -4.044 130.434  0.00  0.00    +0.000 A 
ATOM     15  C   UNL     1      -4.868  -3.476 129.864  0.00  0.00    +0.000 A 
ATOM     16  O   UNL     1      -5.200  -2.734 128.754  0.00  0.00    +0.000 OA
BRANCH  15  17
ATOM     17  N   UNL     1      -3.494  -3.569 130.280  0.00  0.00    +0.000 N 
ATOM     18  O   UNL     1      -3.245  -3.729 131.479  0.00  0.00    +0.000 OA
ATOM     19  O   UNL     1      -2.650  -3.482 129.373  0.00  0.00    +0.000 OA
ENDBRANCH  15  17
ENDBRANCH   2  12
TORSDOF 3
ENDMDL
MODEL 5
REMARK VINA RESULT:      -6.3      9.738     10.894
REMARK  Name = Nifurtimox
REMARK  4 active torsions:
REMARK  status: ('A' for Active; 'I' for Inactive)
REMARK    1  A    between atoms: C_1  and  C_2
REMARK    2  A    between atoms: N_9  and  N_10
REMARK    3  A    between atoms: C_11  and  C_12
REMARK    4  A    between atoms: C_15  and  N_17
REMARK                            x       y       z     vdW  Elec       q    Type
REMARK                         _______ _______ _______ _____ _____    ______ ____
ROOT
ATOM      1  N   UNL     1      -6.100   6.471 130.225  0.00  0.00    +0.000 NA
ATOM      2  C   UNL     1      -6.944   6.733 131.186  0.00  0.00    +0.000 C 
ENDROOT
BRANCH   1  11
ATOM      3  C   UNL     1      -2.905   6.739 128.783  0.00  0.00    +0.000 C 
ATOM      4  C   UNL     1      -3.746   5.738 129.585  0.00  0.00    +0.000 C 
ATOM      5  C   UNL     1      -2.896   4.762 130.398  0.00  0.00    +0.000 C 
ATOM      6  S   UNL     1      -1.979   5.590 131.664  0.00  0.00    +0.000 S 
ATOM      7  O   UNL     1      -1.095   6.569 131.079  0.00  0.00    +0.000 OA
ATOM      8  O   UNL     1      -1.435   4.572 132.553  0.00  0.00    +0.000 OA
ATOM      9  C   UNL     1      -3.297   6.416 132.504  0.00  0.00    +0.000 C 
ATOM     10  C   UNL     1      -4.145   7.225 131.525  0.00  0.00    +0.000 C 
ATOM     11  N   UNL     1      -4.746   6.385 130.455  0.00  0.00    +0.000 N 
ENDBRANCH   1  11
BRANCH   2  12
ATOM     12  C   UNL     1      -8.373   6.840 130.927  0.00  0.00    +0.000 A 
ATOM     13  C   UNL     1      -9.435   6.293 131.625  0.00  0.00    +0.000 A 
ATOM     14  C   UNL     1     -10.627   6.687 130.981  0.00  0.00    +0.000 A 
ATOM     15  C   UNL     1     -10.238   7.452 129.909  0.00  0.00    +0.000 A 
ATOM     16  O   UNL     1      -8.870   7.594 129.868  0.00  0.00    +0.000 OA
BRANCH  15  17
ATOM     17  N   UNL     1     -11.054   8.073 128.900  0.00  0.00    +0.000 N 
ATOM     18  O   UNL     1     -12.283   8.019 129.013  0.00  0.00    +0.000 OA
ATOM     19  O   UNL     1     -10.438   8.631 127.977  0.00  0.00    +0.000 OA
ENDBRANCH  15  17
ENDBRANCH   2  12
TORSDOF 3
ENDMDL
MODEL 6
REMARK VINA RESULT:      -6.3      8.528      9.288
REMARK  Name = Nifurtimox
REMARK  4 active torsions:
REMARK  status: ('A' for Active; 'I' for Inactive)
REMARK    1  A    between atoms: C_1  and  C_2
REMARK    2  A    between atoms: N_9  and  N_10
REMARK    3  A    between atoms: C_11  and  C_12
REMARK    4  A    between atoms: C_15  and  N_17
REMARK                            x       y       z     vdW  Elec       q    Type
REMARK                         _______ _______ _______ _____ _____    ______ ____
ROOT
ATOM      1  N   UNL     1      -9.594   4.700 130.291  0.00  0.00    +0.000 NA
ATOM      2  C   UNL     1     -10.177   5.808 130.658  0.00  0.00    +0.000 C 
ENDROOT
BRANCH   1  11
ATOM      3  C   UNL     1      -9.914   1.660 132.029  0.00  0.00    +0.000 C 
ATOM      4  C   UNL     1      -9.683   3.150 132.311  0.00  0.00    +0.000 C 
ATOM      5  C   UNL     1      -8.939   3.401 133.623  0.00  0.00    +0.000 C 
ATOM      6  S   UNL     1      -7.290   2.762 133.572  0.00  0.00    +0.000 S 
ATOM      7  O   UNL     1      -7.315   1.338 133.339  0.00  0.00    +0.000 OA
ATOM      8  O   UNL     1      -6.577   3.288 134.728  0.00  0.00    +0.000 OA
ATOM      9  C   UNL     1      -6.690   3.583 132.127  0.00  0.00    +0.000 C 
ATOM     10  C   UNL     1      -7.629   3.361 130.943  0.00  0.00    +0.000 C 
ATOM     11  N   UNL     1      -9.008   3.853 131.204  0.00  0.00    +0.000 N 
ENDBRANCH   1  11
BRANCH   2  12
ATOM     12  C   UNL     1     -10.778   6.705 129.679  0.00  0.00    +0.000 A 
ATOM     13  C   UNL     1     -11.460   7.892 129.880  0.00  0.00    +0.000 A 
ATOM     14  C   UNL     1     -11.844   8.390 128.617  0.00  0.00    +0.000 A 
ATOM     15  C   UNL     1     -11.387   7.476 127.699  0.00  0.00    +0.000 A 
ATOM     16  O   UNL     1     -10.701   6.454 128.313  0.00  0.00    +0.000 OA
BRANCH  15  17
ATOM     17  N   UNL     1     -11.541   7.480 126.269  0.00  0.00    +0.000 N 
ATOM     18  O   UNL     1     -12.530   6.928 125.777  0.00  0.00    +0.000 OA
ATOM     19  O   UNL     1     -10.644   8.056 125.632  0.00  0.00    +0.000 OA
ENDBRANCH  15  17
ENDBRANCH   2  12
TORSDOF 3
ENDMDL
MODEL 7
REMARK VINA RESULT:      -6.3      9.499     11.799
REMARK  Name = Nifurtimox
REMARK  4 active torsions:
REMARK  status: ('A' for Active; 'I' for Inactive)
REMARK    1  A    between atoms: C_1  and  C_2
REMARK    2  A    between atoms: N_9  and  N_10
REMARK    3  A    between atoms: C_11  and  C_12
REMARK    4  A    between atoms: C_15  and  N_17
REMARK                            x       y       z     vdW  Elec       q    Type
REMARK                         _______ _______ _______ _____ _____    ______ ____
ROOT
ATOM      1  N   UNL     1     -10.142   5.663 131.275  0.00  0.00    +0.000 NA
ATOM      2  C   UNL     1      -9.338   6.173 132.167  0.00  0.00    +0.000 C 
ENDROOT
BRANCH   1  11
ATOM      3  C   UNL     1     -12.816   7.928 130.992  0.00  0.00    +0.000 C 
ATOM      4  C   UNL     1     -12.330   6.609 130.377  0.00  0.00    +0.000 C 
ATOM      5  C   UNL     1     -12.847   6.388 128.956  0.00  0.00    +0.000 C 
ATOM      6  S   UNL     1     -12.203   7.592 127.831  0.00  0.00    +0.000 S 
ATOM      7  O   UNL     1     -12.593   8.918 128.244  0.00  0.00    +0.000 OA
ATOM      8  O   UNL     1     -12.510   7.142 126.480  0.00  0.00    +0.000 OA
ATOM      9  C   UNL     1     -10.471   7.375 128.110  0.00  0.00    +0.000 C 
ATOM     10  C   UNL     1     -10.143   7.472 129.599  0.00  0.00    +0.000 C 
ATOM     11  N   UNL     1     -10.864   6.457 130.413  0.00  0.00    +0.000 N 
ENDBRANCH   1  11
BRANCH   2  12
ATOM     12  C   UNL     1      -8.593   5.323 133.086  0.00  0.00    +0.000 A 
ATOM     13  C   UNL     1      -8.074   5.622 134.333  0.00  0.00    +0.000 A 
ATOM     14  C   UNL     1      -7.439   4.463 134.828  0.00  0.00    +0.000 A 
ATOM     15  C   UNL     1      -7.591   3.508 133.854  0.00  0.00    +0.000 A 
ATOM     16  O   UNL     1      -8.321   3.990 132.792  0.00  0.00    +0.000 OA
BRANCH  15  17
ATOM     17  N   UNL     1      -7.101   2.156 133.831  0.00  0.00    +0.000 N 
ATOM     18  O   UNL     1      -6.022   1.906 134.379  0.00  0.00    +0.000 OA
ATOM     19  O   UNL     1      -7.825   1.330 133.252  0.00  0.00    +0.000 OA
ENDBRANCH  15  17
ENDBRANCH   2  12
TORSDOF 3
ENDMDL
MODEL 8
REMARK VINA RESULT:      -6.2      9.124     10.989
REMARK  Name = Nifurtimox
REMARK  4 active torsions:
REMARK  status: ('A' for Active; 'I' for Inactive)
REMARK    1  A    between atoms: C_1  and  C_2
REMARK    2  A    between atoms: N_9  and  N_10
REMARK    3  A    between atoms: C_11  and  C_12
REMARK    4  A    between atoms: C_15  and  N_17
REMARK                            x       y       z     vdW  Elec       q    Type
REMARK                         _______ _______ _______ _____ _____    ______ ____
ROOT
ATOM      1  N   UNL     1      -6.795   6.025 130.408  0.00  0.00    +0.000 NA
ATOM      2  C   UNL     1      -7.520   6.809 131.159  0.00  0.00    +0.000 C 
ENDROOT
BRANCH   1  11
ATOM      3  C   UNL     1      -3.862   7.155 131.983  0.00  0.00    +0.000 C 
ATOM      4  C   UNL     1      -4.660   7.385 130.693  0.00  0.00    +0.000 C 
ATOM      5  C   UNL     1      -3.794   7.883 129.536  0.00  0.00    +0.000 C 
ATOM      6  S   UNL     1      -2.607   6.670 129.038  0.00  0.00    +0.000 S 
ATOM      7  O   UNL     1      -1.734   6.345 130.140  0.00  0.00    +0.000 OA
ATOM      8  O   UNL     1      -2.034   7.106 127.773  0.00  0.00    +0.000 OA
ATOM      9  C   UNL     1      -3.684   5.304 128.720  0.00  0.00    +0.000 C 
ATOM     10  C   UNL     1      -4.591   5.034 129.918  0.00  0.00    +0.000 C 
ATOM     11  N   UNL     1      -5.438   6.205 130.273  0.00  0.00    +0.000 N 
ENDBRANCH   1  11
BRANCH   2  12
ATOM     12  C   UNL     1      -8.960   6.620 131.279  0.00  0.00    +0.000 A 
ATOM     13  C   UNL     1      -9.699   6.184 132.364  0.00  0.00    +0.000 A 
ATOM     14  C   UNL     1     -11.059   6.171 131.985  0.00  0.00    +0.000 A 
ATOM     15  C   UNL     1     -11.087   6.592 130.678  0.00  0.00    +0.000 A 
ATOM     16  O   UNL     1      -9.825   6.907 130.228  0.00  0.00    +0.000 OA
BRANCH  15  17
ATOM     17  N   UNL     1     -12.216   6.726 129.798  0.00  0.00    +0.000 N 
ATOM     18  O   UNL     1     -12.242   6.060 128.758  0.00  0.00    +0.000 OA
ATOM     19  O   UNL     1     -13.097   7.519 130.168  0.00  0.00    +0.000 OA
ENDBRANCH  15  17
ENDBRANCH   2  12
TORSDOF 3
ENDMDL
MODEL 9
REMARK VINA RESULT:      -6.2      8.903      9.644
REMARK  Name = Nifurtimox
REMARK  4 active torsions:
REMARK  status: ('A' for Active; 'I' for Inactive)
REMARK    1  A    between atoms: C_1  and  C_2
REMARK    2  A    between atoms: N_9  and  N_10
REMARK    3  A    between atoms: C_11  and  C_12
REMARK    4  A    between atoms: C_15  and  N_17
REMARK                            x       y       z     vdW  Elec       q    Type
REMARK                         _______ _______ _______ _____ _____    ______ ____
ROOT
ATOM      1  N   UNL     1      -9.705   4.650 131.823  0.00  0.00    +0.000 NA
ATOM      2  C   UNL     1     -10.396   4.525 130.723  0.00  0.00    +0.000 C 
ENDROOT
BRANCH   1  11
ATOM      3  C   UNL     1      -7.218   3.799 134.158  0.00  0.00    +0.000 C 
ATOM      4  C   UNL     1      -7.448   3.799 132.641  0.00  0.00    +0.000 C 
ATOM      5  C   UNL     1      -6.603   2.756 131.910  0.00  0.00    +0.000 C 
ATOM      6  S   UNL     1      -7.061   1.108 132.365  0.00  0.00    +0.000 S 
ATOM      7  O   UNL     1      -6.878   0.914 133.783  0.00  0.00    +0.000 OA
ATOM      8  O   UNL     1      -6.419   0.197 131.427  0.00  0.00    +0.000 OA
ATOM      9  C   UNL     1      -8.789   1.160 131.996  0.00  0.00    +0.000 C 
ATOM     10  C   UNL     1      -9.456   2.351 132.679  0.00  0.00    +0.000 C 
ATOM     11  N   UNL     1      -8.867   3.654 132.269  0.00  0.00    +0.000 N 
ENDBRANCH   1  11
BRANCH   2  12
ATOM     12  C   UNL     1     -11.294   5.580 130.272  0.00  0.00    +0.000 A 
ATOM     13  C   UNL     1     -11.979   6.526 131.014  0.00  0.00    +0.000 A 
ATOM     14  C   UNL     1     -12.717   7.329 130.118  0.00  0.00    +0.000 A 
ATOM     15  C   UNL     1     -12.456   6.829 128.866  0.00  0.00    +0.000 A 
ATOM     16  O   UNL     1     -11.564   5.783 128.922  0.00  0.00    +0.000 OA
BRANCH  15  17
ATOM     17  N   UNL     1     -12.982   7.255 127.597  0.00  0.00    +0.000 N 
ATOM     18  O   UNL     1     -13.878   8.106 127.580  0.00  0.00    +0.000 OA
ATOM     19  O   UNL     1     -12.475   6.721 126.597  0.00  0.00    +0.000 OA
ENDBRANCH  15  17
ENDBRANCH   2  12
TORSDOF 3
ENDMDL
