MODEL 1
REMARK VINA RESULT:     -10.1      0.000      0.000
REMARK  Name = Nilotinib
REMARK  8 active torsions:
REMARK  status: ('A' for Active; 'I' for Inactive)
REMARK    1  A    between atoms: C_1  and  C_2
REMARK    2  A    between atoms: N_4  and  C_7
REMARK    3  A    between atoms: C_9  and  N_10
REMARK    4  A    between atoms: C_11  and  C_13
REMARK    5  A    between atoms: C_16  and  C_17
REMARK    6  A    between atoms: C_18  and  N_19
REMARK    7  A    between atoms: C_24  and  C_26
REMARK    8  A    between atoms: C_34  and  C_36
REMARK                            x       y       z     vdW  Elec       q    Type
REMARK                         _______ _______ _______ _____ _____    ______ ____
ROOT
ATOM      1  C   UNL     1      -8.316   1.781 132.970  0.00  0.00    +0.000 A 
ATOM      2  C   UNL     1      -9.363   2.699 133.083  0.00  0.00    +0.000 A 
ATOM      3  C   UNL     1      -9.171   3.890 133.776  0.00  0.00    +0.000 A 
ATOM      4  C   UNL     1      -7.948   4.154 134.418  0.00  0.00    +0.000 A 
ATOM      5  C   UNL     1      -7.843   5.371 135.294  0.00  0.00    +0.000 C 
ATOM      6  C   UNL     1      -6.877   3.245 134.278  0.00  0.00    +0.000 A 
ATOM      7  C   UNL     1      -7.089   2.061 133.551  0.00  0.00    +0.000 A 
ENDROOT
BRANCH   6   8
ATOM      8  N   UNL     1      -5.585   3.552 134.749  0.00  0.00    +0.000 N 
ATOM      9  C   UNL     1      -4.477   3.816 133.947  0.00  0.00    +0.000 A 
ATOM     10  N   UNL     1      -3.447   2.960 133.970  0.00  0.00    +0.000 NA
ATOM     11  C   UNL     1      -2.477   3.161 133.055  0.00  0.00    +0.000 A 
ATOM     12  C   UNL     1      -2.477   4.202 132.159  0.00  0.00    +0.000 A 
ATOM     13  C   UNL     1      -3.548   5.060 132.237  0.00  0.00    +0.000 A 
ATOM     14  N   UNL     1      -4.547   4.869 133.114  0.00  0.00    +0.000 NA
ATOM     15  H   UNL     1      -5.338   3.254 135.678  0.00  0.00    +0.000 HD
BRANCH  13  16
ATOM     16  C   UNL     1      -3.662   6.242 131.386  0.00  0.00    +0.000 A 
ATOM     17  C   UNL     1      -4.258   6.165 130.128  0.00  0.00    +0.000 A 
ATOM     18  N   UNL     1      -4.448   7.222 129.299  0.00  0.00    +0.000 NA
ATOM     19  C   UNL     1      -3.997   8.418 129.731  0.00  0.00    +0.000 A 
ATOM     20  C   UNL     1      -3.384   8.609 130.957  0.00  0.00    +0.000 A 
ATOM     21  C   UNL     1      -3.217   7.507 131.793  0.00  0.00    +0.000 A 
ENDBRANCH  13  16
ENDBRANCH   6   8
BRANCH   1  23
ATOM     22  N   UNL     1      -7.308   0.151 131.415  0.00  0.00    +0.000 N 
ATOM     23  C   UNL     1      -8.450   0.643 132.050  0.00  0.00    +0.000 C 
ATOM     24  O   UNL     1      -9.605   0.217 131.934  0.00  0.00    +0.000 OA
ATOM     25  H   UNL     1      -6.410   0.531 131.692  0.00  0.00    +0.000 HD
BRANCH  22  28
ATOM     26  C   UNL     1      -7.721  -2.078 128.445  0.00  0.00    +0.000 A 
ATOM     27  C   UNL     1      -7.917  -0.988 129.318  0.00  0.00    +0.000 A 
ATOM     28  C   UNL     1      -7.298  -0.999 130.577  0.00  0.00    +0.000 A 
ATOM     29  C   UNL     1      -6.593  -2.144 130.952  0.00  0.00    +0.000 A 
ATOM     30  C   UNL     1      -6.356  -3.204 130.075  0.00  0.00    +0.000 A 
ATOM     31  C   UNL     1      -6.943  -3.181 128.816  0.00  0.00    +0.000 A 
BRANCH  26  35
ATOM     32  C   UNL     1      -9.352  -3.333 123.911  0.00  0.00    +0.000 C 
ATOM     33  C   UNL     1      -8.864  -2.610 125.106  0.00  0.00    +0.000 A 
ATOM     34  C   UNL     1      -8.500  -3.128 126.331  0.00  0.00    +0.000 A 
ATOM     35  N   UNL     1      -8.207  -2.045 127.122  0.00  0.00    +0.000 N 
ATOM     36  C   UNL     1      -8.325  -0.934 126.325  0.00  0.00    +0.000 A 
ATOM     37  N   UNL     1      -8.730  -1.242 125.110  0.00  0.00    +0.000 NA
ENDBRANCH  26  35
BRANCH  30  38
ATOM     38  C   UNL     1      -5.399  -4.280 130.512  0.00  0.00    +0.000 C 
ATOM     39  F   UNL     1      -4.995  -4.118 131.804  0.00  0.00    +0.000 F 
ATOM     40  F   UNL     1      -5.944  -5.523 130.437  0.00  0.00    +0.000 F 
ATOM     41  F   UNL     1      -4.261  -4.316 129.769  0.00  0.00    +0.000 F 
ENDBRANCH  30  38
ENDBRANCH  22  28
ENDBRANCH   1  23
TORSDOF 6
ENDMDL
MODEL 2
REMARK VINA RESULT:     -10.1      4.733      7.494
REMARK  Name = Nilotinib
REMARK  8 active torsions:
REMARK  status: ('A' for Active; 'I' for Inactive)
REMARK    1  A    between atoms: C_1  and  C_2
REMARK    2  A    between atoms: N_4  and  C_7
REMARK    3  A    between atoms: C_9  and  N_10
REMARK    4  A    between atoms: C_11  and  C_13
REMARK    5  A    between atoms: C_16  and  C_17
REMARK    6  A    between atoms: C_18  and  N_19
REMARK    7  A    between atoms: C_24  and  C_26
REMARK    8  A    between atoms: C_34  and  C_36
REMARK                            x       y       z     vdW  Elec       q    Type
REMARK                         _______ _______ _______ _____ _____    ______ ____
ROOT
ATOM      1  C   UNL     1      -3.905   5.054 127.908  0.00  0.00    +0.000 A 
ATOM      2  C   UNL     1      -2.575   5.373 128.190  0.00  0.00    +0.000 A 
ATOM      3  C   UNL     1      -2.263   6.103 129.334  0.00  0.00    +0.000 A 
ATOM      4  C   UNL     1      -3.281   6.574 130.180  0.00  0.00    +0.000 A 
ATOM      5  C   UNL     1      -2.910   7.498 131.307  0.00  0.00    +0.000 C 
ATOM      6  C   UNL     1      -4.624   6.225 129.917  0.00  0.00    +0.000 A 
ATOM      7  C   UNL     1      -4.910   5.466 128.769  0.00  0.00    +0.000 A 
ENDROOT
BRANCH   6   8
ATOM      8  N   UNL     1      -5.654   6.521 130.831  0.00  0.00    +0.000 N 
ATOM      9  C   UNL     1      -6.951   6.013 130.776  0.00  0.00    +0.000 A 
ATOM     10  N   UNL     1      -7.963   6.858 130.541  0.00  0.00    +0.000 NA
ATOM     11  C   UNL     1      -9.172   6.303 130.325  0.00  0.00    +0.000 A 
ATOM     12  C   UNL     1      -9.412   4.952 130.379  0.00  0.00    +0.000 A 
ATOM     13  C   UNL     1      -8.327   4.162 130.673  0.00  0.00    +0.000 A 
ATOM     14  N   UNL     1      -7.102   4.681 130.860  0.00  0.00    +0.000 NA
ATOM     15  H   UNL     1      -5.587   7.376 131.358  0.00  0.00    +0.000 HD
BRANCH  13  16
ATOM     16  C   UNL     1      -8.436   2.712 130.817  0.00  0.00    +0.000 A 
ATOM     17  C   UNL     1      -7.621   1.855 130.079  0.00  0.00    +0.000 A 
ATOM     18  N   UNL     1      -7.623   0.503 130.189  0.00  0.00    +0.000 NA
ATOM     19  C   UNL     1      -8.503  -0.030 131.062  0.00  0.00    +0.000 A 
ATOM     20  C   UNL     1      -9.364   0.723 131.841  0.00  0.00    +0.000 A 
ATOM     21  C   UNL     1      -9.327   2.111 131.715  0.00  0.00    +0.000 A 
ENDBRANCH  13  16
ENDBRANCH   6   8
BRANCH   1  23
ATOM     22  N   UNL     1      -5.511   4.015 126.347  0.00  0.00    +0.000 N 
ATOM     23  C   UNL     1      -4.205   4.095 126.835  0.00  0.00    +0.000 C 
ATOM     24  O   UNL     1      -3.229   3.438 126.454  0.00  0.00    +0.000 OA
ATOM     25  H   UNL     1      -6.184   4.697 126.681  0.00  0.00    +0.000 HD
BRANCH  22  28
ATOM     26  C   UNL     1      -7.087   1.279 124.350  0.00  0.00    +0.000 A 
ATOM     27  C   UNL     1      -6.548   1.967 125.457  0.00  0.00    +0.000 A 
ATOM     28  C   UNL     1      -5.902   3.195 125.253  0.00  0.00    +0.000 A 
ATOM     29  C   UNL     1      -5.729   3.635 123.940  0.00  0.00    +0.000 A 
ATOM     30  C   UNL     1      -6.300   2.984 122.845  0.00  0.00    +0.000 A 
ATOM     31  C   UNL     1      -6.968   1.782 123.050  0.00  0.00    +0.000 A 
BRANCH  26  35
ATOM     32  C   UNL     1      -9.324  -3.124 123.721  0.00  0.00    +0.000 C 
ATOM     33  C   UNL     1      -8.893  -1.795 124.209  0.00  0.00    +0.000 A 
ATOM     34  C   UNL     1      -7.968  -0.937 123.653  0.00  0.00    +0.000 A 
ATOM     35  N   UNL     1      -7.864   0.117 124.526  0.00  0.00    +0.000 N 
ATOM     36  C   UNL     1      -8.782  -0.107 125.521  0.00  0.00    +0.000 A 
ATOM     37  N   UNL     1      -9.408  -1.255 125.363  0.00  0.00    +0.000 NA
ENDBRANCH  26  35
BRANCH  30  38
ATOM     38  C   UNL     1      -6.238   3.667 121.506  0.00  0.00    +0.000 C 
ATOM     39  F   UNL     1      -5.490   4.806 121.543  0.00  0.00    +0.000 F 
ATOM     40  F   UNL     1      -5.685   2.880 120.545  0.00  0.00    +0.000 F 
ATOM     41  F   UNL     1      -7.459   4.039 121.039  0.00  0.00    +0.000 F 
ENDBRANCH  30  38
ENDBRANCH  22  28
ENDBRANCH   1  23
TORSDOF 6
ENDMDL
MODEL 3
REMARK VINA RESULT:     -10.0      4.372      9.665
REMARK  Name = Nilotinib
REMARK  8 active torsions:
REMARK  status: ('A' for Active; 'I' for Inactive)
REMARK    1  A    between atoms: C_1  and  C_2
REMARK    2  A    between atoms: N_4  and  C_7
REMARK    3  A    between atoms: C_9  and  N_10
REMARK    4  A    between atoms: C_11  and  C_13
REMARK    5  A    between atoms: C_16  and  C_17
REMARK    6  A    between atoms: C_18  and  N_19
REMARK    7  A    between atoms: C_24  and  C_26
REMARK    8  A    between atoms: C_34  and  C_36
REMARK                            x       y       z     vdW  Elec       q    Type
REMARK                         _______ _______ _______ _____ _____    ______ ____
ROOT
ATOM      1  C   UNL     1      -6.533   3.390 125.563  0.00  0.00    +0.000 A 
ATOM      2  C   UNL     1      -5.994   4.424 124.792  0.00  0.00    +0.000 A 
ATOM      3  C   UNL     1      -5.863   4.269 123.415  0.00  0.00    +0.000 A 
ATOM      4  C   UNL     1      -6.214   3.056 122.797  0.00  0.00    +0.000 A 
ATOM      5  C   UNL     1      -5.898   2.874 121.338  0.00  0.00    +0.000 C 
ATOM      6  C   UNL     1      -6.790   2.022 123.567  0.00  0.00    +0.000 A 
ATOM      7  C   UNL     1      -6.934   2.214 124.952  0.00  0.00    +0.000 A 
ENDROOT
BRANCH   6   8
ATOM      8  N   UNL     1      -7.320   0.864 122.964  0.00  0.00    +0.000 N 
ATOM      9  C   UNL     1      -7.041  -0.445 123.351  0.00  0.00    +0.000 A 
ATOM     10  N   UNL     1      -6.376  -1.239 122.502  0.00  0.00    +0.000 NA
ATOM     11  C   UNL     1      -5.978  -2.434 122.981  0.00  0.00    +0.000 A 
ATOM     12  C   UNL     1      -6.256  -2.878 124.250  0.00  0.00    +0.000 A 
ATOM     13  C   UNL     1      -6.984  -2.020 125.040  0.00  0.00    +0.000 A 
ATOM     14  N   UNL     1      -7.367  -0.809 124.603  0.00  0.00    +0.000 NA
ATOM     15  H   UNL     1      -7.651   0.933 122.016  0.00  0.00    +0.000 HD
BRANCH  13  16
ATOM     16  C   UNL     1      -7.402  -2.373 126.394  0.00  0.00    +0.000 A 
ATOM     17  C   UNL     1      -8.494  -3.212 126.612  0.00  0.00    +0.000 A 
ATOM     18  N   UNL     1      -8.916  -3.628 127.832  0.00  0.00    +0.000 NA
ATOM     19  C   UNL     1      -8.231  -3.164 128.899  0.00  0.00    +0.000 A 
ATOM     20  C   UNL     1      -7.137  -2.322 128.801  0.00  0.00    +0.000 A 
ATOM     21  C   UNL     1      -6.719  -1.924 127.532  0.00  0.00    +0.000 A 
ENDBRANCH  13  16
ENDBRANCH   6   8
BRANCH   1  23
ATOM     22  N   UNL     1      -7.784   2.792 127.604  0.00  0.00    +0.000 N 
ATOM     23  C   UNL     1      -6.880   3.645 126.968  0.00  0.00    +0.000 C 
ATOM     24  O   UNL     1      -6.307   4.622 127.463  0.00  0.00    +0.000 OA
ATOM     25  H   UNL     1      -8.089   1.964 127.102  0.00  0.00    +0.000 HD
BRANCH  22  28
ATOM     26  C   UNL     1      -9.315   3.944 130.811  0.00  0.00    +0.000 A 
ATOM     27  C   UNL     1      -8.831   3.983 129.487  0.00  0.00    +0.000 A 
ATOM     28  C   UNL     1      -8.127   2.881 128.982  0.00  0.00    +0.000 A 
ATOM     29  C   UNL     1      -7.845   1.827 129.852  0.00  0.00    +0.000 A 
ATOM     30  C   UNL     1      -8.361   1.761 131.148  0.00  0.00    +0.000 A 
ATOM     31  C   UNL     1      -9.086   2.840 131.640  0.00  0.00    +0.000 A 
BRANCH  26  35
ATOM     32  C   UNL     1     -12.854   7.406 131.344  0.00  0.00    +0.000 C 
ATOM     33  C   UNL     1     -11.671   6.533 131.508  0.00  0.00    +0.000 A 
ATOM     34  C   UNL     1     -11.223   5.531 130.674  0.00  0.00    +0.000 A 
ATOM     35  N   UNL     1     -10.146   4.967 131.311  0.00  0.00    +0.000 N 
ATOM     36  C   UNL     1      -9.940   5.700 132.453  0.00  0.00    +0.000 A 
ATOM     37  N   UNL     1     -10.848   6.641 132.604  0.00  0.00    +0.000 NA
ENDBRANCH  26  35
BRANCH  30  38
ATOM     38  C   UNL     1      -8.179   0.480 131.915  0.00  0.00    +0.000 C 
ATOM     39  F   UNL     1      -7.704   0.696 133.174  0.00  0.00    +0.000 F 
ATOM     40  F   UNL     1      -9.341  -0.210 132.060  0.00  0.00    +0.000 F 
ATOM     41  F   UNL     1      -7.299  -0.373 131.328  0.00  0.00    +0.000 F 
ENDBRANCH  30  38
ENDBRANCH  22  28
ENDBRANCH   1  23
TORSDOF 6
ENDMDL
MODEL 4
REMARK VINA RESULT:     -10.0      5.123      9.403
REMARK  Name = Nilotinib
REMARK  8 active torsions:
REMARK  status: ('A' for Active; 'I' for Inactive)
REMARK    1  A    between atoms: C_1  and  C_2
REMARK    2  A    between atoms: N_4  and  C_7
REMARK    3  A    between atoms: C_9  and  N_10
REMARK    4  A    between atoms: C_11  and  C_13
REMARK    5  A    between atoms: C_16  and  C_17
REMARK    6  A    between atoms: C_18  and  N_19
REMARK    7  A    between atoms: C_24  and  C_26
REMARK    8  A    between atoms: C_34  and  C_36
REMARK                            x       y       z     vdW  Elec       q    Type
REMARK                         _______ _______ _______ _____ _____    ______ ____
ROOT
ATOM      1  C   UNL     1      -6.826   0.566 127.894  0.00  0.00    +0.000 A 
ATOM      2  C   UNL     1      -5.728  -0.234 128.219  0.00  0.00    +0.000 A 
ATOM      3  C   UNL     1      -5.325  -1.246 127.352  0.00  0.00    +0.000 A 
ATOM      4  C   UNL     1      -6.050  -1.511 126.177  0.00  0.00    +0.000 A 
ATOM      5  C   UNL     1      -5.681  -2.718 125.361  0.00  0.00    +0.000 C 
ATOM      6  C   UNL     1      -7.140  -0.683 125.829  0.00  0.00    +0.000 A 
ATOM      7  C   UNL     1      -7.510   0.348 126.709  0.00  0.00    +0.000 A 
ENDROOT
BRANCH   6   8
ATOM      8  N   UNL     1      -7.780  -0.797 124.579  0.00  0.00    +0.000 N 
ATOM      9  C   UNL     1      -8.232   0.270 123.806  0.00  0.00    +0.000 A 
ATOM     10  N   UNL     1      -9.549   0.407 123.605  0.00  0.00    +0.000 NA
ATOM     11  C   UNL     1      -9.951   1.543 123.000  0.00  0.00    +0.000 A 
ATOM     12  C   UNL     1      -9.090   2.514 122.553  0.00  0.00    +0.000 A 
ATOM     13  C   UNL     1      -7.752   2.271 122.756  0.00  0.00    +0.000 A 
ATOM     14  N   UNL     1      -7.322   1.165 123.386  0.00  0.00    +0.000 NA
ATOM     15  H   UNL     1      -8.240  -1.665 124.361  0.00  0.00    +0.000 HD
BRANCH  13  16
ATOM     16  C   UNL     1      -6.714   3.186 122.289  0.00  0.00    +0.000 A 
ATOM     17  C   UNL     1      -5.964   3.940 123.191  0.00  0.00    +0.000 A 
ATOM     18  N   UNL     1      -4.951   4.773 122.844  0.00  0.00    +0.000 NA
ATOM     19  C   UNL     1      -4.684   4.884 121.526  0.00  0.00    +0.000 A 
ATOM     20  C   UNL     1      -5.368   4.189 120.543  0.00  0.00    +0.000 A 
ATOM     21  C   UNL     1      -6.394   3.329 120.933  0.00  0.00    +0.000 A 
ENDBRANCH  13  16
ENDBRANCH   6   8
BRANCH   1  23
ATOM     22  N   UNL     1      -8.305   1.850 129.396  0.00  0.00    +0.000 N 
ATOM     23  C   UNL     1      -7.102   1.770 128.691  0.00  0.00    +0.000 C 
ATOM     24  O   UNL     1      -6.202   2.617 128.660  0.00  0.00    +0.000 OA
ATOM     25  H   UNL     1      -8.899   1.028 129.415  0.00  0.00    +0.000 HD
BRANCH  22  28
ATOM     26  C   UNL     1     -10.057   4.791 130.892  0.00  0.00    +0.000 A 
ATOM     27  C   UNL     1      -9.618   3.865 129.923  0.00  0.00    +0.000 A 
ATOM     28  C   UNL     1      -8.643   2.920 130.271  0.00  0.00    +0.000 A 
ATOM     29  C   UNL     1      -8.071   3.004 131.542  0.00  0.00    +0.000 A 
ATOM     30  C   UNL     1      -8.534   3.887 132.520  0.00  0.00    +0.000 A 
ATOM     31  C   UNL     1      -9.523   4.804 132.185  0.00  0.00    +0.000 A 
BRANCH  26  35
ATOM     32  C   UNL     1     -13.459   7.655 128.652  0.00  0.00    +0.000 C 
ATOM     33  C   UNL     1     -12.586   6.971 129.632  0.00  0.00    +0.000 A 
ATOM     34  C   UNL     1     -11.573   6.068 129.392  0.00  0.00    +0.000 A 
ATOM     35  N   UNL     1     -11.133   5.663 130.627  0.00  0.00    +0.000 N 
ATOM     36  C   UNL     1     -11.836   6.394 131.552  0.00  0.00    +0.000 A 
ATOM     37  N   UNL     1     -12.725   7.181 130.983  0.00  0.00    +0.000 NA
ENDBRANCH  26  35
BRANCH  30  38
ATOM     38  C   UNL     1      -7.996   3.737 133.916  0.00  0.00    +0.000 C 
ATOM     39  F   UNL     1      -7.578   2.466 134.175  0.00  0.00    +0.000 F 
ATOM     40  F   UNL     1      -6.927   4.543 134.152  0.00  0.00    +0.000 F 
ATOM     41  F   UNL     1      -8.913   4.029 134.876  0.00  0.00    +0.000 F 
ENDBRANCH  30  38
ENDBRANCH  22  28
ENDBRANCH   1  23
TORSDOF 6
ENDMDL
MODEL 5
REMARK VINA RESULT:      -9.7      4.004      6.418
REMARK  Name = Nilotinib
REMARK  8 active torsions:
REMARK  status: ('A' for Active; 'I' for Inactive)
REMARK    1  A    between atoms: C_1  and  C_2
REMARK    2  A    between atoms: N_4  and  C_7
REMARK    3  A    between atoms: C_9  and  N_10
REMARK    4  A    between atoms: C_11  and  C_13
REMARK    5  A    between atoms: C_16  and  C_17
REMARK    6  A    between atoms: C_18  and  N_19
REMARK    7  A    between atoms: C_24  and  C_26
REMARK    8  A    between atoms: C_34  and  C_36
REMARK                            x       y       z     vdW  Elec       q    Type
REMARK                         _______ _______ _______ _____ _____    ______ ____
ROOT
ATOM      1  C   UNL     1      -6.085  -3.187 130.171  0.00  0.00    +0.000 A 
ATOM      2  C   UNL     1      -5.602  -4.488 130.338  0.00  0.00    +0.000 A 
ATOM      3  C   UNL     1      -5.504  -5.033 131.615  0.00  0.00    +0.000 A 
ATOM      4  C   UNL     1      -5.831  -4.266 132.747  0.00  0.00    +0.000 A 
ATOM      5  C   UNL     1      -5.550  -4.838 134.108  0.00  0.00    +0.000 C 
ATOM      6  C   UNL     1      -6.351  -2.964 132.580  0.00  0.00    +0.000 A 
ATOM      7  C   UNL     1      -6.463  -2.446 131.278  0.00  0.00    +0.000 A 
ENDROOT
BRANCH   6   8
ATOM      8  N   UNL     1      -6.859  -2.229 133.670  0.00  0.00    +0.000 N 
ATOM      9  C   UNL     1      -6.794  -0.844 133.807  0.00  0.00    +0.000 A 
ATOM     10  N   UNL     1      -6.051  -0.331 134.796  0.00  0.00    +0.000 NA
ATOM     11  C   UNL     1      -5.878   1.006 134.786  0.00  0.00    +0.000 A 
ATOM     12  C   UNL     1      -6.451   1.843 133.861  0.00  0.00    +0.000 A 
ATOM     13  C   UNL     1      -7.237   1.237 132.909  0.00  0.00    +0.000 A 
ATOM     14  N   UNL     1      -7.402  -0.096 132.871  0.00  0.00    +0.000 NA
ATOM     15  H   UNL     1      -6.981  -2.708 134.546  0.00  0.00    +0.000 HD
BRANCH  13  16
ATOM     16  C   UNL     1      -7.954   1.999 131.890  0.00  0.00    +0.000 A 
ATOM     17  C   UNL     1      -8.394   3.297 132.144  0.00  0.00    +0.000 A 
ATOM     18  N   UNL     1      -9.022   4.090 131.239  0.00  0.00    +0.000 NA
ATOM     19  C   UNL     1      -9.248   3.554 130.021  0.00  0.00    +0.000 A 
ATOM     20  C   UNL     1      -8.861   2.275 129.662  0.00  0.00    +0.000 A 
ATOM     21  C   UNL     1      -8.205   1.491 130.610  0.00  0.00    +0.000 A 
ENDBRANCH  13  16
ENDBRANCH   6   8
BRANCH   1  23
ATOM     22  N   UNL     1      -7.728  -2.401 128.506  0.00  0.00    +0.000 N 
ATOM     23  C   UNL     1      -6.401  -2.704 128.819  0.00  0.00    +0.000 C 
ATOM     24  O   UNL     1      -5.421  -2.605 128.073  0.00  0.00    +0.000 OA
ATOM     25  H   UNL     1      -8.411  -2.427 129.256  0.00  0.00    +0.000 HD
BRANCH  22  28
ATOM     26  C   UNL     1      -8.375   0.045 125.757  0.00  0.00    +0.000 A 
ATOM     27  C   UNL     1      -8.139  -0.455 127.055  0.00  0.00    +0.000 A 
ATOM     28  C   UNL     1      -8.144  -1.842 127.265  0.00  0.00    +0.000 A 
ATOM     29  C   UNL     1      -8.485  -2.668 126.194  0.00  0.00    +0.000 A 
ATOM     30  C   UNL     1      -8.672  -2.183 124.897  0.00  0.00    +0.000 A 
ATOM     31  C   UNL     1      -8.637  -0.810 124.681  0.00  0.00    +0.000 A 
BRANCH  26  35
ATOM     32  C   UNL     1      -6.822   4.773 125.610  0.00  0.00    +0.000 C 
ATOM     33  C   UNL     1      -7.583   3.513 125.467  0.00  0.00    +0.000 A 
ATOM     34  C   UNL     1      -7.263   2.260 125.944  0.00  0.00    +0.000 A 
ATOM     35  N   UNL     1      -8.240   1.419 125.473  0.00  0.00    +0.000 N 
ATOM     36  C   UNL     1      -9.146   2.207 124.808  0.00  0.00    +0.000 A 
ATOM     37  N   UNL     1      -8.771   3.469 124.778  0.00  0.00    +0.000 NA
ENDBRANCH  26  35
BRANCH  30  38
ATOM     38  C   UNL     1      -8.814  -3.184 123.784  0.00  0.00    +0.000 C 
ATOM     39  F   UNL     1      -8.394  -2.687 122.586  0.00  0.00    +0.000 F 
ATOM     40  F   UNL     1      -8.089  -4.312 124.002  0.00  0.00    +0.000 F 
ATOM     41  F   UNL     1     -10.098  -3.586 123.589  0.00  0.00    +0.000 F 
ENDBRANCH  30  38
ENDBRANCH  22  28
ENDBRANCH   1  23
TORSDOF 6
ENDMDL
MODEL 6
REMARK VINA RESULT:      -9.5      4.489      7.150
REMARK  Name = Nilotinib
REMARK  8 active torsions:
REMARK  status: ('A' for Active; 'I' for Inactive)
REMARK    1  A    between atoms: C_1  and  C_2
REMARK    2  A    between atoms: N_4  and  C_7
REMARK    3  A    between atoms: C_9  and  N_10
REMARK    4  A    between atoms: C_11  and  C_13
REMARK    5  A    between atoms: C_16  and  C_17
REMARK    6  A    between atoms: C_18  and  N_19
REMARK    7  A    between atoms: C_24  and  C_26
REMARK    8  A    between atoms: C_34  and  C_36
REMARK                            x       y       z     vdW  Elec       q    Type
REMARK                         _______ _______ _______ _____ _____    ______ ____
ROOT
ATOM      1  C   UNL     1      -3.539   4.339 128.116  0.00  0.00    +0.000 A 
ATOM      2  C   UNL     1      -2.829   5.504 127.815  0.00  0.00    +0.000 A 
ATOM      3  C   UNL     1      -2.231   6.236 128.836  0.00  0.00    +0.000 A 
ATOM      4  C   UNL     1      -2.383   5.846 130.179  0.00  0.00    +0.000 A 
ATOM      5  C   UNL     1      -1.863   6.758 131.256  0.00  0.00    +0.000 C 
ATOM      6  C   UNL     1      -3.070   4.651 130.484  0.00  0.00    +0.000 A 
ATOM      7  C   UNL     1      -3.644   3.917 129.432  0.00  0.00    +0.000 A 
ENDROOT
BRANCH   6   8
ATOM      8  N   UNL     1      -3.092   4.129 131.793  0.00  0.00    +0.000 N 
ATOM      9  C   UNL     1      -4.242   3.810 132.513  0.00  0.00    +0.000 A 
ATOM     10  N   UNL     1      -4.527   4.517 133.614  0.00  0.00    +0.000 NA
ATOM     11  C   UNL     1      -5.730   4.291 134.179  0.00  0.00    +0.000 A 
ATOM     12  C   UNL     1      -6.629   3.363 133.714  0.00  0.00    +0.000 A 
ATOM     13  C   UNL     1      -6.236   2.649 132.608  0.00  0.00    +0.000 A 
ATOM     14  N   UNL     1      -5.058   2.873 132.002  0.00  0.00    +0.000 NA
ATOM     15  H   UNL     1      -2.291   4.289 132.379  0.00  0.00    +0.000 HD
BRANCH  13  16
ATOM     16  C   UNL     1      -7.061   1.592 132.030  0.00  0.00    +0.000 A 
ATOM     17  C   UNL     1      -6.525   0.678 131.124  0.00  0.00    +0.000 A 
ATOM     18  N   UNL     1      -7.208  -0.361 130.581  0.00  0.00    +0.000 NA
ATOM     19  C   UNL     1      -8.504  -0.484 130.936  0.00  0.00    +0.000 A 
ATOM     20  C   UNL     1      -9.141   0.368 131.821  0.00  0.00    +0.000 A 
ATOM     21  C   UNL     1      -8.408   1.418 132.373  0.00  0.00    +0.000 A 
ENDBRANCH  13  16
ENDBRANCH   6   8
BRANCH   1  23
ATOM     22  N   UNL     1      -5.261   3.586 126.517  0.00  0.00    +0.000 N 
ATOM     23  C   UNL     1      -3.967   3.453 127.024  0.00  0.00    +0.000 C 
ATOM     24  O   UNL     1      -3.101   2.655 126.648  0.00  0.00    +0.000 OA
ATOM     25  H   UNL     1      -5.824   4.361 126.851  0.00  0.00    +0.000 HD
BRANCH  22  28
ATOM     26  C   UNL     1      -7.079   1.043 124.471  0.00  0.00    +0.000 A 
ATOM     27  C   UNL     1      -6.440   1.639 125.578  0.00  0.00    +0.000 A 
ATOM     28  C   UNL     1      -5.758   2.852 125.404  0.00  0.00    +0.000 A 
ATOM     29  C   UNL     1      -5.654   3.367 124.111  0.00  0.00    +0.000 A 
ATOM     30  C   UNL     1      -6.324   2.808 123.020  0.00  0.00    +0.000 A 
ATOM     31  C   UNL     1      -7.026   1.622 123.198  0.00  0.00    +0.000 A 
BRANCH  26  35
ATOM     32  C   UNL     1      -9.379  -3.324 123.818  0.00  0.00    +0.000 C 
ATOM     33  C   UNL     1      -8.945  -1.994 124.299  0.00  0.00    +0.000 A 
ATOM     34  C   UNL     1      -7.972  -1.170 123.776  0.00  0.00    +0.000 A 
ATOM     35  N   UNL     1      -7.892  -0.098 124.629  0.00  0.00    +0.000 N 
ATOM     36  C   UNL     1      -8.868  -0.278 125.577  0.00  0.00    +0.000 A 
ATOM     37  N   UNL     1      -9.510  -1.416 125.410  0.00  0.00    +0.000 NA
ENDBRANCH  26  35
BRANCH  30  38
ATOM     38  C   UNL     1      -6.321   3.572 121.725  0.00  0.00    +0.000 C 
ATOM     39  F   UNL     1      -5.603   4.727 121.807  0.00  0.00    +0.000 F 
ATOM     40  F   UNL     1      -5.779   2.859 120.702  0.00  0.00    +0.000 F 
ATOM     41  F   UNL     1      -7.566   3.936 121.317  0.00  0.00    +0.000 F 
ENDBRANCH  30  38
ENDBRANCH  22  28
ENDBRANCH   1  23
TORSDOF 6
ENDMDL
MODEL 7
REMARK VINA RESULT:      -9.5      4.635      9.520
REMARK  Name = Nilotinib
REMARK  8 active torsions:
REMARK  status: ('A' for Active; 'I' for Inactive)
REMARK    1  A    between atoms: C_1  and  C_2
REMARK    2  A    between atoms: N_4  and  C_7
REMARK    3  A    between atoms: C_9  and  N_10
REMARK    4  A    between atoms: C_11  and  C_13
REMARK    5  A    between atoms: C_16  and  C_17
REMARK    6  A    between atoms: C_18  and  N_19
REMARK    7  A    between atoms: C_24  and  C_26
REMARK    8  A    between atoms: C_34  and  C_36
REMARK                            x       y       z     vdW  Elec       q    Type
REMARK                         _______ _______ _______ _____ _____    ______ ____
ROOT
ATOM      1  C   UNL     1      -7.880   0.323 129.707  0.00  0.00    +0.000 A 
ATOM      2  C   UNL     1      -8.277  -0.603 130.675  0.00  0.00    +0.000 A 
ATOM      3  C   UNL     1      -7.997  -1.955 130.500  0.00  0.00    +0.000 A 
ATOM      4  C   UNL     1      -7.369  -2.408 129.326  0.00  0.00    +0.000 A 
ATOM      5  C   UNL     1      -7.240  -3.889 129.106  0.00  0.00    +0.000 C 
ATOM      6  C   UNL     1      -6.936  -1.472 128.362  0.00  0.00    +0.000 A 
ATOM      7  C   UNL     1      -7.209  -0.110 128.575  0.00  0.00    +0.000 A 
ENDROOT
BRANCH   6   8
ATOM      8  N   UNL     1      -6.146  -1.861 127.261  0.00  0.00    +0.000 N 
ATOM      9  C   UNL     1      -6.576  -1.903 125.936  0.00  0.00    +0.000 A 
ATOM     10  N   UNL     1      -6.652  -3.090 125.322  0.00  0.00    +0.000 NA
ATOM     11  C   UNL     1      -7.233  -3.102 124.106  0.00  0.00    +0.000 A 
ATOM     12  C   UNL     1      -7.695  -1.977 123.470  0.00  0.00    +0.000 A 
ATOM     13  C   UNL     1      -7.535  -0.794 124.152  0.00  0.00    +0.000 A 
ATOM     14  N   UNL     1      -6.990  -0.752 125.379  0.00  0.00    +0.000 NA
ATOM     15  H   UNL     1      -5.349  -2.449 127.436  0.00  0.00    +0.000 HD
BRANCH  13  16
ATOM     16  C   UNL     1      -7.928   0.493 123.583  0.00  0.00    +0.000 A 
ATOM     17  C   UNL     1      -6.997   1.516 123.413  0.00  0.00    +0.000 A 
ATOM     18  N   UNL     1      -7.269   2.719 122.848  0.00  0.00    +0.000 NA
ATOM     19  C   UNL     1      -8.542   2.928 122.453  0.00  0.00    +0.000 A 
ATOM     20  C   UNL     1      -9.549   1.987 122.579  0.00  0.00    +0.000 A 
ATOM     21  C   UNL     1      -9.235   0.755 123.151  0.00  0.00    +0.000 A 
ENDBRANCH  13  16
ENDBRANCH   6   8
BRANCH   1  23
ATOM     22  N   UNL     1      -8.831   2.186 131.017  0.00  0.00    +0.000 N 
ATOM     23  C   UNL     1      -7.970   1.760 130.004  0.00  0.00    +0.000 C 
ATOM     24  O   UNL     1      -7.241   2.470 129.302  0.00  0.00    +0.000 OA
ATOM     25  H   UNL     1      -9.285   1.477 131.583  0.00  0.00    +0.000 HD
BRANCH  22  28
ATOM     26  C   UNL     1     -10.057   5.688 131.456  0.00  0.00    +0.000 A 
ATOM     27  C   UNL     1      -9.851   4.422 130.869  0.00  0.00    +0.000 A 
ATOM     28  C   UNL     1      -8.936   3.535 131.455  0.00  0.00    +0.000 A 
ATOM     29  C   UNL     1      -8.188   3.988 132.543  0.00  0.00    +0.000 A 
ATOM     30  C   UNL     1      -8.421   5.220 133.158  0.00  0.00    +0.000 A 
ATOM     31  C   UNL     1      -9.350   6.088 132.596  0.00  0.00    +0.000 A 
BRANCH  26  35
ATOM     32  C   UNL     1     -12.651   9.049 128.855  0.00  0.00    +0.000 C 
ATOM     33  C   UNL     1     -12.176   8.080 129.868  0.00  0.00    +0.000 A 
ATOM     34  C   UNL     1     -10.991   7.376 129.890  0.00  0.00    +0.000 A 
ATOM     35  N   UNL     1     -11.066   6.551 130.984  0.00  0.00    +0.000 N 
ATOM     36  C   UNL     1     -12.247   6.849 131.618  0.00  0.00    +0.000 A 
ATOM     37  N   UNL     1     -12.940   7.757 130.963  0.00  0.00    +0.000 NA
ENDBRANCH  26  35
BRANCH  30  38
ATOM     38  C   UNL     1      -7.712   5.507 134.453  0.00  0.00    +0.000 C 
ATOM     39  F   UNL     1      -8.325   6.491 135.170  0.00  0.00    +0.000 F 
ATOM     40  F   UNL     1      -7.657   4.421 135.268  0.00  0.00    +0.000 F 
ATOM     41  F   UNL     1      -6.429   5.919 134.279  0.00  0.00    +0.000 F 
ENDBRANCH  30  38
ENDBRANCH  22  28
ENDBRANCH   1  23
TORSDOF 6
ENDMDL
MODEL 8
REMARK VINA RESULT:      -9.4      4.743      9.965
REMARK  Name = Nilotinib
REMARK  8 active torsions:
REMARK  status: ('A' for Active; 'I' for Inactive)
REMARK    1  A    between atoms: C_1  and  C_2
REMARK    2  A    between atoms: N_4  and  C_7
REMARK    3  A    between atoms: C_9  and  N_10
REMARK    4  A    between atoms: C_11  and  C_13
REMARK    5  A    between atoms: C_16  and  C_17
REMARK    6  A    between atoms: C_18  and  N_19
REMARK    7  A    between atoms: C_24  and  C_26
REMARK    8  A    between atoms: C_34  and  C_36
REMARK                            x       y       z     vdW  Elec       q    Type
REMARK                         _______ _______ _______ _____ _____    ______ ____
ROOT
ATOM      1  C   UNL     1      -6.356   3.592 125.696  0.00  0.00    +0.000 A 
ATOM      2  C   UNL     1      -5.795   4.554 124.851  0.00  0.00    +0.000 A 
ATOM      3  C   UNL     1      -5.766   4.338 123.477  0.00  0.00    +0.000 A 
ATOM      4  C   UNL     1      -6.243   3.133 122.932  0.00  0.00    +0.000 A 
ATOM      5  C   UNL     1      -6.037   2.875 121.466  0.00  0.00    +0.000 C 
ATOM      6  C   UNL     1      -6.840   2.174 123.779  0.00  0.00    +0.000 A 
ATOM      7  C   UNL     1      -6.880   2.427 125.161  0.00  0.00    +0.000 A 
ENDROOT
BRANCH   6   8
ATOM      8  N   UNL     1      -7.491   1.037 123.259  0.00  0.00    +0.000 N 
ATOM      9  C   UNL     1      -7.265  -0.276 123.666  0.00  0.00    +0.000 A 
ATOM     10  N   UNL     1      -6.724  -1.136 122.794  0.00  0.00    +0.000 NA
ATOM     11  C   UNL     1      -6.365  -2.341 123.280  0.00  0.00    +0.000 A 
ATOM     12  C   UNL     1      -6.567  -2.730 124.582  0.00  0.00    +0.000 A 
ATOM     13  C   UNL     1      -7.172  -1.803 125.397  0.00  0.00    +0.000 A 
ATOM     14  N   UNL     1      -7.511  -0.581 124.952  0.00  0.00    +0.000 NA
ATOM     15  H   UNL     1      -7.892   1.101 122.339  0.00  0.00    +0.000 HD
BRANCH  13  16
ATOM     16  C   UNL     1      -7.501  -2.089 126.791  0.00  0.00    +0.000 A 
ATOM     17  C   UNL     1      -7.132  -1.211 127.809  0.00  0.00    +0.000 A 
ATOM     18  N   UNL     1      -7.440  -1.376 129.120  0.00  0.00    +0.000 NA
ATOM     19  C   UNL     1      -8.131  -2.490 129.442  0.00  0.00    +0.000 A 
ATOM     20  C   UNL     1      -8.543  -3.432 128.516  0.00  0.00    +0.000 A 
ATOM     21  C   UNL     1      -8.223  -3.226 127.175  0.00  0.00    +0.000 A 
ENDBRANCH  13  16
ENDBRANCH   6   8
BRANCH   1  23
ATOM     22  N   UNL     1      -7.672   3.334 127.768  0.00  0.00    +0.000 N 
ATOM     23  C   UNL     1      -6.592   3.923 127.109  0.00  0.00    +0.000 C 
ATOM     24  O   UNL     1      -5.772   4.715 127.588  0.00  0.00    +0.000 OA
ATOM     25  H   UNL     1      -8.194   2.617 127.275  0.00  0.00    +0.000 HD
BRANCH  22  28
ATOM     26  C   UNL     1      -7.745   2.790 131.463  0.00  0.00    +0.000 A 
ATOM     27  C   UNL     1      -7.633   2.506 130.086  0.00  0.00    +0.000 A 
ATOM     28  C   UNL     1      -7.947   3.505 129.153  0.00  0.00    +0.000 A 
ATOM     29  C   UNL     1      -8.461   4.711 129.631  0.00  0.00    +0.000 A 
ATOM     30  C   UNL     1      -8.529   5.016 130.992  0.00  0.00    +0.000 A 
ATOM     31  C   UNL     1      -8.188   4.037 131.918  0.00  0.00    +0.000 A 
BRANCH  26  35
ATOM     32  C   UNL     1      -5.416   0.600 135.281  0.00  0.00    +0.000 C 
ATOM     33  C   UNL     1      -6.227   0.894 134.078  0.00  0.00    +0.000 A 
ATOM     34  C   UNL     1      -6.398   2.102 133.435  0.00  0.00    +0.000 A 
ATOM     35  N   UNL     1      -7.306   1.866 132.433  0.00  0.00    +0.000 N 
ATOM     36  C   UNL     1      -7.580   0.522 132.461  0.00  0.00    +0.000 A 
ATOM     37  N   UNL     1      -6.954  -0.087 133.447  0.00  0.00    +0.000 NA
ENDBRANCH  26  35
BRANCH  30  38
ATOM     38  C   UNL     1      -8.887   6.423 131.383  0.00  0.00    +0.000 C 
ATOM     39  F   UNL     1      -9.502   6.481 132.598  0.00  0.00    +0.000 F 
ATOM     40  F   UNL     1      -7.798   7.232 131.469  0.00  0.00    +0.000 F 
ATOM     41  F   UNL     1      -9.738   7.020 130.507  0.00  0.00    +0.000 F 
ENDBRANCH  30  38
ENDBRANCH  22  28
ENDBRANCH   1  23
TORSDOF 6
ENDMDL
MODEL 9
REMARK VINA RESULT:      -9.3      2.420      4.168
REMARK  Name = Nilotinib
REMARK  8 active torsions:
REMARK  status: ('A' for Active; 'I' for Inactive)
REMARK    1  A    between atoms: C_1  and  C_2
REMARK    2  A    between atoms: N_4  and  C_7
REMARK    3  A    between atoms: C_9  and  N_10
REMARK    4  A    between atoms: C_11  and  C_13
REMARK    5  A    between atoms: C_16  and  C_17
REMARK    6  A    between atoms: C_18  and  N_19
REMARK    7  A    between atoms: C_24  and  C_26
REMARK    8  A    between atoms: C_34  and  C_36
REMARK                            x       y       z     vdW  Elec       q    Type
REMARK                         _______ _______ _______ _____ _____    ______ ____
ROOT
ATOM      1  C   UNL     1      -9.030   2.096 131.496  0.00  0.00    +0.000 A 
ATOM      2  C   UNL     1      -9.915   2.789 130.666  0.00  0.00    +0.000 A 
ATOM      3  C   UNL     1      -9.998   4.176 130.744  0.00  0.00    +0.000 A 
ATOM      4  C   UNL     1      -9.241   4.885 131.693  0.00  0.00    +0.000 A 
ATOM      5  C   UNL     1      -9.488   6.359 131.855  0.00  0.00    +0.000 C 
ATOM      6  C   UNL     1      -8.321   4.192 132.510  0.00  0.00    +0.000 A 
ATOM      7  C   UNL     1      -8.239   2.794 132.394  0.00  0.00    +0.000 A 
ENDROOT
BRANCH   6   8
ATOM      8  N   UNL     1      -7.417   4.877 133.345  0.00  0.00    +0.000 N 
ATOM      9  C   UNL     1      -6.030   4.868 133.209  0.00  0.00    +0.000 A 
ATOM     10  N   UNL     1      -5.293   4.297 134.170  0.00  0.00    +0.000 NA
ATOM     11  C   UNL     1      -3.977   4.158 133.917  0.00  0.00    +0.000 A 
ATOM     12  C   UNL     1      -3.369   4.604 132.769  0.00  0.00    +0.000 A 
ATOM     13  C   UNL     1      -4.191   5.221 131.856  0.00  0.00    +0.000 A 
ATOM     14  N   UNL     1      -5.513   5.345 132.064  0.00  0.00    +0.000 NA
ATOM     15  H   UNL     1      -7.721   5.120 134.273  0.00  0.00    +0.000 HD
BRANCH  13  16
ATOM     16  C   UNL     1      -3.682   5.794 130.613  0.00  0.00    +0.000 A 
ATOM     17  C   UNL     1      -4.551   6.328 129.662  0.00  0.00    +0.000 A 
ATOM     18  N   UNL     1      -4.158   6.923 128.507  0.00  0.00    +0.000 NA
ATOM     19  C   UNL     1      -2.831   6.966 128.271  0.00  0.00    +0.000 A 
ATOM     20  C   UNL     1      -1.880   6.461 129.140  0.00  0.00    +0.000 A 
ATOM     21  C   UNL     1      -2.314   5.869 130.325  0.00  0.00    +0.000 A 
ENDBRANCH  13  16
ENDBRANCH   6   8
BRANCH   1  23
ATOM     22  N   UNL     1      -7.820   0.305 130.304  0.00  0.00    +0.000 N 
ATOM     23  C   UNL     1      -8.780   0.669 131.250  0.00  0.00    +0.000 C 
ATOM     24  O   UNL     1      -9.468  -0.093 131.940  0.00  0.00    +0.000 OA
ATOM     25  H   UNL     1      -7.254   1.042 129.895  0.00  0.00    +0.000 HD
BRANCH  22  28
ATOM     26  C   UNL     1      -6.161  -3.028 130.617  0.00  0.00    +0.000 A 
ATOM     27  C   UNL     1      -6.391  -1.644 130.771  0.00  0.00    +0.000 A 
ATOM     28  C   UNL     1      -7.426  -1.037 130.046  0.00  0.00    +0.000 A 
ATOM     29  C   UNL     1      -8.122  -1.814 129.119  0.00  0.00    +0.000 A 
ATOM     30  C   UNL     1      -7.932  -3.192 128.996  0.00  0.00    +0.000 A 
ATOM     31  C   UNL     1      -6.926  -3.802 129.738  0.00  0.00    +0.000 A 
BRANCH  26  35
ATOM     32  C   UNL     1      -4.006  -6.043 133.941  0.00  0.00    +0.000 C 
ATOM     33  C   UNL     1      -4.297  -4.992 132.941  0.00  0.00    +0.000 A 
ATOM     34  C   UNL     1      -5.500  -4.696 132.337  0.00  0.00    +0.000 A 
ATOM     35  N   UNL     1      -5.227  -3.703 131.429  0.00  0.00    +0.000 N 
ATOM     36  C   UNL     1      -3.900  -3.388 131.581  0.00  0.00    +0.000 A 
ATOM     37  N   UNL     1      -3.312  -4.155 132.475  0.00  0.00    +0.000 NA
ENDBRANCH  26  35
BRANCH  30  38
ATOM     38  C   UNL     1      -8.889  -3.962 128.128  0.00  0.00    +0.000 C 
ATOM     39  F   UNL     1     -10.052  -4.254 128.776  0.00  0.00    +0.000 F 
ATOM     40  F   UNL     1      -9.240  -3.278 127.007  0.00  0.00    +0.000 F 
ATOM     41  F   UNL     1      -8.389  -5.154 127.708  0.00  0.00    +0.000 F 
ENDBRANCH  30  38
ENDBRANCH  22  28
ENDBRANCH   1  23
TORSDOF 6
ENDMDL
