MODEL 1
REMARK VINA RESULT:      -7.6      0.000      0.000
REMARK  Name = Nilutamide
REMARK  5 active torsions:
REMARK  status: ('A' for Active; 'I' for Inactive)
REMARK    1  A    between atoms: C_1  and  C_2
REMARK    2  A    between atoms: C_2  and  C_3
REMARK    3  A    between atoms: N_7  and  C_10
REMARK    4  A    between atoms: C_12  and  C_19
REMARK    5  A    between atoms: C_13  and  N_16
REMARK                            x       y       z     vdW  Elec       q    Type
REMARK                         _______ _______ _______ _____ _____    ______ ____
ROOT
ATOM      1  C   UNL     1      -9.826   6.229 130.195  0.00  0.00    +0.000 A 
ATOM      2  C   UNL     1      -9.945   4.847 130.439  0.00  0.00    +0.000 A 
ATOM      3  C   UNL     1      -9.147   4.154 131.401  0.00  0.00    +0.000 A 
ATOM      4  C   UNL     1      -8.100   4.855 132.014  0.00  0.00    +0.000 A 
ATOM      5  C   UNL     1      -7.963   6.237 131.765  0.00  0.00    +0.000 A 
ATOM      6  C   UNL     1      -8.808   6.911 130.859  0.00  0.00    +0.000 A 
ENDROOT
BRANCH   1  13
ATOM      7  C   UNL     1     -13.269   9.469 128.734  0.00  0.00    +0.000 C 
ATOM      8  C   UNL     1     -12.653   8.093 128.532  0.00  0.00    +0.000 C 
ATOM      9  C   UNL     1     -13.737   7.134 128.021  0.00  0.00    +0.000 C 
ATOM     10  N   UNL     1     -11.519   8.096 127.640  0.00  0.00    +0.000 N 
ATOM     11  C   UNL     1     -10.602   7.138 128.034  0.00  0.00    +0.000 C 
ATOM     12  O   UNL     1      -9.833   6.584 127.254  0.00  0.00    +0.000 OA
ATOM     13  N   UNL     1     -10.774   6.901 129.375  0.00  0.00    +0.000 N 
ATOM     14  C   UNL     1     -11.953   7.497 129.785  0.00  0.00    +0.000 C 
ATOM     15  O   UNL     1     -12.407   7.546 130.920  0.00  0.00    +0.000 OA
ATOM     16  H   UNL     1     -11.497   8.487 126.706  0.00  0.00    +0.000 HD
ENDBRANCH   1  13
BRANCH   3  17
ATOM     17  C   UNL     1      -9.605   2.759 131.765  0.00  0.00    +0.000 C 
ATOM     18  F   UNL     1     -10.838   2.517 131.227  0.00  0.00    +0.000 F 
ATOM     19  F   UNL     1      -8.794   1.791 131.261  0.00  0.00    +0.000 F 
ATOM     20  F   UNL     1      -9.777   2.491 133.082  0.00  0.00    +0.000 F 
ENDBRANCH   3  17
BRANCH   4  21
ATOM     21  N   UNL     1      -7.065   4.210 132.859  0.00  0.00    +0.000 N 
ATOM     22  O   UNL     1      -7.215   4.222 134.085  0.00  0.00    +0.000 OA
ATOM     23  O   UNL     1      -6.145   3.615 132.282  0.00  0.00    +0.000 OA
ENDBRANCH   4  21
TORSDOF 3
ENDMDL
MODEL 2
REMARK VINA RESULT:      -7.5      2.018      2.551
REMARK  Name = Nilutamide
REMARK  5 active torsions:
REMARK  status: ('A' for Active; 'I' for Inactive)
REMARK    1  A    between atoms: C_1  and  C_2
REMARK    2  A    between atoms: C_2  and  C_3
REMARK    3  A    between atoms: N_7  and  C_10
REMARK    4  A    between atoms: C_12  and  C_19
REMARK    5  A    between atoms: C_13  and  N_16
REMARK                            x       y       z     vdW  Elec       q    Type
REMARK                         _______ _______ _______ _____ _____    ______ ____
ROOT
ATOM      1  C   UNL     1     -10.502   5.970 130.302  0.00  0.00    +0.000 A 
ATOM      2  C   UNL     1      -9.333   6.332 130.997  0.00  0.00    +0.000 A 
ATOM      3  C   UNL     1      -8.481   5.381 131.638  0.00  0.00    +0.000 A 
ATOM      4  C   UNL     1      -8.913   4.049 131.703  0.00  0.00    +0.000 A 
ATOM      5  C   UNL     1     -10.090   3.678 131.021  0.00  0.00    +0.000 A 
ATOM      6  C   UNL     1     -10.880   4.629 130.341  0.00  0.00    +0.000 A 
ENDROOT
BRANCH   1  13
ATOM      7  C   UNL     1     -13.186   9.948 129.096  0.00  0.00    +0.000 C 
ATOM      8  C   UNL     1     -12.739   8.550 128.699  0.00  0.00    +0.000 C 
ATOM      9  C   UNL     1     -13.846   7.895 127.862  0.00  0.00    +0.000 C 
ATOM     10  N   UNL     1     -11.485   8.529 127.986  0.00  0.00    +0.000 N 
ATOM     11  C   UNL     1     -10.784   7.376 128.292  0.00  0.00    +0.000 C 
ATOM     12  O   UNL     1      -9.981   6.854 127.523  0.00  0.00    +0.000 OA
ATOM     13  N   UNL     1     -11.203   6.928 129.520  0.00  0.00    +0.000 N 
ATOM     14  C   UNL     1     -12.340   7.627 129.883  0.00  0.00    +0.000 C 
ATOM     15  O   UNL     1     -12.962   7.541 130.933  0.00  0.00    +0.000 OA
ATOM     16  H   UNL     1     -11.258   9.075 127.163  0.00  0.00    +0.000 HD
ENDBRANCH   1  13
BRANCH   3  17
ATOM     17  C   UNL     1      -7.120   5.888 132.065  0.00  0.00    +0.000 C 
ATOM     18  F   UNL     1      -6.915   7.146 131.572  0.00  0.00    +0.000 F 
ATOM     19  F   UNL     1      -7.002   6.003 133.414  0.00  0.00    +0.000 F 
ATOM     20  F   UNL     1      -6.040   5.197 131.626  0.00  0.00    +0.000 F 
ENDBRANCH   3  17
BRANCH   4  21
ATOM     21  N   UNL     1      -8.241   3.008 132.519  0.00  0.00    +0.000 N 
ATOM     22  O   UNL     1      -8.688   2.763 133.643  0.00  0.00    +0.000 OA
ATOM     23  O   UNL     1      -7.316   2.376 131.990  0.00  0.00    +0.000 OA
ENDBRANCH   4  21
TORSDOF 3
ENDMDL
MODEL 3
REMARK VINA RESULT:      -7.3      1.026      2.104
REMARK  Name = Nilutamide
REMARK  5 active torsions:
REMARK  status: ('A' for Active; 'I' for Inactive)
REMARK    1  A    between atoms: C_1  and  C_2
REMARK    2  A    between atoms: C_2  and  C_3
REMARK    3  A    between atoms: N_7  and  C_10
REMARK    4  A    between atoms: C_12  and  C_19
REMARK    5  A    between atoms: C_13  and  N_16
REMARK                            x       y       z     vdW  Elec       q    Type
REMARK                         _______ _______ _______ _____ _____    ______ ____
ROOT
ATOM      1  C   UNL     1      -9.768   6.024 130.688  0.00  0.00    +0.000 A 
ATOM      2  C   UNL     1      -9.740   4.666 131.062  0.00  0.00    +0.000 A 
ATOM      3  C   UNL     1      -8.717   4.105 131.886  0.00  0.00    +0.000 A 
ATOM      4  C   UNL     1      -7.617   4.911 132.209  0.00  0.00    +0.000 A 
ATOM      5  C   UNL     1      -7.629   6.270 131.828  0.00  0.00    +0.000 A 
ATOM      6  C   UNL     1      -8.685   6.814 131.068  0.00  0.00    +0.000 A 
ENDROOT
BRANCH   1  13
ATOM      7  C   UNL     1     -13.025   7.128 127.131  0.00  0.00    +0.000 C 
ATOM      8  C   UNL     1     -12.427   7.523 128.472  0.00  0.00    +0.000 C 
ATOM      9  C   UNL     1     -12.477   9.051 128.607  0.00  0.00    +0.000 C 
ATOM     10  N   UNL     1     -13.074   6.895 129.598  0.00  0.00    +0.000 N 
ATOM     11  C   UNL     1     -12.154   6.655 130.603  0.00  0.00    +0.000 C 
ATOM     12  O   UNL     1     -12.456   6.604 131.792  0.00  0.00    +0.000 OA
ATOM     13  N   UNL     1     -10.907   6.569 130.035  0.00  0.00    +0.000 N 
ATOM     14  C   UNL     1     -10.984   7.006 128.725  0.00  0.00    +0.000 C 
ATOM     15  O   UNL     1     -10.087   7.021 127.892  0.00  0.00    +0.000 OA
ATOM     16  H   UNL     1     -14.069   6.897 129.791  0.00  0.00    +0.000 HD
ENDBRANCH   1  13
BRANCH   3  17
ATOM     17  C   UNL     1      -8.995   2.728 132.448  0.00  0.00    +0.000 C 
ATOM     18  F   UNL     1      -9.053   2.784 133.813  0.00  0.00    +0.000 F 
ATOM     19  F   UNL     1     -10.198   2.233 132.054  0.00  0.00    +0.000 F 
ATOM     20  F   UNL     1      -8.070   1.767 132.211  0.00  0.00    +0.000 F 
ENDBRANCH   3  17
BRANCH   4  21
ATOM     21  N   UNL     1      -6.390   4.400 132.868  0.00  0.00    +0.000 N 
ATOM     22  O   UNL     1      -6.281   4.528 134.091  0.00  0.00    +0.000 OA
ATOM     23  O   UNL     1      -5.575   3.789 132.162  0.00  0.00    +0.000 OA
ENDBRANCH   4  21
TORSDOF 3
ENDMDL
MODEL 4
REMARK VINA RESULT:      -7.0      7.962      9.766
REMARK  Name = Nilutamide
REMARK  5 active torsions:
REMARK  status: ('A' for Active; 'I' for Inactive)
REMARK    1  A    between atoms: C_1  and  C_2
REMARK    2  A    between atoms: C_2  and  C_3
REMARK    3  A    between atoms: N_7  and  C_10
REMARK    4  A    between atoms: C_12  and  C_19
REMARK    5  A    between atoms: C_13  and  N_16
REMARK                            x       y       z     vdW  Elec       q    Type
REMARK                         _______ _______ _______ _____ _____    ______ ____
ROOT
ATOM      1  C   UNL     1      -7.477   0.682 124.265  0.00  0.00    +0.000 A 
ATOM      2  C   UNL     1      -6.384   1.085 125.055  0.00  0.00    +0.000 A 
ATOM      3  C   UNL     1      -5.875   2.420 125.059  0.00  0.00    +0.000 A 
ATOM      4  C   UNL     1      -6.394   3.325 124.123  0.00  0.00    +0.000 A 
ATOM      5  C   UNL     1      -7.481   2.926 123.316  0.00  0.00    +0.000 A 
ATOM      6  C   UNL     1      -8.006   1.619 123.379  0.00  0.00    +0.000 A 
ENDROOT
BRANCH   1  13
ATOM      7  C   UNL     1      -7.915  -4.218 124.799  0.00  0.00    +0.000 C 
ATOM      8  C   UNL     1      -8.590  -2.921 124.382  0.00  0.00    +0.000 C 
ATOM      9  C   UNL     1      -9.622  -3.228 123.288  0.00  0.00    +0.000 C 
ATOM     10  N   UNL     1      -9.209  -2.217 125.478  0.00  0.00    +0.000 N 
ATOM     11  C   UNL     1      -9.129  -0.851 125.273  0.00  0.00    +0.000 C 
ATOM     12  O   UNL     1      -9.945  -0.054 125.729  0.00  0.00    +0.000 OA
ATOM     13  N   UNL     1      -8.064  -0.601 124.445  0.00  0.00    +0.000 N 
ATOM     14  C   UNL     1      -7.623  -1.799 123.912  0.00  0.00    +0.000 C 
ATOM     15  O   UNL     1      -6.661  -1.977 123.178  0.00  0.00    +0.000 OA
ATOM     16  H   UNL     1      -9.871  -2.608 126.140  0.00  0.00    +0.000 HD
ENDBRANCH   1  13
BRANCH   3  17
ATOM     17  C   UNL     1      -4.916   2.764 126.179  0.00  0.00    +0.000 C 
ATOM     18  F   UNL     1      -5.534   3.575 127.089  0.00  0.00    +0.000 F 
ATOM     19  F   UNL     1      -4.515   1.671 126.880  0.00  0.00    +0.000 F 
ATOM     20  F   UNL     1      -3.801   3.456 125.844  0.00  0.00    +0.000 F 
ENDBRANCH   3  17
BRANCH   4  21
ATOM     21  N   UNL     1      -5.814   4.666 123.869  0.00  0.00    +0.000 N 
ATOM     22  O   UNL     1      -5.168   4.842 122.832  0.00  0.00    +0.000 OA
ATOM     23  O   UNL     1      -6.084   5.567 124.675  0.00  0.00    +0.000 OA
ENDBRANCH   4  21
TORSDOF 3
ENDMDL
MODEL 5
REMARK VINA RESULT:      -6.8      8.410      9.974
REMARK  Name = Nilutamide
REMARK  5 active torsions:
REMARK  status: ('A' for Active; 'I' for Inactive)
REMARK    1  A    between atoms: C_1  and  C_2
REMARK    2  A    between atoms: C_2  and  C_3
REMARK    3  A    between atoms: N_7  and  C_10
REMARK    4  A    between atoms: C_12  and  C_19
REMARK    5  A    between atoms: C_13  and  N_16
REMARK                            x       y       z     vdW  Elec       q    Type
REMARK                         _______ _______ _______ _____ _____    ______ ____
ROOT
ATOM      1  C   UNL     1      -7.049   0.640 124.783  0.00  0.00    +0.000 A 
ATOM      2  C   UNL     1      -6.938   1.513 123.684  0.00  0.00    +0.000 A 
ATOM      3  C   UNL     1      -6.401   2.833 123.788  0.00  0.00    +0.000 A 
ATOM      4  C   UNL     1      -6.115   3.328 125.068  0.00  0.00    +0.000 A 
ATOM      5  C   UNL     1      -6.236   2.466 126.178  0.00  0.00    +0.000 A 
ATOM      6  C   UNL     1      -6.708   1.144 126.037  0.00  0.00    +0.000 A 
ENDROOT
BRANCH   1  13
ATOM      7  C   UNL     1      -9.594  -3.367 123.387  0.00  0.00    +0.000 C 
ATOM      8  C   UNL     1      -8.563  -2.787 124.342  0.00  0.00    +0.000 C 
ATOM      9  C   UNL     1      -8.638  -3.545 125.674  0.00  0.00    +0.000 C 
ATOM     10  N   UNL     1      -7.217  -2.813 123.821  0.00  0.00    +0.000 N 
ATOM     11  C   UNL     1      -6.509  -1.715 124.278  0.00  0.00    +0.000 C 
ATOM     12  O   UNL     1      -5.289  -1.715 124.420  0.00  0.00    +0.000 OA
ATOM     13  N   UNL     1      -7.404  -0.723 124.589  0.00  0.00    +0.000 N 
ATOM     14  C   UNL     1      -8.680  -1.257 124.585  0.00  0.00    +0.000 C 
ATOM     15  O   UNL     1      -9.735  -0.663 124.762  0.00  0.00    +0.000 OA
ATOM     16  H   UNL     1      -6.739  -3.624 123.446  0.00  0.00    +0.000 HD
ENDBRANCH   1  13
BRANCH   3  17
ATOM     17  C   UNL     1      -6.062   3.519 122.482  0.00  0.00    +0.000 C 
ATOM     18  F   UNL     1      -5.632   2.597 121.569  0.00  0.00    +0.000 F 
ATOM     19  F   UNL     1      -7.138   4.121 121.910  0.00  0.00    +0.000 F 
ATOM     20  F   UNL     1      -5.059   4.430 122.507  0.00  0.00    +0.000 F 
ENDBRANCH   3  17
BRANCH   4  21
ATOM     21  N   UNL     1      -5.763   4.743 125.340  0.00  0.00    +0.000 N 
ATOM     22  O   UNL     1      -6.573   5.622 125.029  0.00  0.00    +0.000 OA
ATOM     23  O   UNL     1      -4.706   4.963 125.948  0.00  0.00    +0.000 OA
ENDBRANCH   4  21
TORSDOF 3
ENDMDL
MODEL 6
REMARK VINA RESULT:      -6.7      2.248      3.215
REMARK  Name = Nilutamide
REMARK  5 active torsions:
REMARK  status: ('A' for Active; 'I' for Inactive)
REMARK    1  A    between atoms: C_1  and  C_2
REMARK    2  A    between atoms: C_2  and  C_3
REMARK    3  A    between atoms: N_7  and  C_10
REMARK    4  A    between atoms: C_12  and  C_19
REMARK    5  A    between atoms: C_13  and  N_16
REMARK                            x       y       z     vdW  Elec       q    Type
REMARK                         _______ _______ _______ _____ _____    ______ ____
ROOT
ATOM      1  C   UNL     1     -10.066   5.179 130.720  0.00  0.00    +0.000 A 
ATOM      2  C   UNL     1      -8.910   5.703 131.330  0.00  0.00    +0.000 A 
ATOM      3  C   UNL     1      -7.883   4.881 131.888  0.00  0.00    +0.000 A 
ATOM      4  C   UNL     1      -8.113   3.500 131.963  0.00  0.00    +0.000 A 
ATOM      5  C   UNL     1      -9.275   2.967 131.367  0.00  0.00    +0.000 A 
ATOM      6  C   UNL     1     -10.243   3.798 130.765  0.00  0.00    +0.000 A 
ENDROOT
BRANCH   1  13
ATOM      7  C   UNL     1     -12.631   7.188 126.995  0.00  0.00    +0.000 C 
ATOM      8  C   UNL     1     -12.034   7.389 128.379  0.00  0.00    +0.000 C 
ATOM      9  C   UNL     1     -11.654   8.866 128.546  0.00  0.00    +0.000 C 
ATOM     10  N   UNL     1     -12.906   6.967 129.448  0.00  0.00    +0.000 N 
ATOM     11  C   UNL     1     -12.161   6.468 130.502  0.00  0.00    +0.000 C 
ATOM     12  O   UNL     1     -12.542   6.500 131.669  0.00  0.00    +0.000 OA
ATOM     13  N   UNL     1     -10.956   6.031 130.010  0.00  0.00    +0.000 N 
ATOM     14  C   UNL     1     -10.818   6.478 128.709  0.00  0.00    +0.000 C 
ATOM     15  O   UNL     1      -9.903   6.239 127.933  0.00  0.00    +0.000 OA
ATOM     16  H   UNL     1     -13.870   7.253 129.580  0.00  0.00    +0.000 HD
ENDBRANCH   1  13
BRANCH   3  17
ATOM     17  C   UNL     1      -6.579   5.576 132.217  0.00  0.00    +0.000 C 
ATOM     18  F   UNL     1      -6.375   5.567 133.569  0.00  0.00    +0.000 F 
ATOM     19  F   UNL     1      -5.499   4.946 131.683  0.00  0.00    +0.000 F 
ATOM     20  F   UNL     1      -6.481   6.887 131.891  0.00  0.00    +0.000 F 
ENDBRANCH   3  17
BRANCH   4  21
ATOM     21  N   UNL     1      -7.238   2.562 132.708  0.00  0.00    +0.000 N 
ATOM     22  O   UNL     1      -7.484   2.346 133.898  0.00  0.00    +0.000 OA
ATOM     23  O   UNL     1      -6.354   1.975 132.068  0.00  0.00    +0.000 OA
ENDBRANCH   4  21
TORSDOF 3
ENDMDL
MODEL 7
REMARK VINA RESULT:      -6.6      2.899      6.507
REMARK  Name = Nilutamide
REMARK  5 active torsions:
REMARK  status: ('A' for Active; 'I' for Inactive)
REMARK    1  A    between atoms: C_1  and  C_2
REMARK    2  A    between atoms: C_2  and  C_3
REMARK    3  A    between atoms: N_7  and  C_10
REMARK    4  A    between atoms: C_12  and  C_19
REMARK    5  A    between atoms: C_13  and  N_16
REMARK                            x       y       z     vdW  Elec       q    Type
REMARK                         _______ _______ _______ _____ _____    ______ ____
ROOT
ATOM      1  C   UNL     1      -9.310   5.483 130.976  0.00  0.00    +0.000 A 
ATOM      2  C   UNL     1     -10.400   6.353 131.168  0.00  0.00    +0.000 A 
ATOM      3  C   UNL     1     -11.144   6.921 130.088  0.00  0.00    +0.000 A 
ATOM      4  C   UNL     1     -10.670   6.719 128.785  0.00  0.00    +0.000 A 
ATOM      5  C   UNL     1      -9.570   5.859 128.583  0.00  0.00    +0.000 A 
ATOM      6  C   UNL     1      -8.893   5.260 129.665  0.00  0.00    +0.000 A 
ENDROOT
BRANCH   1  13
ATOM      7  C   UNL     1      -7.153   4.658 135.353  0.00  0.00    +0.000 C 
ATOM      8  C   UNL     1      -7.413   4.139 133.947  0.00  0.00    +0.000 C 
ATOM      9  C   UNL     1      -6.225   3.271 133.512  0.00  0.00    +0.000 C 
ATOM     10  N   UNL     1      -8.648   3.404 133.825  0.00  0.00    +0.000 N 
ATOM     11  C   UNL     1      -9.198   3.601 132.571  0.00  0.00    +0.000 C 
ATOM     12  O   UNL     1      -9.921   2.777 132.017  0.00  0.00    +0.000 OA
ATOM     13  N   UNL     1      -8.733   4.795 132.079  0.00  0.00    +0.000 N 
ATOM     14  C   UNL     1      -7.699   5.236 132.884  0.00  0.00    +0.000 C 
ATOM     15  O   UNL     1      -7.078   6.287 132.790  0.00  0.00    +0.000 OA
ATOM     16  H   UNL     1      -8.938   2.625 134.406  0.00  0.00    +0.000 HD
ENDBRANCH   1  13
BRANCH   3  17
ATOM     17  C   UNL     1     -12.460   7.572 130.456  0.00  0.00    +0.000 C 
ATOM     18  F   UNL     1     -13.477   7.005 129.741  0.00  0.00    +0.000 F 
ATOM     19  F   UNL     1     -12.789   7.389 131.762  0.00  0.00    +0.000 F 
ATOM     20  F   UNL     1     -12.587   8.895 130.192  0.00  0.00    +0.000 F 
ENDBRANCH   3  17
BRANCH   4  21
ATOM     21  N   UNL     1     -11.211   7.423 127.597  0.00  0.00    +0.000 N 
ATOM     22  O   UNL     1     -12.041   6.838 126.894  0.00  0.00    +0.000 OA
ATOM     23  O   UNL     1     -10.864   8.599 127.422  0.00  0.00    +0.000 OA
ENDBRANCH   4  21
TORSDOF 3
ENDMDL
MODEL 8
REMARK VINA RESULT:      -6.6      8.045      9.422
REMARK  Name = Nilutamide
REMARK  5 active torsions:
REMARK  status: ('A' for Active; 'I' for Inactive)
REMARK    1  A    between atoms: C_1  and  C_2
REMARK    2  A    between atoms: C_2  and  C_3
REMARK    3  A    between atoms: N_7  and  C_10
REMARK    4  A    between atoms: C_12  and  C_19
REMARK    5  A    between atoms: C_13  and  N_16
REMARK                            x       y       z     vdW  Elec       q    Type
REMARK                         _______ _______ _______ _____ _____    ______ ____
ROOT
ATOM      1  C   UNL     1      -6.551   0.812 125.525  0.00  0.00    +0.000 A 
ATOM      2  C   UNL     1      -6.643   2.041 124.844  0.00  0.00    +0.000 A 
ATOM      3  C   UNL     1      -5.678   3.086 124.986  0.00  0.00    +0.000 A 
ATOM      4  C   UNL     1      -4.682   2.933 125.961  0.00  0.00    +0.000 A 
ATOM      5  C   UNL     1      -4.590   1.711 126.659  0.00  0.00    +0.000 A 
ATOM      6  C   UNL     1      -5.519   0.671 126.452  0.00  0.00    +0.000 A 
ENDROOT
BRANCH   1  13
ATOM      7  C   UNL     1      -8.159  -3.758 124.521  0.00  0.00    +0.000 C 
ATOM      8  C   UNL     1      -8.397  -2.264 124.361  0.00  0.00    +0.000 C 
ATOM      9  C   UNL     1      -9.123  -2.017 123.032  0.00  0.00    +0.000 C 
ATOM     10  N   UNL     1      -9.132  -1.679 125.455  0.00  0.00    +0.000 N 
ATOM     11  C   UNL     1      -8.707  -0.381 125.674  0.00  0.00    +0.000 C 
ATOM     12  O   UNL     1      -9.427   0.490 126.156  0.00  0.00    +0.000 OA
ATOM     13  N   UNL     1      -7.425  -0.260 125.199  0.00  0.00    +0.000 N 
ATOM     14  C   UNL     1      -7.121  -1.383 124.451  0.00  0.00    +0.000 C 
ATOM     15  O   UNL     1      -6.053  -1.655 123.919  0.00  0.00    +0.000 OA
ATOM     16  H   UNL     1     -10.020  -2.006 125.820  0.00  0.00    +0.000 HD
ENDBRANCH   1  13
BRANCH   3  17
ATOM     17  C   UNL     1      -5.747   4.200 123.964  0.00  0.00    +0.000 C 
ATOM     18  F   UNL     1      -6.704   3.917 123.030  0.00  0.00    +0.000 F 
ATOM     19  F   UNL     1      -6.112   5.390 124.509  0.00  0.00    +0.000 F 
ATOM     20  F   UNL     1      -4.637   4.423 123.220  0.00  0.00    +0.000 F 
ENDBRANCH   3  17
BRANCH   4  21
ATOM     21  N   UNL     1      -3.756   4.020 126.364  0.00  0.00    +0.000 N 
ATOM     22  O   UNL     1      -4.217   4.992 126.970  0.00  0.00    +0.000 OA
ATOM     23  O   UNL     1      -2.548   3.851 126.147  0.00  0.00    +0.000 OA
ENDBRANCH   4  21
TORSDOF 3
ENDMDL
MODEL 9
REMARK VINA RESULT:      -6.5      2.954      6.447
REMARK  Name = Nilutamide
REMARK  5 active torsions:
REMARK  status: ('A' for Active; 'I' for Inactive)
REMARK    1  A    between atoms: C_1  and  C_2
REMARK    2  A    between atoms: C_2  and  C_3
REMARK    3  A    between atoms: N_7  and  C_10
REMARK    4  A    between atoms: C_12  and  C_19
REMARK    5  A    between atoms: C_13  and  N_16
REMARK                            x       y       z     vdW  Elec       q    Type
REMARK                         _______ _______ _______ _____ _____    ______ ____
ROOT
ATOM      1  C   UNL     1      -9.039   5.823 130.749  0.00  0.00    +0.000 A 
ATOM      2  C   UNL     1     -10.170   6.615 131.027  0.00  0.00    +0.000 A 
ATOM      3  C   UNL     1     -11.085   7.049 130.019  0.00  0.00    +0.000 A 
ATOM      4  C   UNL     1     -10.756   6.799 128.680  0.00  0.00    +0.000 A 
ATOM      5  C   UNL     1      -9.618   6.018 128.390  0.00  0.00    +0.000 A 
ATOM      6  C   UNL     1      -8.765   5.548 129.410  0.00  0.00    +0.000 A 
ENDROOT
BRANCH   1  13
ATOM      7  C   UNL     1      -7.106   2.479 133.842  0.00  0.00    +0.000 C 
ATOM      8  C   UNL     1      -7.474   3.938 133.617  0.00  0.00    +0.000 C 
ATOM      9  C   UNL     1      -7.824   4.575 134.968  0.00  0.00    +0.000 C 
ATOM     10  N   UNL     1      -6.442   4.695 132.953  0.00  0.00    +0.000 N 
ATOM     11  C   UNL     1      -7.008   5.664 132.144  0.00  0.00    +0.000 C 
ATOM     12  O   UNL     1      -6.445   6.719 131.864  0.00  0.00    +0.000 OA
ATOM     13  N   UNL     1      -8.275   5.258 131.806  0.00  0.00    +0.000 N 
ATOM     14  C   UNL     1      -8.620   4.176 132.595  0.00  0.00    +0.000 C 
ATOM     15  O   UNL     1      -9.648   3.514 132.541  0.00  0.00    +0.000 OA
ATOM     16  H   UNL     1      -5.470   4.754 133.236  0.00  0.00    +0.000 HD
ENDBRANCH   1  13
BRANCH   3  17
ATOM     17  C   UNL     1     -12.399   7.616 130.513  0.00  0.00    +0.000 C 
ATOM     18  F   UNL     1     -12.508   8.928 130.144  0.00  0.00    +0.000 F 
ATOM     19  F   UNL     1     -13.477   6.995 129.966  0.00  0.00    +0.000 F 
ATOM     20  F   UNL     1     -12.592   7.648 131.853  0.00  0.00    +0.000 F 
ENDBRANCH   3  17
BRANCH   4  21
ATOM     21  N   UNL     1     -11.496   7.377 127.532  0.00  0.00    +0.000 N 
ATOM     22  O   UNL     1     -11.138   8.475 127.094  0.00  0.00    +0.000 OA
ATOM     23  O   UNL     1     -12.384   6.684 127.016  0.00  0.00    +0.000 OA
ENDBRANCH   4  21
TORSDOF 3
ENDMDL
