MODEL 1
REMARK VINA RESULT:      -7.1      0.000      0.000
REMARK  Name = Nilvadipine
REMARK  12 active torsions:
REMARK  status: ('A' for Active; 'I' for Inactive)
REMARK    1  A    between atoms: C_1  and  O_2
REMARK    2  A    between atoms: O_2  and  C_3
REMARK    3  A    between atoms: C_3  and  C_5
REMARK    4  A    between atoms: C_6  and  C_27
REMARK    5  A    between atoms: C_8  and  C_9
REMARK    6  A    between atoms: C_10  and  C_21
REMARK    7  A    between atoms: C_11  and  C_12
REMARK    8  A    between atoms: C_14  and  N_18
REMARK    9  A    between atoms: C_21  and  O_23
REMARK   10  A    between atoms: O_23  and  C_24
REMARK   11  A    between atoms: C_24  and  C_25
REMARK   12  A    between atoms: C_24  and  C_26
REMARK                            x       y       z     vdW  Elec       q    Type
REMARK                         _______ _______ _______ _____ _____    ______ ____
ROOT
ATOM      1  C   UNL     1      -6.218   2.463 125.571  0.00  0.00    +0.000 C 
ATOM      2  C   UNL     1      -5.239   1.873 126.289  0.00  0.00    +0.000 C 
ATOM      3  N   UNL     1      -5.057   0.513 126.293  0.00  0.00    +0.000 N 
ATOM      4  C   UNL     1      -5.692  -0.326 125.382  0.00  0.00    +0.000 C 
ATOM      5  C   UNL     1      -5.129  -1.724 125.277  0.00  0.00    +0.000 C 
ATOM      6  C   UNL     1      -6.710   0.133 124.599  0.00  0.00    +0.000 C 
ATOM      7  C   UNL     1      -7.175   1.604 124.743  0.00  0.00    +0.000 C 
ATOM      8  H   UNL     1      -4.409   0.108 126.964  0.00  0.00    +0.000 HD
ENDROOT
BRANCH   7   9
ATOM      9  C   UNL     1      -7.357   2.240 123.375  0.00  0.00    +0.000 A 
ATOM     10  C   UNL     1      -6.258   2.802 122.707  0.00  0.00    +0.000 A 
ATOM     11  C   UNL     1      -6.495   3.610 121.594  0.00  0.00    +0.000 A 
ATOM     12  C   UNL     1      -7.791   3.745 121.070  0.00  0.00    +0.000 A 
ATOM     13  C   UNL     1      -8.866   3.122 121.700  0.00  0.00    +0.000 A 
ATOM     14  C   UNL     1      -8.653   2.383 122.852  0.00  0.00    +0.000 A 
BRANCH  11  15
ATOM     15  N   UNL     1      -5.422   4.478 121.089  0.00  0.00    +0.000 N 
ATOM     16  O   UNL     1      -4.613   4.938 121.910  0.00  0.00    +0.000 OA
ATOM     17  O   UNL     1      -5.435   4.763 119.884  0.00  0.00    +0.000 OA
ENDBRANCH  11  15
ENDBRANCH   7   9
BRANCH   1  18
ATOM     18  C   UNL     1      -6.436   3.942 125.543  0.00  0.00    +0.000 C 
ATOM     19  O   UNL     1      -5.581   4.726 125.141  0.00  0.00    +0.000 OA
BRANCH  18  21
ATOM     20  C   UNL     1      -7.732   4.180 127.511  0.00  0.00    +0.000 C 
ATOM     21  O   UNL     1      -7.633   4.295 126.079  0.00  0.00    +0.000 OA
ENDBRANCH  18  21
ENDBRANCH   1  18
BRANCH   6  22
ATOM     22  C   UNL     1      -7.285  -0.782 123.545  0.00  0.00    +0.000 C 
ATOM     23  O   UNL     1      -6.668  -1.107 122.536  0.00  0.00    +0.000 OA
BRANCH  22  24
ATOM     24  O   UNL     1      -8.554  -1.212 123.781  0.00  0.00    +0.000 OA
BRANCH  24  25
ATOM     25  C   UNL     1      -8.653  -2.553 124.333  0.00  0.00    +0.000 C 
ATOM     26  C   UNL     1      -9.230  -2.492 125.742  0.00  0.00    +0.000 C 
ATOM     27  C   UNL     1      -9.592  -3.393 123.474  0.00  0.00    +0.000 C 
ENDBRANCH  24  25
ENDBRANCH  22  24
ENDBRANCH   6  22
BRANCH   2  28
ATOM     28  C   UNL     1      -4.295   2.770 127.073  0.00  0.00    +0.000 C 
ATOM     29  N   UNL     1      -3.513   3.514 127.724  0.00  0.00    +0.000 NA
ENDBRANCH   2  28
TORSDOF 8
ENDMDL
MODEL 2
REMARK VINA RESULT:      -7.0      3.319      5.716
REMARK  Name = Nilvadipine
REMARK  12 active torsions:
REMARK  status: ('A' for Active; 'I' for Inactive)
REMARK    1  A    between atoms: C_1  and  O_2
REMARK    2  A    between atoms: O_2  and  C_3
REMARK    3  A    between atoms: C_3  and  C_5
REMARK    4  A    between atoms: C_6  and  C_27
REMARK    5  A    between atoms: C_8  and  C_9
REMARK    6  A    between atoms: C_10  and  C_21
REMARK    7  A    between atoms: C_11  and  C_12
REMARK    8  A    between atoms: C_14  and  N_18
REMARK    9  A    between atoms: C_21  and  O_23
REMARK   10  A    between atoms: O_23  and  C_24
REMARK   11  A    between atoms: C_24  and  C_25
REMARK   12  A    between atoms: C_24  and  C_26
REMARK                            x       y       z     vdW  Elec       q    Type
REMARK                         _______ _______ _______ _____ _____    ______ ____
ROOT
ATOM      1  C   UNL     1      -8.211   0.735 126.276  0.00  0.00    +0.000 C 
ATOM      2  C   UNL     1      -7.633   1.936 126.489  0.00  0.00    +0.000 C 
ATOM      3  N   UNL     1      -6.685   2.126 127.463  0.00  0.00    +0.000 N 
ATOM      4  C   UNL     1      -6.075   1.065 128.124  0.00  0.00    +0.000 C 
ATOM      5  C   UNL     1      -4.820   1.408 128.894  0.00  0.00    +0.000 C 
ATOM      6  C   UNL     1      -6.560  -0.204 128.011  0.00  0.00    +0.000 C 
ATOM      7  C   UNL     1      -7.821  -0.460 127.147  0.00  0.00    +0.000 C 
ATOM      8  H   UNL     1      -6.395   3.076 127.685  0.00  0.00    +0.000 HD
ENDROOT
BRANCH   7   9
ATOM      9  C   UNL     1      -7.620  -1.677 126.260  0.00  0.00    +0.000 A 
ATOM     10  C   UNL     1      -6.546  -1.722 125.358  0.00  0.00    +0.000 A 
ATOM     11  C   UNL     1      -6.539  -2.714 124.376  0.00  0.00    +0.000 A 
ATOM     12  C   UNL     1      -7.510  -3.728 124.376  0.00  0.00    +0.000 A 
ATOM     13  C   UNL     1      -8.532  -3.715 125.324  0.00  0.00    +0.000 A 
ATOM     14  C   UNL     1      -8.594  -2.690 126.254  0.00  0.00    +0.000 A 
BRANCH  11  15
ATOM     15  N   UNL     1      -5.635  -2.586 123.225  0.00  0.00    +0.000 N 
ATOM     16  O   UNL     1      -6.038  -1.951 122.239  0.00  0.00    +0.000 OA
ATOM     17  O   UNL     1      -4.553  -3.188 123.277  0.00  0.00    +0.000 OA
ENDBRANCH  11  15
ENDBRANCH   7   9
BRANCH   1  18
ATOM     18  C   UNL     1      -9.242   0.498 125.219  0.00  0.00    +0.000 C 
ATOM     19  O   UNL     1     -10.424   0.302 125.485  0.00  0.00    +0.000 OA
BRANCH  18  21
ATOM     20  C   UNL     1      -9.290  -0.504 123.074  0.00  0.00    +0.000 C 
ATOM     21  O   UNL     1      -8.700   0.451 123.975  0.00  0.00    +0.000 OA
ENDBRANCH  18  21
ENDBRANCH   1  18
BRANCH   6  22
ATOM     22  C   UNL     1      -5.792  -1.336 128.650  0.00  0.00    +0.000 C 
ATOM     23  O   UNL     1      -4.787  -1.827 128.148  0.00  0.00    +0.000 OA
BRANCH  22  24
ATOM     24  O   UNL     1      -6.306  -1.793 129.824  0.00  0.00    +0.000 OA
BRANCH  24  25
ATOM     25  C   UNL     1      -6.627  -3.210 129.839  0.00  0.00    +0.000 C 
ATOM     26  C   UNL     1      -6.247  -3.813 131.187  0.00  0.00    +0.000 C 
ATOM     27  C   UNL     1      -8.128  -3.398 129.645  0.00  0.00    +0.000 C 
ENDBRANCH  24  25
ENDBRANCH  22  24
ENDBRANCH   6  22
BRANCH   2  28
ATOM     28  C   UNL     1      -8.033   3.087 125.580  0.00  0.00    +0.000 C 
ATOM     29  N   UNL     1      -8.364   4.041 124.826  0.00  0.00    +0.000 NA
ENDBRANCH   2  28
TORSDOF 8
ENDMDL
MODEL 3
REMARK VINA RESULT:      -7.0      1.645      5.155
REMARK  Name = Nilvadipine
REMARK  12 active torsions:
REMARK  status: ('A' for Active; 'I' for Inactive)
REMARK    1  A    between atoms: C_1  and  O_2
REMARK    2  A    between atoms: O_2  and  C_3
REMARK    3  A    between atoms: C_3  and  C_5
REMARK    4  A    between atoms: C_6  and  C_27
REMARK    5  A    between atoms: C_8  and  C_9
REMARK    6  A    between atoms: C_10  and  C_21
REMARK    7  A    between atoms: C_11  and  C_12
REMARK    8  A    between atoms: C_14  and  N_18
REMARK    9  A    between atoms: C_21  and  O_23
REMARK   10  A    between atoms: O_23  and  C_24
REMARK   11  A    between atoms: C_24  and  C_25
REMARK   12  A    between atoms: C_24  and  C_26
REMARK                            x       y       z     vdW  Elec       q    Type
REMARK                         _______ _______ _______ _____ _____    ______ ____
ROOT
ATOM      1  C   UNL     1      -7.637   0.146 124.511  0.00  0.00    +0.000 C 
ATOM      2  C   UNL     1      -8.232  -0.207 125.671  0.00  0.00    +0.000 C 
ATOM      3  N   UNL     1      -8.181   0.590 126.787  0.00  0.00    +0.000 N 
ATOM      4  C   UNL     1      -7.739   1.908 126.742  0.00  0.00    +0.000 C 
ATOM      5  C   UNL     1      -8.073   2.753 127.949  0.00  0.00    +0.000 C 
ATOM      6  C   UNL     1      -7.107   2.398 125.636  0.00  0.00    +0.000 C 
ATOM      7  C   UNL     1      -6.864   1.463 124.424  0.00  0.00    +0.000 C 
ATOM      8  H   UNL     1      -8.511   0.213 127.672  0.00  0.00    +0.000 HD
ENDROOT
BRANCH   7   9
ATOM      9  C   UNL     1      -7.227   2.168 123.128  0.00  0.00    +0.000 A 
ATOM     10  C   UNL     1      -6.228   2.781 122.356  0.00  0.00    +0.000 A 
ATOM     11  C   UNL     1      -6.613   3.643 121.329  0.00  0.00    +0.000 A 
ATOM     12  C   UNL     1      -7.966   3.786 120.984  0.00  0.00    +0.000 A 
ATOM     13  C   UNL     1      -8.946   3.114 121.711  0.00  0.00    +0.000 A 
ATOM     14  C   UNL     1      -8.580   2.318 122.785  0.00  0.00    +0.000 A 
BRANCH  11  15
ATOM     15  N   UNL     1      -5.621   4.553 120.738  0.00  0.00    +0.000 N 
ATOM     16  O   UNL     1      -4.772   5.053 121.491  0.00  0.00    +0.000 OA
ATOM     17  O   UNL     1      -5.740   4.828 119.536  0.00  0.00    +0.000 OA
ENDBRANCH  11  15
ENDBRANCH   7   9
BRANCH   1  18
ATOM     18  C   UNL     1      -7.681  -0.699 123.278  0.00  0.00    +0.000 C 
ATOM     19  O   UNL     1      -8.735  -1.034 122.747  0.00  0.00    +0.000 OA
BRANCH  18  21
ATOM     20  C   UNL     1      -5.933  -2.274 123.538  0.00  0.00    +0.000 C 
ATOM     21  O   UNL     1      -6.444  -1.098 122.885  0.00  0.00    +0.000 OA
ENDBRANCH  18  21
ENDBRANCH   1  18
BRANCH   6  22
ATOM     22  C   UNL     1      -6.753   3.864 125.592  0.00  0.00    +0.000 C 
ATOM     23  O   UNL     1      -7.598   4.753 125.559  0.00  0.00    +0.000 OA
BRANCH  22  24
ATOM     24  O   UNL     1      -5.421   4.139 125.569  0.00  0.00    +0.000 OA
BRANCH  24  25
ATOM     25  C   UNL     1      -4.730   3.921 126.828  0.00  0.00    +0.000 C 
ATOM     26  C   UNL     1      -3.539   2.994 126.613  0.00  0.00    +0.000 C 
ATOM     27  C   UNL     1      -4.204   5.249 127.361  0.00  0.00    +0.000 C 
ENDBRANCH  24  25
ENDBRANCH  22  24
ENDBRANCH   6  22
BRANCH   2  28
ATOM     28  C   UNL     1      -9.012  -1.511 125.699  0.00  0.00    +0.000 C 
ATOM     29  N   UNL     1      -9.660  -2.592 125.724  0.00  0.00    +0.000 NA
ENDBRANCH   2  28
TORSDOF 8
ENDMDL
MODEL 4
REMARK VINA RESULT:      -6.7      3.287      4.197
REMARK  Name = Nilvadipine
REMARK  12 active torsions:
REMARK  status: ('A' for Active; 'I' for Inactive)
REMARK    1  A    between atoms: C_1  and  O_2
REMARK    2  A    between atoms: O_2  and  C_3
REMARK    3  A    between atoms: C_3  and  C_5
REMARK    4  A    between atoms: C_6  and  C_27
REMARK    5  A    between atoms: C_8  and  C_9
REMARK    6  A    between atoms: C_10  and  C_21
REMARK    7  A    between atoms: C_11  and  C_12
REMARK    8  A    between atoms: C_14  and  N_18
REMARK    9  A    between atoms: C_21  and  O_23
REMARK   10  A    between atoms: O_23  and  C_24
REMARK   11  A    between atoms: C_24  and  C_25
REMARK   12  A    between atoms: C_24  and  C_26
REMARK                            x       y       z     vdW  Elec       q    Type
REMARK                         _______ _______ _______ _____ _____    ______ ____
ROOT
ATOM      1  C   UNL     1      -7.317   1.004 128.355  0.00  0.00    +0.000 C 
ATOM      2  C   UNL     1      -6.353   0.755 129.266  0.00  0.00    +0.000 C 
ATOM      3  N   UNL     1      -5.731  -0.466 129.351  0.00  0.00    +0.000 N 
ATOM      4  C   UNL     1      -5.863  -1.439 128.366  0.00  0.00    +0.000 C 
ATOM      5  C   UNL     1      -4.855  -2.564 128.418  0.00  0.00    +0.000 C 
ATOM      6  C   UNL     1      -6.807  -1.324 127.389  0.00  0.00    +0.000 C 
ATOM      7  C   UNL     1      -7.756  -0.098 127.391  0.00  0.00    +0.000 C 
ATOM      8  H   UNL     1      -5.124  -0.651 130.147  0.00  0.00    +0.000 HD
ENDROOT
BRANCH   7   9
ATOM      9  C   UNL     1      -7.877   0.483 125.992  0.00  0.00    +0.000 A 
ATOM     10  C   UNL     1      -9.008   0.205 125.209  0.00  0.00    +0.000 A 
ATOM     11  C   UNL     1      -8.972   0.519 123.850  0.00  0.00    +0.000 A 
ATOM     12  C   UNL     1      -7.887   1.223 123.306  0.00  0.00    +0.000 A 
ATOM     13  C   UNL     1      -6.800   1.560 124.111  0.00  0.00    +0.000 A 
ATOM     14  C   UNL     1      -6.789   1.182 125.444  0.00  0.00    +0.000 A 
BRANCH  11  15
ATOM     15  N   UNL     1      -9.977  -0.061 122.947  0.00  0.00    +0.000 N 
ATOM     16  O   UNL     1     -10.882   0.681 122.535  0.00  0.00    +0.000 OA
ATOM     17  O   UNL     1      -9.907  -1.276 122.716  0.00  0.00    +0.000 OA
ENDBRANCH  11  15
ENDBRANCH   7   9
BRANCH   1  18
ATOM     18  C   UNL     1      -8.008   2.326 128.236  0.00  0.00    +0.000 C 
ATOM     19  O   UNL     1      -7.458   3.316 127.763  0.00  0.00    +0.000 OA
BRANCH  18  21
ATOM     20  C   UNL     1      -9.439   3.116 129.949  0.00  0.00    +0.000 C 
ATOM     21  O   UNL     1      -9.254   2.304 128.775  0.00  0.00    +0.000 OA
ENDBRANCH  18  21
ENDBRANCH   1  18
BRANCH   6  22
ATOM     22  C   UNL     1      -6.831  -2.345 126.277  0.00  0.00    +0.000 C 
ATOM     23  O   UNL     1      -7.701  -3.204 126.179  0.00  0.00    +0.000 OA
BRANCH  22  24
ATOM     24  O   UNL     1      -5.801  -2.261 125.393  0.00  0.00    +0.000 OA
BRANCH  24  25
ATOM     25  C   UNL     1      -5.986  -3.015 124.165  0.00  0.00    +0.000 C 
ATOM     26  C   UNL     1      -6.234  -2.061 123.003  0.00  0.00    +0.000 C 
ATOM     27  C   UNL     1      -4.725  -3.816 123.858  0.00  0.00    +0.000 C 
ENDBRANCH  24  25
ENDBRANCH  22  24
ENDBRANCH   6  22
BRANCH   2  28
ATOM     28  C   UNL     1      -5.931   1.891 130.183  0.00  0.00    +0.000 C 
ATOM     29  N   UNL     1      -5.583   2.833 130.944  0.00  0.00    +0.000 NA
ENDBRANCH   2  28
TORSDOF 8
ENDMDL
MODEL 5
REMARK VINA RESULT:      -6.7      3.464      6.204
REMARK  Name = Nilvadipine
REMARK  12 active torsions:
REMARK  status: ('A' for Active; 'I' for Inactive)
REMARK    1  A    between atoms: C_1  and  O_2
REMARK    2  A    between atoms: O_2  and  C_3
REMARK    3  A    between atoms: C_3  and  C_5
REMARK    4  A    between atoms: C_6  and  C_27
REMARK    5  A    between atoms: C_8  and  C_9
REMARK    6  A    between atoms: C_10  and  C_21
REMARK    7  A    between atoms: C_11  and  C_12
REMARK    8  A    between atoms: C_14  and  N_18
REMARK    9  A    between atoms: C_21  and  O_23
REMARK   10  A    between atoms: O_23  and  C_24
REMARK   11  A    between atoms: C_24  and  C_25
REMARK   12  A    between atoms: C_24  and  C_26
REMARK                            x       y       z     vdW  Elec       q    Type
REMARK                         _______ _______ _______ _____ _____    ______ ____
ROOT
ATOM      1  C   UNL     1      -7.264  -1.889 125.388  0.00  0.00    +0.000 C 
ATOM      2  C   UNL     1      -8.284  -2.763 125.520  0.00  0.00    +0.000 C 
ATOM      3  N   UNL     1      -8.550  -3.397 126.708  0.00  0.00    +0.000 N 
ATOM      4  C   UNL     1      -7.962  -3.008 127.907  0.00  0.00    +0.000 C 
ATOM      5  C   UNL     1      -8.610  -3.549 129.161  0.00  0.00    +0.000 C 
ATOM      6  C   UNL     1      -6.911  -2.139 127.923  0.00  0.00    +0.000 C 
ATOM      7  C   UNL     1      -6.357  -1.594 126.582  0.00  0.00    +0.000 C 
ATOM      8  H   UNL     1      -9.228  -4.156 126.717  0.00  0.00    +0.000 HD
ENDROOT
BRANCH   7   9
ATOM      9  C   UNL     1      -6.125  -0.095 126.673  0.00  0.00    +0.000 A 
ATOM     10  C   UNL     1      -7.183   0.763 127.009  0.00  0.00    +0.000 A 
ATOM     11  C   UNL     1      -7.016   2.136 126.821  0.00  0.00    +0.000 A 
ATOM     12  C   UNL     1      -5.771   2.659 126.437  0.00  0.00    +0.000 A 
ATOM     13  C   UNL     1      -4.704   1.801 126.178  0.00  0.00    +0.000 A 
ATOM     14  C   UNL     1      -4.882   0.431 126.283  0.00  0.00    +0.000 A 
BRANCH  11  15
ATOM     15  N   UNL     1      -8.193   3.016 126.831  0.00  0.00    +0.000 N 
ATOM     16  O   UNL     1      -8.672   3.355 125.738  0.00  0.00    +0.000 OA
ATOM     17  O   UNL     1      -8.588   3.431 127.929  0.00  0.00    +0.000 OA
ENDBRANCH  11  15
ENDBRANCH   7   9
BRANCH   1  18
ATOM     18  C   UNL     1      -6.955  -1.180 124.107  0.00  0.00    +0.000 C 
ATOM     19  O   UNL     1      -6.013  -1.500 123.389  0.00  0.00    +0.000 OA
BRANCH  18  21
ATOM     20  C   UNL     1      -7.169   1.029 123.282  0.00  0.00    +0.000 C 
ATOM     21  O   UNL     1      -7.779  -0.122 123.895  0.00  0.00    +0.000 OA
ENDBRANCH  18  21
ENDBRANCH   1  18
BRANCH   6  22
ATOM     22  C   UNL     1      -6.387  -1.657 129.254  0.00  0.00    +0.000 C 
ATOM     23  O   UNL     1      -7.065  -1.003 130.040  0.00  0.00    +0.000 OA
BRANCH  22  24
ATOM     24  O   UNL     1      -5.093  -1.981 129.518  0.00  0.00    +0.000 OA
BRANCH  24  25
ATOM     25  C   UNL     1      -4.785  -3.398 129.419  0.00  0.00    +0.000 C 
ATOM     26  C   UNL     1      -3.281  -3.591 129.258  0.00  0.00    +0.000 C 
ATOM     27  C   UNL     1      -5.218  -4.108 130.697  0.00  0.00    +0.000 C 
ENDBRANCH  24  25
ENDBRANCH  22  24
ENDBRANCH   6  22
BRANCH   2  28
ATOM     28  C   UNL     1      -9.175  -3.002 124.313  0.00  0.00    +0.000 C 
ATOM     29  N   UNL     1      -9.915  -3.201 123.311  0.00  0.00    +0.000 NA
ENDBRANCH   2  28
TORSDOF 8
ENDMDL
MODEL 6
REMARK VINA RESULT:      -6.6      3.895      6.506
REMARK  Name = Nilvadipine
REMARK  12 active torsions:
REMARK  status: ('A' for Active; 'I' for Inactive)
REMARK    1  A    between atoms: C_1  and  O_2
REMARK    2  A    between atoms: O_2  and  C_3
REMARK    3  A    between atoms: C_3  and  C_5
REMARK    4  A    between atoms: C_6  and  C_27
REMARK    5  A    between atoms: C_8  and  C_9
REMARK    6  A    between atoms: C_10  and  C_21
REMARK    7  A    between atoms: C_11  and  C_12
REMARK    8  A    between atoms: C_14  and  N_18
REMARK    9  A    between atoms: C_21  and  O_23
REMARK   10  A    between atoms: O_23  and  C_24
REMARK   11  A    between atoms: C_24  and  C_25
REMARK   12  A    between atoms: C_24  and  C_26
REMARK                            x       y       z     vdW  Elec       q    Type
REMARK                         _______ _______ _______ _____ _____    ______ ____
ROOT
ATOM      1  C   UNL     1      -6.637  -1.754 129.266  0.00  0.00    +0.000 C 
ATOM      2  C   UNL     1      -7.273  -1.088 130.253  0.00  0.00    +0.000 C 
ATOM      3  N   UNL     1      -7.764   0.181 130.076  0.00  0.00    +0.000 N 
ATOM      4  C   UNL     1      -7.868   0.770 128.821  0.00  0.00    +0.000 C 
ATOM      5  C   UNL     1      -8.743   2.000 128.744  0.00  0.00    +0.000 C 
ATOM      6  C   UNL     1      -7.263   0.213 127.732  0.00  0.00    +0.000 C 
ATOM      7  C   UNL     1      -6.434  -1.085 127.907  0.00  0.00    +0.000 C 
ATOM      8  H   UNL     1      -8.096   0.695 130.889  0.00  0.00    +0.000 HD
ENDROOT
BRANCH   7   9
ATOM      9  C   UNL     1      -6.768  -2.080 126.807  0.00  0.00    +0.000 A 
ATOM     10  C   UNL     1      -5.853  -2.316 125.769  0.00  0.00    +0.000 A 
ATOM     11  C   UNL     1      -6.288  -3.016 124.643  0.00  0.00    +0.000 A 
ATOM     12  C   UNL     1      -7.567  -3.593 124.608  0.00  0.00    +0.000 A 
ATOM     13  C   UNL     1      -8.442  -3.415 125.678  0.00  0.00    +0.000 A 
ATOM     14  C   UNL     1      -8.050  -2.653 126.767  0.00  0.00    +0.000 A 
BRANCH  11  15
ATOM     15  N   UNL     1      -5.482  -2.982 123.415  0.00  0.00    +0.000 N 
ATOM     16  O   UNL     1      -5.863  -2.247 122.491  0.00  0.00    +0.000 OA
ATOM     17  O   UNL     1      -4.512  -3.750 123.344  0.00  0.00    +0.000 OA
ENDBRANCH  11  15
ENDBRANCH   7   9
BRANCH   1  18
ATOM     18  C   UNL     1      -6.097  -3.140 129.429  0.00  0.00    +0.000 C 
ATOM     19  O   UNL     1      -6.822  -4.111 129.622  0.00  0.00    +0.000 OA
BRANCH  18  21
ATOM     20  C   UNL     1      -4.110  -3.495 130.667  0.00  0.00    +0.000 C 
ATOM     21  O   UNL     1      -4.739  -3.166 129.415  0.00  0.00    +0.000 OA
ENDBRANCH  18  21
ENDBRANCH   1  18
BRANCH   6  22
ATOM     22  C   UNL     1      -7.504   0.825 126.374  0.00  0.00    +0.000 C 
ATOM     23  O   UNL     1      -6.709   1.589 125.836  0.00  0.00    +0.000 OA
BRANCH  22  24
ATOM     24  O   UNL     1      -8.684   0.487 125.788  0.00  0.00    +0.000 OA
BRANCH  24  25
ATOM     25  C   UNL     1      -8.812   0.886 124.396  0.00  0.00    +0.000 C 
ATOM     26  C   UNL     1      -8.702  -0.338 123.494  0.00  0.00    +0.000 C 
ATOM     27  C   UNL     1     -10.180   1.519 124.168  0.00  0.00    +0.000 C 
ENDBRANCH  24  25
ENDBRANCH  22  24
ENDBRANCH   6  22
BRANCH   2  28
ATOM     28  C   UNL     1      -7.475  -1.806 131.578  0.00  0.00    +0.000 C 
ATOM     29  N   UNL     1      -7.642  -2.402 132.676  0.00  0.00    +0.000 NA
ENDBRANCH   2  28
TORSDOF 8
ENDMDL
MODEL 7
REMARK VINA RESULT:      -6.5      2.706      5.944
REMARK  Name = Nilvadipine
REMARK  12 active torsions:
REMARK  status: ('A' for Active; 'I' for Inactive)
REMARK    1  A    between atoms: C_1  and  O_2
REMARK    2  A    between atoms: O_2  and  C_3
REMARK    3  A    between atoms: C_3  and  C_5
REMARK    4  A    between atoms: C_6  and  C_27
REMARK    5  A    between atoms: C_8  and  C_9
REMARK    6  A    between atoms: C_10  and  C_21
REMARK    7  A    between atoms: C_11  and  C_12
REMARK    8  A    between atoms: C_14  and  N_18
REMARK    9  A    between atoms: C_21  and  O_23
REMARK   10  A    between atoms: O_23  and  C_24
REMARK   11  A    between atoms: C_24  and  C_25
REMARK   12  A    between atoms: C_24  and  C_26
REMARK                            x       y       z     vdW  Elec       q    Type
REMARK                         _______ _______ _______ _____ _____    ______ ____
ROOT
ATOM      1  C   UNL     1      -8.569   2.014 123.947  0.00  0.00    +0.000 C 
ATOM      2  C   UNL     1      -8.035   3.049 123.263  0.00  0.00    +0.000 C 
ATOM      3  N   UNL     1      -7.011   3.806 123.774  0.00  0.00    +0.000 N 
ATOM      4  C   UNL     1      -6.289   3.422 124.899  0.00  0.00    +0.000 C 
ATOM      5  C   UNL     1      -4.987   4.155 125.125  0.00  0.00    +0.000 C 
ATOM      6  C   UNL     1      -6.719   2.399 125.692  0.00  0.00    +0.000 C 
ATOM      7  C   UNL     1      -8.041   1.671 125.340  0.00  0.00    +0.000 C 
ATOM      8  H   UNL     1      -6.748   4.663 123.291  0.00  0.00    +0.000 HD
ENDROOT
BRANCH   7   9
ATOM      9  C   UNL     1      -7.864   0.165 125.447  0.00  0.00    +0.000 A 
ATOM     10  C   UNL     1      -6.865  -0.481 124.702  0.00  0.00    +0.000 A 
ATOM     11  C   UNL     1      -6.898  -1.873 124.608  0.00  0.00    +0.000 A 
ATOM     12  C   UNL     1      -7.824  -2.620 125.354  0.00  0.00    +0.000 A 
ATOM     13  C   UNL     1      -8.765  -1.969 126.150  0.00  0.00    +0.000 A 
ATOM     14  C   UNL     1      -8.793  -0.584 126.187  0.00  0.00    +0.000 A 
BRANCH  11  15
ATOM     15  N   UNL     1      -6.096  -2.548 123.578  0.00  0.00    +0.000 N 
ATOM     16  O   UNL     1      -6.092  -2.063 122.436  0.00  0.00    +0.000 OA
ATOM     17  O   UNL     1      -5.533  -3.606 123.891  0.00  0.00    +0.000 OA
ENDBRANCH  11  15
ENDBRANCH   7   9
BRANCH   1  18
ATOM     18  C   UNL     1      -9.681   1.168 123.413  0.00  0.00    +0.000 C 
ATOM     19  O   UNL     1     -10.826   1.234 123.850  0.00  0.00    +0.000 OA
BRANCH  18  21
ATOM     20  C   UNL     1      -9.816  -1.030 122.544  0.00  0.00    +0.000 C 
ATOM     21  O   UNL     1      -9.252   0.292 122.469  0.00  0.00    +0.000 OA
ENDBRANCH  18  21
ENDBRANCH   1  18
BRANCH   6  22
ATOM     22  C   UNL     1      -5.840   1.943 126.831  0.00  0.00    +0.000 C 
ATOM     23  O   UNL     1      -4.841   1.251 126.666  0.00  0.00    +0.000 OA
BRANCH  22  24
ATOM     24  O   UNL     1      -6.245   2.338 128.068  0.00  0.00    +0.000 OA
BRANCH  24  25
ATOM     25  C   UNL     1      -6.652   1.259 128.952  0.00  0.00    +0.000 C 
ATOM     26  C   UNL     1      -5.945   1.395 130.296  0.00  0.00    +0.000 C 
ATOM     27  C   UNL     1      -8.154   1.337 129.199  0.00  0.00    +0.000 C 
ENDBRANCH  24  25
ENDBRANCH  22  24
ENDBRANCH   6  22
BRANCH   2  28
ATOM     28  C   UNL     1      -8.574   3.334 121.871  0.00  0.00    +0.000 C 
ATOM     29  N   UNL     1      -9.021   3.570 120.717  0.00  0.00    +0.000 NA
ENDBRANCH   2  28
TORSDOF 8
ENDMDL
MODEL 8
REMARK VINA RESULT:      -6.5      7.143      9.344
REMARK  Name = Nilvadipine
REMARK  12 active torsions:
REMARK  status: ('A' for Active; 'I' for Inactive)
REMARK    1  A    between atoms: C_1  and  O_2
REMARK    2  A    between atoms: O_2  and  C_3
REMARK    3  A    between atoms: C_3  and  C_5
REMARK    4  A    between atoms: C_6  and  C_27
REMARK    5  A    between atoms: C_8  and  C_9
REMARK    6  A    between atoms: C_10  and  C_21
REMARK    7  A    between atoms: C_11  and  C_12
REMARK    8  A    between atoms: C_14  and  N_18
REMARK    9  A    between atoms: C_21  and  O_23
REMARK   10  A    between atoms: O_23  and  C_24
REMARK   11  A    between atoms: C_24  and  C_25
REMARK   12  A    between atoms: C_24  and  C_26
REMARK                            x       y       z     vdW  Elec       q    Type
REMARK                         _______ _______ _______ _____ _____    ______ ____
ROOT
ATOM      1  C   UNL     1      -8.731   5.463 131.375  0.00  0.00    +0.000 C 
ATOM      2  C   UNL     1      -9.579   5.708 132.398  0.00  0.00    +0.000 C 
ATOM      3  N   UNL     1      -9.216   5.513 133.706  0.00  0.00    +0.000 N 
ATOM      4  C   UNL     1      -7.896   5.294 134.088  0.00  0.00    +0.000 C 
ATOM      5  C   UNL     1      -7.606   5.454 135.563  0.00  0.00    +0.000 C 
ATOM      6  C   UNL     1      -6.934   5.021 133.161  0.00  0.00    +0.000 C 
ATOM      7  C   UNL     1      -7.326   4.936 131.664  0.00  0.00    +0.000 C 
ATOM      8  H   UNL     1      -9.934   5.564 134.426  0.00  0.00    +0.000 HD
ENDROOT
BRANCH   7   9
ATOM      9  C   UNL     1      -6.325   5.696 130.809  0.00  0.00    +0.000 A 
ATOM     10  C   UNL     1      -5.528   5.010 129.880  0.00  0.00    +0.000 A 
ATOM     11  C   UNL     1      -4.442   5.676 129.311  0.00  0.00    +0.000 A 
ATOM     12  C   UNL     1      -4.233   7.043 129.554  0.00  0.00    +0.000 A 
ATOM     13  C   UNL     1      -5.076   7.733 130.422  0.00  0.00    +0.000 A 
ATOM     14  C   UNL     1      -6.110   7.062 131.055  0.00  0.00    +0.000 A 
BRANCH  11  15
ATOM     15  N   UNL     1      -3.403   4.903 128.615  0.00  0.00    +0.000 N 
ATOM     16  O   UNL     1      -3.307   3.694 128.877  0.00  0.00    +0.000 OA
ATOM     17  O   UNL     1      -2.632   5.522 127.868  0.00  0.00    +0.000 OA
ENDBRANCH  11  15
ENDBRANCH   7   9
BRANCH   1  18
ATOM     18  C   UNL     1      -9.098   5.672 129.940  0.00  0.00    +0.000 C 
ATOM     19  O   UNL     1      -9.251   4.740 129.158  0.00  0.00    +0.000 OA
BRANCH  18  21
ATOM     20  C   UNL     1     -10.236   7.364 128.736  0.00  0.00    +0.000 C 
ATOM     21  O   UNL     1      -9.158   6.989 129.612  0.00  0.00    +0.000 OA
ENDBRANCH  18  21
ENDBRANCH   1  18
BRANCH   6  22
ATOM     22  C   UNL     1      -5.499   4.910 133.614  0.00  0.00    +0.000 C 
ATOM     23  O   UNL     1      -4.822   5.883 133.930  0.00  0.00    +0.000 OA
BRANCH  22  24
ATOM     24  O   UNL     1      -4.993   3.647 133.631  0.00  0.00    +0.000 OA
BRANCH  24  25
ATOM     25  C   UNL     1      -4.047   3.353 132.568  0.00  0.00    +0.000 C 
ATOM     26  C   UNL     1      -2.645   3.204 133.148  0.00  0.00    +0.000 C 
ATOM     27  C   UNL     1      -4.422   2.037 131.896  0.00  0.00    +0.000 C 
ENDBRANCH  24  25
ENDBRANCH  22  24
ENDBRANCH   6  22
BRANCH   2  28
ATOM     28  C   UNL     1     -10.956   6.257 132.062  0.00  0.00    +0.000 C 
ATOM     29  N   UNL     1     -12.098   6.713 131.784  0.00  0.00    +0.000 NA
ENDBRANCH   2  28
TORSDOF 8
ENDMDL
MODEL 9
REMARK VINA RESULT:      -6.5      4.366      7.893
REMARK  Name = Nilvadipine
REMARK  12 active torsions:
REMARK  status: ('A' for Active; 'I' for Inactive)
REMARK    1  A    between atoms: C_1  and  O_2
REMARK    2  A    between atoms: O_2  and  C_3
REMARK    3  A    between atoms: C_3  and  C_5
REMARK    4  A    between atoms: C_6  and  C_27
REMARK    5  A    between atoms: C_8  and  C_9
REMARK    6  A    between atoms: C_10  and  C_21
REMARK    7  A    between atoms: C_11  and  C_12
REMARK    8  A    between atoms: C_14  and  N_18
REMARK    9  A    between atoms: C_21  and  O_23
REMARK   10  A    between atoms: O_23  and  C_24
REMARK   11  A    between atoms: C_24  and  C_25
REMARK   12  A    between atoms: C_24  and  C_26
REMARK                            x       y       z     vdW  Elec       q    Type
REMARK                         _______ _______ _______ _____ _____    ______ ____
ROOT
ATOM      1  C   UNL     1      -6.682   5.289 130.831  0.00  0.00    +0.000 C 
ATOM      2  C   UNL     1      -6.882   5.702 132.101  0.00  0.00    +0.000 C 
ATOM      3  N   UNL     1      -8.104   6.146 132.538  0.00  0.00    +0.000 N 
ATOM      4  C   UNL     1      -9.268   5.972 131.797  0.00  0.00    +0.000 C 
ATOM      5  C   UNL     1     -10.562   6.181 132.549  0.00  0.00    +0.000 C 
ATOM      6  C   UNL     1      -9.216   5.570 130.494  0.00  0.00    +0.000 C 
ATOM      7  C   UNL     1      -7.838   5.324 129.831  0.00  0.00    +0.000 C 
ATOM      8  H   UNL     1      -8.166   6.587 133.453  0.00  0.00    +0.000 HD
ENDROOT
BRANCH   7   9
ATOM      9  C   UNL     1      -7.852   4.026 129.041  0.00  0.00    +0.000 A 
ATOM     10  C   UNL     1      -7.720   4.049 127.644  0.00  0.00    +0.000 A 
ATOM     11  C   UNL     1      -8.006   2.886 126.927  0.00  0.00    +0.000 A 
ATOM     12  C   UNL     1      -8.283   1.683 127.595  0.00  0.00    +0.000 A 
ATOM     13  C   UNL     1      -8.338   1.655 128.988  0.00  0.00    +0.000 A 
ATOM     14  C   UNL     1      -8.135   2.822 129.707  0.00  0.00    +0.000 A 
BRANCH  11  15
ATOM     15  N   UNL     1      -8.213   2.965 125.474  0.00  0.00    +0.000 N 
ATOM     16  O   UNL     1      -7.770   2.042 124.775  0.00  0.00    +0.000 OA
ATOM     17  O   UNL     1      -8.749   3.988 125.027  0.00  0.00    +0.000 OA
ENDBRANCH  11  15
ENDBRANCH   7   9
BRANCH   1  18
ATOM     18  C   UNL     1      -5.362   4.796 130.328  0.00  0.00    +0.000 C 
ATOM     19  O   UNL     1      -4.913   3.695 130.630  0.00  0.00    +0.000 OA
BRANCH  18  21
ATOM     20  C   UNL     1      -4.226   5.280 128.308  0.00  0.00    +0.000 C 
ATOM     21  O   UNL     1      -4.715   5.730 129.585  0.00  0.00    +0.000 OA
ENDBRANCH  18  21
ENDBRANCH   1  18
BRANCH   6  22
ATOM     22  C   UNL     1     -10.509   5.281 129.771  0.00  0.00    +0.000 C 
ATOM     23  O   UNL     1     -11.226   4.323 130.043  0.00  0.00    +0.000 OA
BRANCH  22  24
ATOM     24  O   UNL     1     -10.821   6.151 128.773  0.00  0.00    +0.000 OA
BRANCH  24  25
ATOM     25  C   UNL     1     -10.871   7.547 129.172  0.00  0.00    +0.000 C 
ATOM     26  C   UNL     1     -10.597   8.440 127.967  0.00  0.00    +0.000 C 
ATOM     27  C   UNL     1     -12.262   7.880 129.700  0.00  0.00    +0.000 C 
ENDBRANCH  24  25
ENDBRANCH  22  24
ENDBRANCH   6  22
BRANCH   2  28
ATOM     28  C   UNL     1      -5.710   5.623 133.065  0.00  0.00    +0.000 C 
ATOM     29  N   UNL     1      -4.738   5.557 133.866  0.00  0.00    +0.000 NA
ENDBRANCH   2  28
TORSDOF 8
ENDMDL
