MODEL 1
REMARK VINA RESULT:      -6.8      0.000      0.000
REMARK  Name = Nimesulide
REMARK  6 active torsions:
REMARK  status: ('A' for Active; 'I' for Inactive)
REMARK    1  A    between atoms: C_1  and  S_2
REMARK    2  A    between atoms: S_2  and  N_5
REMARK    3  A    between atoms: N_5  and  C_6
REMARK    4  A    between atoms: C_7  and  O_8
REMARK    5  A    between atoms: O_8  and  C_9
REMARK    6  A    between atoms: C_16  and  N_19
REMARK                            x       y       z     vdW  Elec       q    Type
REMARK                         _______ _______ _______ _____ _____    ______ ____
ROOT
ATOM      1  C   UNL     1      -6.004   3.876 122.923  0.00  0.00    +0.000 A 
ATOM      2  C   UNL     1      -7.274   3.536 122.395  0.00  0.00    +0.000 A 
ATOM      3  C   UNL     1      -7.525   3.709 121.008  0.00  0.00    +0.000 A 
ATOM      4  C   UNL     1      -6.565   4.323 120.187  0.00  0.00    +0.000 A 
ATOM      5  C   UNL     1      -5.332   4.695 120.718  0.00  0.00    +0.000 A 
ATOM      6  C   UNL     1      -5.064   4.464 122.069  0.00  0.00    +0.000 A 
ENDROOT
BRANCH   4   7
ATOM      7  N   UNL     1      -6.856   4.636 118.777  0.00  0.00    +0.000 N 
ATOM      8  O   UNL     1      -7.902   4.188 118.288  0.00  0.00    +0.000 OA
ATOM      9  O   UNL     1      -6.045   5.349 118.167  0.00  0.00    +0.000 OA
ENDBRANCH   4   7
BRANCH   1  10
ATOM     10  N   UNL     1      -5.555   3.519 124.250  0.00  0.00    +0.000 N 
ATOM     11  H   UNL     1      -5.368   2.531 124.415  0.00  0.00    +0.000 HD
BRANCH  10  13
ATOM     12  C   UNL     1      -4.621   4.489 126.634  0.00  0.00    +0.000 C 
ATOM     13  S   UNL     1      -6.061   4.446 125.576  0.00  0.00    +0.000 S 
ATOM     14  O   UNL     1      -7.116   3.759 126.280  0.00  0.00    +0.000 OA
ATOM     15  O   UNL     1      -6.270   5.803 125.098  0.00  0.00    +0.000 OA
ENDBRANCH  10  13
ENDBRANCH   1  10
BRANCH   2  16
ATOM     16  O   UNL     1      -8.352   3.004 123.088  0.00  0.00    +0.000 OA
BRANCH  16  17
ATOM     17  C   UNL     1      -8.589   1.650 123.097  0.00  0.00    +0.000 A 
ATOM     18  C   UNL     1      -9.838   1.232 122.639  0.00  0.00    +0.000 A 
ATOM     19  C   UNL     1     -10.134  -0.132 122.547  0.00  0.00    +0.000 A 
ATOM     20  C   UNL     1      -9.159  -1.081 122.840  0.00  0.00    +0.000 A 
ATOM     21  C   UNL     1      -7.925  -0.668 123.334  0.00  0.00    +0.000 A 
ATOM     22  C   UNL     1      -7.662   0.696 123.517  0.00  0.00    +0.000 A 
ENDBRANCH  16  17
ENDBRANCH   2  16
TORSDOF 5
ENDMDL
MODEL 2
REMARK VINA RESULT:      -6.8      5.054      7.058
REMARK  Name = Nimesulide
REMARK  6 active torsions:
REMARK  status: ('A' for Active; 'I' for Inactive)
REMARK    1  A    between atoms: C_1  and  S_2
REMARK    2  A    between atoms: S_2  and  N_5
REMARK    3  A    between atoms: N_5  and  C_6
REMARK    4  A    between atoms: C_7  and  O_8
REMARK    5  A    between atoms: O_8  and  C_9
REMARK    6  A    between atoms: C_16  and  N_19
REMARK                            x       y       z     vdW  Elec       q    Type
REMARK                         _______ _______ _______ _____ _____    ______ ____
ROOT
ATOM      1  C   UNL     1      -6.800  -0.893 123.790  0.00  0.00    +0.000 A 
ATOM      2  C   UNL     1      -6.402  -1.540 124.985  0.00  0.00    +0.000 A 
ATOM      3  C   UNL     1      -5.528  -2.658 124.918  0.00  0.00    +0.000 A 
ATOM      4  C   UNL     1      -5.155  -3.191 123.674  0.00  0.00    +0.000 A 
ATOM      5  C   UNL     1      -5.581  -2.576 122.499  0.00  0.00    +0.000 A 
ATOM      6  C   UNL     1      -6.388  -1.439 122.568  0.00  0.00    +0.000 A 
ENDROOT
BRANCH   4   7
ATOM      7  N   UNL     1      -4.361  -4.429 123.581  0.00  0.00    +0.000 N 
ATOM      8  O   UNL     1      -4.950  -5.507 123.737  0.00  0.00    +0.000 OA
ATOM      9  O   UNL     1      -3.152  -4.319 123.331  0.00  0.00    +0.000 OA
ENDBRANCH   4   7
BRANCH   1  10
ATOM     10  N   UNL     1      -7.476   0.384 123.745  0.00  0.00    +0.000 N 
ATOM     11  H   UNL     1      -6.984   1.173 124.162  0.00  0.00    +0.000 HD
BRANCH  10  13
ATOM     12  C   UNL     1      -9.562   0.787 125.472  0.00  0.00    +0.000 C 
ATOM     13  S   UNL     1      -9.171   0.427 123.765  0.00  0.00    +0.000 S 
ATOM     14  O   UNL     1      -9.698  -0.877 123.449  0.00  0.00    +0.000 OA
ATOM     15  O   UNL     1      -9.582   1.586 122.989  0.00  0.00    +0.000 OA
ENDBRANCH  10  13
ENDBRANCH   1  10
BRANCH   2  16
ATOM     16  O   UNL     1      -6.753  -1.193 126.281  0.00  0.00    +0.000 OA
BRANCH  16  17
ATOM     17  C   UNL     1      -7.475  -2.052 127.074  0.00  0.00    +0.000 A 
ATOM     18  C   UNL     1      -8.556  -2.696 126.473  0.00  0.00    +0.000 A 
ATOM     19  C   UNL     1      -9.300  -3.641 127.188  0.00  0.00    +0.000 A 
ATOM     20  C   UNL     1      -8.919  -4.001 128.477  0.00  0.00    +0.000 A 
ATOM     21  C   UNL     1      -7.865  -3.332 129.093  0.00  0.00    +0.000 A 
ATOM     22  C   UNL     1      -7.181  -2.318 128.412  0.00  0.00    +0.000 A 
ENDBRANCH  16  17
ENDBRANCH   2  16
TORSDOF 5
ENDMDL
MODEL 3
REMARK VINA RESULT:      -6.7      2.643      5.347
REMARK  Name = Nimesulide
REMARK  6 active torsions:
REMARK  status: ('A' for Active; 'I' for Inactive)
REMARK    1  A    between atoms: C_1  and  S_2
REMARK    2  A    between atoms: S_2  and  N_5
REMARK    3  A    between atoms: N_5  and  C_6
REMARK    4  A    between atoms: C_7  and  O_8
REMARK    5  A    between atoms: O_8  and  C_9
REMARK    6  A    between atoms: C_16  and  N_19
REMARK                            x       y       z     vdW  Elec       q    Type
REMARK                         _______ _______ _______ _____ _____    ______ ____
ROOT
ATOM      1  C   UNL     1      -8.473   2.539 124.516  0.00  0.00    +0.000 A 
ATOM      2  C   UNL     1      -7.451   2.030 123.677  0.00  0.00    +0.000 A 
ATOM      3  C   UNL     1      -7.486   0.665 123.281  0.00  0.00    +0.000 A 
ATOM      4  C   UNL     1      -8.456  -0.200 123.813  0.00  0.00    +0.000 A 
ATOM      5  C   UNL     1      -9.435   0.295 124.670  0.00  0.00    +0.000 A 
ATOM      6  C   UNL     1      -9.437   1.650 125.007  0.00  0.00    +0.000 A 
ENDROOT
BRANCH   4   7
ATOM      7  N   UNL     1      -8.428  -1.645 123.523  0.00  0.00    +0.000 N 
ATOM      8  O   UNL     1      -7.436  -2.099 122.937  0.00  0.00    +0.000 OA
ATOM      9  O   UNL     1      -9.393  -2.326 123.903  0.00  0.00    +0.000 OA
ENDBRANCH   4   7
BRANCH   1  10
ATOM     10  N   UNL     1      -8.679   3.946 124.781  0.00  0.00    +0.000 N 
ATOM     11  H   UNL     1      -8.952   4.521 123.985  0.00  0.00    +0.000 HD
BRANCH  10  13
ATOM     12  C   UNL     1      -7.011   3.331 126.863  0.00  0.00    +0.000 C 
ATOM     13  S   UNL     1      -7.794   4.697 126.016  0.00  0.00    +0.000 S 
ATOM     14  O   UNL     1      -8.693   5.342 126.941  0.00  0.00    +0.000 OA
ATOM     15  O   UNL     1      -6.732   5.460 125.382  0.00  0.00    +0.000 OA
ENDBRANCH  10  13
ENDBRANCH   1  10
BRANCH   2  16
ATOM     16  O   UNL     1      -6.380   2.731 123.143  0.00  0.00    +0.000 OA
BRANCH  16  17
ATOM     17  C   UNL     1      -6.502   3.412 121.955  0.00  0.00    +0.000 A 
ATOM     18  C   UNL     1      -5.340   3.991 121.447  0.00  0.00    +0.000 A 
ATOM     19  C   UNL     1      -5.361   4.641 120.208  0.00  0.00    +0.000 A 
ATOM     20  C   UNL     1      -6.522   4.647 119.440  0.00  0.00    +0.000 A 
ATOM     21  C   UNL     1      -7.693   4.104 119.963  0.00  0.00    +0.000 A 
ATOM     22  C   UNL     1      -7.696   3.538 121.244  0.00  0.00    +0.000 A 
ENDBRANCH  16  17
ENDBRANCH   2  16
TORSDOF 5
ENDMDL
MODEL 4
REMARK VINA RESULT:      -6.6      2.956      5.722
REMARK  Name = Nimesulide
REMARK  6 active torsions:
REMARK  status: ('A' for Active; 'I' for Inactive)
REMARK    1  A    between atoms: C_1  and  S_2
REMARK    2  A    between atoms: S_2  and  N_5
REMARK    3  A    between atoms: N_5  and  C_6
REMARK    4  A    between atoms: C_7  and  O_8
REMARK    5  A    between atoms: O_8  and  C_9
REMARK    6  A    between atoms: C_16  and  N_19
REMARK                            x       y       z     vdW  Elec       q    Type
REMARK                         _______ _______ _______ _____ _____    ______ ____
ROOT
ATOM      1  C   UNL     1      -7.282   1.306 124.028  0.00  0.00    +0.000 A 
ATOM      2  C   UNL     1      -7.616   2.638 123.681  0.00  0.00    +0.000 A 
ATOM      3  C   UNL     1      -6.996   3.717 124.367  0.00  0.00    +0.000 A 
ATOM      4  C   UNL     1      -6.151   3.467 125.460  0.00  0.00    +0.000 A 
ATOM      5  C   UNL     1      -5.857   2.156 125.826  0.00  0.00    +0.000 A 
ATOM      6  C   UNL     1      -6.417   1.097 125.108  0.00  0.00    +0.000 A 
ENDROOT
BRANCH   4   7
ATOM      7  N   UNL     1      -5.607   4.571 126.270  0.00  0.00    +0.000 N 
ATOM      8  O   UNL     1      -4.960   4.280 127.285  0.00  0.00    +0.000 OA
ATOM      9  O   UNL     1      -5.811   5.729 125.875  0.00  0.00    +0.000 OA
ENDBRANCH   4   7
BRANCH   1  10
ATOM     10  N   UNL     1      -7.654   0.146 123.248  0.00  0.00    +0.000 N 
ATOM     11  H   UNL     1      -7.250   0.080 122.315  0.00  0.00    +0.000 HD
BRANCH  10  13
ATOM     12  C   UNL     1      -8.889  -2.294 123.131  0.00  0.00    +0.000 C 
ATOM     13  S   UNL     1      -9.172  -0.566 123.491  0.00  0.00    +0.000 S 
ATOM     14  O   UNL     1     -10.114  -0.055 122.526  0.00  0.00    +0.000 OA
ATOM     15  O   UNL     1      -9.467  -0.478 124.912  0.00  0.00    +0.000 OA
ENDBRANCH  10  13
ENDBRANCH   1  10
BRANCH   2  16
ATOM     16  O   UNL     1      -8.495   3.048 122.689  0.00  0.00    +0.000 OA
BRANCH  16  17
ATOM     17  C   UNL     1      -8.035   3.464 121.462  0.00  0.00    +0.000 A 
ATOM     18  C   UNL     1      -9.000   3.753 120.499  0.00  0.00    +0.000 A 
ATOM     19  C   UNL     1      -8.620   4.251 119.248  0.00  0.00    +0.000 A 
ATOM     20  C   UNL     1      -7.283   4.532 118.984  0.00  0.00    +0.000 A 
ATOM     21  C   UNL     1      -6.314   4.208 119.929  0.00  0.00    +0.000 A 
ATOM     22  C   UNL     1      -6.685   3.620 121.145  0.00  0.00    +0.000 A 
ENDBRANCH  16  17
ENDBRANCH   2  16
TORSDOF 5
ENDMDL
MODEL 5
REMARK VINA RESULT:      -6.5      2.688      5.138
REMARK  Name = Nimesulide
REMARK  6 active torsions:
REMARK  status: ('A' for Active; 'I' for Inactive)
REMARK    1  A    between atoms: C_1  and  S_2
REMARK    2  A    between atoms: S_2  and  N_5
REMARK    3  A    between atoms: N_5  and  C_6
REMARK    4  A    between atoms: C_7  and  O_8
REMARK    5  A    between atoms: O_8  and  C_9
REMARK    6  A    between atoms: C_16  and  N_19
REMARK                            x       y       z     vdW  Elec       q    Type
REMARK                         _______ _______ _______ _____ _____    ______ ____
ROOT
ATOM      1  C   UNL     1      -7.115   1.781 124.975  0.00  0.00    +0.000 A 
ATOM      2  C   UNL     1      -8.099   1.774 123.956  0.00  0.00    +0.000 A 
ATOM      3  C   UNL     1      -8.750   0.557 123.619  0.00  0.00    +0.000 A 
ATOM      4  C   UNL     1      -8.339  -0.650 124.205  0.00  0.00    +0.000 A 
ATOM      5  C   UNL     1      -7.342  -0.647 125.178  0.00  0.00    +0.000 A 
ATOM      6  C   UNL     1      -6.749   0.560 125.555  0.00  0.00    +0.000 A 
ENDROOT
BRANCH   4   7
ATOM      7  N   UNL     1      -8.905  -1.940 123.772  0.00  0.00    +0.000 N 
ATOM      8  O   UNL     1      -9.669  -2.527 124.549  0.00  0.00    +0.000 OA
ATOM      9  O   UNL     1      -8.598  -2.352 122.643  0.00  0.00    +0.000 OA
ENDBRANCH   4   7
BRANCH   1  10
ATOM     10  N   UNL     1      -6.569   2.981 125.569  0.00  0.00    +0.000 N 
ATOM     11  H   UNL     1      -5.554   3.027 125.646  0.00  0.00    +0.000 HD
BRANCH  10  13
ATOM     12  C   UNL     1      -6.295   4.134 128.037  0.00  0.00    +0.000 C 
ATOM     13  S   UNL     1      -7.475   3.819 126.731  0.00  0.00    +0.000 S 
ATOM     14  O   UNL     1      -8.509   2.963 127.257  0.00  0.00    +0.000 OA
ATOM     15  O   UNL     1      -7.821   5.109 126.159  0.00  0.00    +0.000 OA
ENDBRANCH  10  13
ENDBRANCH   1  10
BRANCH   2  16
ATOM     16  O   UNL     1      -8.552   2.862 123.224  0.00  0.00    +0.000 OA
BRANCH  16  17
ATOM     17  C   UNL     1      -7.921   3.247 122.065  0.00  0.00    +0.000 A 
ATOM     18  C   UNL     1      -8.743   3.622 121.003  0.00  0.00    +0.000 A 
ATOM     19  C   UNL     1      -8.183   4.096 119.812  0.00  0.00    +0.000 A 
ATOM     20  C   UNL     1      -6.806   4.267 119.706  0.00  0.00    +0.000 A 
ATOM     21  C   UNL     1      -5.981   3.857 120.750  0.00  0.00    +0.000 A 
ATOM     22  C   UNL     1      -6.536   3.293 121.905  0.00  0.00    +0.000 A 
ENDBRANCH  16  17
ENDBRANCH   2  16
TORSDOF 5
ENDMDL
MODEL 6
REMARK VINA RESULT:      -6.3      3.090      5.083
REMARK  Name = Nimesulide
REMARK  6 active torsions:
REMARK  status: ('A' for Active; 'I' for Inactive)
REMARK    1  A    between atoms: C_1  and  S_2
REMARK    2  A    between atoms: S_2  and  N_5
REMARK    3  A    between atoms: N_5  and  C_6
REMARK    4  A    between atoms: C_7  and  O_8
REMARK    5  A    between atoms: O_8  and  C_9
REMARK    6  A    between atoms: C_16  and  N_19
REMARK                            x       y       z     vdW  Elec       q    Type
REMARK                         _______ _______ _______ _____ _____    ______ ____
ROOT
ATOM      1  C   UNL     1      -6.107   1.495 125.554  0.00  0.00    +0.000 A 
ATOM      2  C   UNL     1      -6.942   1.565 124.412  0.00  0.00    +0.000 A 
ATOM      3  C   UNL     1      -7.246   0.379 123.692  0.00  0.00    +0.000 A 
ATOM      4  C   UNL     1      -6.629  -0.834 124.037  0.00  0.00    +0.000 A 
ATOM      5  C   UNL     1      -5.775  -0.892 125.136  0.00  0.00    +0.000 A 
ATOM      6  C   UNL     1      -5.529   0.262 125.881  0.00  0.00    +0.000 A 
ENDROOT
BRANCH   4   7
ATOM      7  N   UNL     1      -6.822  -2.047 123.222  0.00  0.00    +0.000 N 
ATOM      8  O   UNL     1      -6.253  -2.103 122.123  0.00  0.00    +0.000 OA
ATOM      9  O   UNL     1      -7.529  -2.950 123.694  0.00  0.00    +0.000 OA
ENDBRANCH   4   7
BRANCH   1  10
ATOM     10  N   UNL     1      -5.929   2.576 126.498  0.00  0.00    +0.000 N 
ATOM     11  H   UNL     1      -6.779   2.989 126.879  0.00  0.00    +0.000 HD
BRANCH  10  13
ATOM     12  C   UNL     1      -4.832   4.814 127.630  0.00  0.00    +0.000 C 
ATOM     13  S   UNL     1      -4.569   3.579 126.365  0.00  0.00    +0.000 S 
ATOM     14  O   UNL     1      -4.572   4.241 125.084  0.00  0.00    +0.000 OA
ATOM     15  O   UNL     1      -3.416   2.797 126.777  0.00  0.00    +0.000 OA
ENDBRANCH  10  13
ENDBRANCH   1  10
BRANCH   2  16
ATOM     16  O   UNL     1      -7.555   2.697 123.893  0.00  0.00    +0.000 OA
BRANCH  16  17
ATOM     17  C   UNL     1      -7.335   3.088 122.594  0.00  0.00    +0.000 A 
ATOM     18  C   UNL     1      -8.464   3.364 121.825  0.00  0.00    +0.000 A 
ATOM     19  C   UNL     1      -8.327   3.838 120.516  0.00  0.00    +0.000 A 
ATOM     20  C   UNL     1      -7.064   4.108 119.999  0.00  0.00    +0.000 A 
ATOM     21  C   UNL     1      -5.934   3.797 120.750  0.00  0.00    +0.000 A 
ATOM     22  C   UNL     1      -6.069   3.233 122.024  0.00  0.00    +0.000 A 
ENDBRANCH  16  17
ENDBRANCH   2  16
TORSDOF 5
ENDMDL
MODEL 7
REMARK VINA RESULT:      -6.3      3.010      6.292
REMARK  Name = Nimesulide
REMARK  6 active torsions:
REMARK  status: ('A' for Active; 'I' for Inactive)
REMARK    1  A    between atoms: C_1  and  S_2
REMARK    2  A    between atoms: S_2  and  N_5
REMARK    3  A    between atoms: N_5  and  C_6
REMARK    4  A    between atoms: C_7  and  O_8
REMARK    5  A    between atoms: O_8  and  C_9
REMARK    6  A    between atoms: C_16  and  N_19
REMARK                            x       y       z     vdW  Elec       q    Type
REMARK                         _______ _______ _______ _____ _____    ______ ____
ROOT
ATOM      1  C   UNL     1      -6.638   1.341 124.853  0.00  0.00    +0.000 A 
ATOM      2  C   UNL     1      -6.201   2.687 124.790  0.00  0.00    +0.000 A 
ATOM      3  C   UNL     1      -5.090   3.100 125.574  0.00  0.00    +0.000 A 
ATOM      4  C   UNL     1      -4.506   2.215 126.494  0.00  0.00    +0.000 A 
ATOM      5  C   UNL     1      -4.965   0.902 126.584  0.00  0.00    +0.000 A 
ATOM      6  C   UNL     1      -6.014   0.481 125.765  0.00  0.00    +0.000 A 
ENDROOT
BRANCH   4   7
ATOM      7  N   UNL     1      -3.445   2.661 127.413  0.00  0.00    +0.000 N 
ATOM      8  O   UNL     1      -2.327   2.898 126.935  0.00  0.00    +0.000 OA
ATOM      9  O   UNL     1      -3.739   2.794 128.611  0.00  0.00    +0.000 OA
ENDBRANCH   4   7
BRANCH   1  10
ATOM     10  N   UNL     1      -7.584   0.751 123.933  0.00  0.00    +0.000 N 
ATOM     11  H   UNL     1      -7.333   0.780 122.945  0.00  0.00    +0.000 HD
BRANCH  10  13
ATOM     12  C   UNL     1     -10.037   0.822 122.720  0.00  0.00    +0.000 C 
ATOM     13  S   UNL     1      -9.235   0.762 124.317  0.00  0.00    +0.000 S 
ATOM     14  O   UNL     1      -9.563   1.972 125.030  0.00  0.00    +0.000 OA
ATOM     15  O   UNL     1      -9.551  -0.532 124.896  0.00  0.00    +0.000 OA
ENDBRANCH  10  13
ENDBRANCH   1  10
BRANCH   2  16
ATOM     16  O   UNL     1      -6.726   3.701 124.002  0.00  0.00    +0.000 OA
BRANCH  16  17
ATOM     17  C   UNL     1      -6.243   3.937 122.737  0.00  0.00    +0.000 A 
ATOM     18  C   UNL     1      -7.055   3.542 121.675  0.00  0.00    +0.000 A 
ATOM     19  C   UNL     1      -6.671   3.810 120.357  0.00  0.00    +0.000 A 
ATOM     20  C   UNL     1      -5.514   4.540 120.100  0.00  0.00    +0.000 A 
ATOM     21  C   UNL     1      -4.682   4.901 121.156  0.00  0.00    +0.000 A 
ATOM     22  C   UNL     1      -5.017   4.549 122.469  0.00  0.00    +0.000 A 
ENDBRANCH  16  17
ENDBRANCH   2  16
TORSDOF 5
ENDMDL
MODEL 8
REMARK VINA RESULT:      -6.2      2.137      2.670
REMARK  Name = Nimesulide
REMARK  6 active torsions:
REMARK  status: ('A' for Active; 'I' for Inactive)
REMARK    1  A    between atoms: C_1  and  S_2
REMARK    2  A    between atoms: S_2  and  N_5
REMARK    3  A    between atoms: N_5  and  C_6
REMARK    4  A    between atoms: C_7  and  O_8
REMARK    5  A    between atoms: O_8  and  C_9
REMARK    6  A    between atoms: C_16  and  N_19
REMARK                            x       y       z     vdW  Elec       q    Type
REMARK                         _______ _______ _______ _____ _____    ______ ____
ROOT
ATOM      1  C   UNL     1      -6.087   3.043 125.008  0.00  0.00    +0.000 A 
ATOM      2  C   UNL     1      -6.814   2.216 124.117  0.00  0.00    +0.000 A 
ATOM      3  C   UNL     1      -6.791   2.497 122.724  0.00  0.00    +0.000 A 
ATOM      4  C   UNL     1      -6.153   3.653 122.247  0.00  0.00    +0.000 A 
ATOM      5  C   UNL     1      -5.473   4.488 123.132  0.00  0.00    +0.000 A 
ATOM      6  C   UNL     1      -5.442   4.174 124.491  0.00  0.00    +0.000 A 
ENDROOT
BRANCH   4   7
ATOM      7  N   UNL     1      -6.233   4.036 120.827  0.00  0.00    +0.000 N 
ATOM      8  O   UNL     1      -7.331   3.938 120.261  0.00  0.00    +0.000 OA
ATOM      9  O   UNL     1      -5.199   4.456 120.285  0.00  0.00    +0.000 OA
ENDBRANCH   4   7
BRANCH   1  10
ATOM     10  N   UNL     1      -5.835   2.719 126.394  0.00  0.00    +0.000 N 
ATOM     11  H   UNL     1      -5.441   1.797 126.580  0.00  0.00    +0.000 HD
BRANCH  10  13
ATOM     12  C   UNL     1      -6.573   2.320 129.001  0.00  0.00    +0.000 C 
ATOM     13  S   UNL     1      -6.814   3.402 127.598  0.00  0.00    +0.000 S 
ATOM     14  O   UNL     1      -8.199   3.326 127.205  0.00  0.00    +0.000 OA
ATOM     15  O   UNL     1      -6.229   4.684 127.953  0.00  0.00    +0.000 OA
ENDBRANCH  10  13
ENDBRANCH   1  10
BRANCH   2  16
ATOM     16  O   UNL     1      -7.563   1.094 124.440  0.00  0.00    +0.000 OA
BRANCH  16  17
ATOM     17  C   UNL     1      -7.057  -0.171 124.261  0.00  0.00    +0.000 A 
ATOM     18  C   UNL     1      -7.652  -0.946 123.266  0.00  0.00    +0.000 A 
ATOM     19  C   UNL     1      -7.151  -2.217 122.970  0.00  0.00    +0.000 A 
ATOM     20  C   UNL     1      -6.008  -2.687 123.612  0.00  0.00    +0.000 A 
ATOM     21  C   UNL     1      -5.436  -1.932 124.633  0.00  0.00    +0.000 A 
ATOM     22  C   UNL     1      -5.995  -0.701 124.996  0.00  0.00    +0.000 A 
ENDBRANCH  16  17
ENDBRANCH   2  16
TORSDOF 5
ENDMDL
MODEL 9
REMARK VINA RESULT:      -6.1      9.151     10.228
REMARK  Name = Nimesulide
REMARK  6 active torsions:
REMARK  status: ('A' for Active; 'I' for Inactive)
REMARK    1  A    between atoms: C_1  and  S_2
REMARK    2  A    between atoms: S_2  and  N_5
REMARK    3  A    between atoms: N_5  and  C_6
REMARK    4  A    between atoms: C_7  and  O_8
REMARK    5  A    between atoms: O_8  and  C_9
REMARK    6  A    between atoms: C_16  and  N_19
REMARK                            x       y       z     vdW  Elec       q    Type
REMARK                         _______ _______ _______ _____ _____    ______ ____
ROOT
ATOM      1  C   UNL     1      -8.465   6.411 131.531  0.00  0.00    +0.000 A 
ATOM      2  C   UNL     1      -9.441   5.790 132.349  0.00  0.00    +0.000 A 
ATOM      3  C   UNL     1     -10.815   5.893 132.001  0.00  0.00    +0.000 A 
ATOM      4  C   UNL     1     -11.212   6.702 130.925  0.00  0.00    +0.000 A 
ATOM      5  C   UNL     1     -10.252   7.346 130.147  0.00  0.00    +0.000 A 
ATOM      6  C   UNL     1      -8.899   7.190 130.452  0.00  0.00    +0.000 A 
ENDROOT
BRANCH   4   7
ATOM      7  N   UNL     1     -12.638   6.933 130.630  0.00  0.00    +0.000 N 
ATOM      8  O   UNL     1     -13.030   6.731 129.473  0.00  0.00    +0.000 OA
ATOM      9  O   UNL     1     -13.367   7.296 131.566  0.00  0.00    +0.000 OA
ENDBRANCH   4   7
BRANCH   1  10
ATOM     10  N   UNL     1      -7.043   6.173 131.641  0.00  0.00    +0.000 N 
ATOM     11  H   UNL     1      -6.487   6.930 132.036  0.00  0.00    +0.000 HD
BRANCH  10  13
ATOM     12  C   UNL     1      -4.949   4.419 131.461  0.00  0.00    +0.000 C 
ATOM     13  S   UNL     1      -6.283   5.151 130.523  0.00  0.00    +0.000 S 
ATOM     14  O   UNL     1      -5.706   5.934 129.458  0.00  0.00    +0.000 OA
ATOM     15  O   UNL     1      -7.215   4.080 130.215  0.00  0.00    +0.000 OA
ENDBRANCH  10  13
ENDBRANCH   1  10
BRANCH   2  16
ATOM     16  O   UNL     1      -9.217   5.034 133.490  0.00  0.00    +0.000 OA
BRANCH  16  17
ATOM     17  C   UNL     1      -8.649   3.785 133.411  0.00  0.00    +0.000 A 
ATOM     18  C   UNL     1      -9.312   2.847 132.621  0.00  0.00    +0.000 A 
ATOM     19  C   UNL     1      -8.763   1.574 132.429  0.00  0.00    +0.000 A 
ATOM     20  C   UNL     1      -7.516   1.262 132.962  0.00  0.00    +0.000 A 
ATOM     21  C   UNL     1      -6.870   2.183 133.783  0.00  0.00    +0.000 A 
ATOM     22  C   UNL     1      -7.465   3.422 134.054  0.00  0.00    +0.000 A 
ENDBRANCH  16  17
ENDBRANCH   2  16
TORSDOF 5
ENDMDL
