MODEL 1
REMARK VINA RESULT:      -7.1      0.000      0.000
REMARK  Name = Nimodipine
REMARK  15 active torsions:
REMARK  status: ('A' for Active; 'I' for Inactive)
REMARK    1  A    between atoms: C_1  and  O_2
REMARK    2  A    between atoms: O_2  and  C_3
REMARK    3  A    between atoms: C_3  and  C_4
REMARK    4  A    between atoms: C_4  and  O_5
REMARK    5  A    between atoms: O_5  and  C_6
REMARK    6  A    between atoms: C_6  and  C_8
REMARK    7  A    between atoms: C_9  and  C_10
REMARK    8  A    between atoms: C_12  and  C_13
REMARK    9  A    between atoms: C_14  and  C_25
REMARK   10  A    between atoms: C_15  and  C_16
REMARK   11  A    between atoms: C_18  and  N_22
REMARK   12  A    between atoms: C_25  and  O_27
REMARK   13  A    between atoms: O_27  and  C_28
REMARK   14  A    between atoms: C_28  and  C_29
REMARK   15  A    between atoms: C_28  and  C_30
REMARK                            x       y       z     vdW  Elec       q    Type
REMARK                         _______ _______ _______ _____ _____    ______ ____
ROOT
ATOM      1  C   UNL     1      -6.974   0.929 124.904  0.00  0.00    +0.000 C 
ATOM      2  C   UNL     1      -7.971   0.917 125.819  0.00  0.00    +0.000 C 
ATOM      3  C   UNL     1      -8.728  -0.289 126.303  0.00  0.00    +0.000 C 
ATOM      4  N   UNL     1      -8.328   2.105 126.444  0.00  0.00    +0.000 N 
ATOM      5  C   UNL     1      -7.522   3.235 126.487  0.00  0.00    +0.000 C 
ATOM      6  C   UNL     1      -7.859   4.224 127.579  0.00  0.00    +0.000 C 
ATOM      7  C   UNL     1      -6.507   3.376 125.594  0.00  0.00    +0.000 C 
ATOM      8  C   UNL     1      -6.307   2.276 124.534  0.00  0.00    +0.000 C 
ATOM      9  H   UNL     1      -9.091   2.061 127.117  0.00  0.00    +0.000 HD
ENDROOT
BRANCH   8  10
ATOM     10  C   UNL     1      -6.863   2.759 123.187  0.00  0.00    +0.000 A 
ATOM     11  C   UNL     1      -6.011   3.385 122.271  0.00  0.00    +0.000 A 
ATOM     12  C   UNL     1      -6.548   3.968 121.117  0.00  0.00    +0.000 A 
ATOM     13  C   UNL     1      -7.902   3.814 120.791  0.00  0.00    +0.000 A 
ATOM     14  C   UNL     1      -8.748   3.158 121.679  0.00  0.00    +0.000 A 
ATOM     15  C   UNL     1      -8.236   2.653 122.874  0.00  0.00    +0.000 A 
BRANCH  12  16
ATOM     16  N   UNL     1      -5.709   4.861 120.312  0.00  0.00    +0.000 N 
ATOM     17  O   UNL     1      -5.952   4.945 119.100  0.00  0.00    +0.000 OA
ATOM     18  O   UNL     1      -4.775   5.441 120.883  0.00  0.00    +0.000 OA
ENDBRANCH  12  16
ENDBRANCH   8  10
BRANCH   1  19
ATOM     19  C   UNL     1      -6.383  -0.296 124.294  0.00  0.00    +0.000 C 
ATOM     20  O   UNL     1      -5.555  -0.982 124.887  0.00  0.00    +0.000 OA
BRANCH  19  21
ATOM     21  O   UNL     1      -6.849  -0.553 123.044  0.00  0.00    +0.000 OA
BRANCH  21  22
ATOM     22  C   UNL     1      -7.444  -1.857 122.847  0.00  0.00    +0.000 C 
BRANCH  22  23
ATOM     23  C   UNL     1      -8.948  -1.717 122.582  0.00  0.00    +0.000 C 
BRANCH  23  25
ATOM     24  C   UNL     1      -9.224  -3.441 124.173  0.00  0.00    +0.000 C 
ATOM     25  O   UNL     1      -9.703  -2.181 123.705  0.00  0.00    +0.000 OA
ENDBRANCH  23  25
ENDBRANCH  22  23
ENDBRANCH  21  22
ENDBRANCH  19  21
ENDBRANCH   1  19
BRANCH   7  26
ATOM     26  C   UNL     1      -5.648   4.604 125.626  0.00  0.00    +0.000 C 
ATOM     27  O   UNL     1      -6.081   5.721 125.361  0.00  0.00    +0.000 OA
BRANCH  26  28
ATOM     28  O   UNL     1      -4.348   4.384 125.976  0.00  0.00    +0.000 OA
BRANCH  28  29
ATOM     29  C   UNL     1      -4.089   4.392 127.413  0.00  0.00    +0.000 C 
ATOM     30  C   UNL     1      -3.315   3.145 127.852  0.00  0.00    +0.000 C 
ATOM     31  C   UNL     1      -3.252   5.621 127.771  0.00  0.00    +0.000 C 
ENDBRANCH  28  29
ENDBRANCH  26  28
ENDBRANCH   7  26
TORSDOF 10
ENDMDL
MODEL 2
REMARK VINA RESULT:      -6.9      1.954      5.847
REMARK  Name = Nimodipine
REMARK  15 active torsions:
REMARK  status: ('A' for Active; 'I' for Inactive)
REMARK    1  A    between atoms: C_1  and  O_2
REMARK    2  A    between atoms: O_2  and  C_3
REMARK    3  A    between atoms: C_3  and  C_4
REMARK    4  A    between atoms: C_4  and  O_5
REMARK    5  A    between atoms: O_5  and  C_6
REMARK    6  A    between atoms: C_6  and  C_8
REMARK    7  A    between atoms: C_9  and  C_10
REMARK    8  A    between atoms: C_12  and  C_13
REMARK    9  A    between atoms: C_14  and  C_25
REMARK   10  A    between atoms: C_15  and  C_16
REMARK   11  A    between atoms: C_18  and  N_22
REMARK   12  A    between atoms: C_25  and  O_27
REMARK   13  A    between atoms: O_27  and  C_28
REMARK   14  A    between atoms: C_28  and  C_29
REMARK   15  A    between atoms: C_28  and  C_30
REMARK                            x       y       z     vdW  Elec       q    Type
REMARK                         _______ _______ _______ _____ _____    ______ ____
ROOT
ATOM      1  C   UNL     1      -6.995   2.992 125.763  0.00  0.00    +0.000 C 
ATOM      2  C   UNL     1      -5.770   2.608 126.193  0.00  0.00    +0.000 C 
ATOM      3  C   UNL     1      -4.882   3.355 127.149  0.00  0.00    +0.000 C 
ATOM      4  N   UNL     1      -5.264   1.382 125.782  0.00  0.00    +0.000 N 
ATOM      5  C   UNL     1      -6.041   0.352 125.266  0.00  0.00    +0.000 C 
ATOM      6  C   UNL     1      -5.412  -1.020 125.326  0.00  0.00    +0.000 C 
ATOM      7  C   UNL     1      -7.279   0.622 124.772  0.00  0.00    +0.000 C 
ATOM      8  C   UNL     1      -7.766   2.083 124.775  0.00  0.00    +0.000 C 
ATOM      9  H   UNL     1      -4.335   1.131 126.114  0.00  0.00    +0.000 HD
ENDROOT
BRANCH   8  10
ATOM     10  C   UNL     1      -7.646   2.664 123.359  0.00  0.00    +0.000 A 
ATOM     11  C   UNL     1      -6.422   3.180 122.924  0.00  0.00    +0.000 A 
ATOM     12  C   UNL     1      -6.354   3.854 121.698  0.00  0.00    +0.000 A 
ATOM     13  C   UNL     1      -7.457   3.898 120.834  0.00  0.00    +0.000 A 
ATOM     14  C   UNL     1      -8.668   3.351 121.245  0.00  0.00    +0.000 A 
ATOM     15  C   UNL     1      -8.766   2.757 122.503  0.00  0.00    +0.000 A 
BRANCH  12  16
ATOM     16  N   UNL     1      -5.156   4.635 121.378  0.00  0.00    +0.000 N 
ATOM     17  O   UNL     1      -4.212   4.600 122.182  0.00  0.00    +0.000 OA
ATOM     18  O   UNL     1      -5.175   5.322 120.347  0.00  0.00    +0.000 OA
ENDBRANCH  12  16
ENDBRANCH   8  10
BRANCH   1  19
ATOM     19  C   UNL     1      -7.718   4.195 126.265  0.00  0.00    +0.000 C 
ATOM     20  O   UNL     1      -7.597   5.295 125.733  0.00  0.00    +0.000 OA
BRANCH  19  21
ATOM     21  O   UNL     1      -8.497   3.941 127.349  0.00  0.00    +0.000 OA
BRANCH  21  22
ATOM     22  C   UNL     1      -7.996   4.427 128.615  0.00  0.00    +0.000 C 
BRANCH  22  23
ATOM     23  C   UNL     1      -9.042   4.209 129.716  0.00  0.00    +0.000 C 
BRANCH  23  25
ATOM     24  C   UNL     1     -10.003   6.354 129.486  0.00  0.00    +0.000 C 
ATOM     25  O   UNL     1     -10.233   4.948 129.432  0.00  0.00    +0.000 OA
ENDBRANCH  23  25
ENDBRANCH  22  23
ENDBRANCH  21  22
ENDBRANCH  19  21
ENDBRANCH   1  19
BRANCH   7  26
ATOM     26  C   UNL     1      -8.112  -0.484 124.197  0.00  0.00    +0.000 C 
ATOM     27  O   UNL     1      -8.099  -0.770 123.004  0.00  0.00    +0.000 OA
BRANCH  26  28
ATOM     28  O   UNL     1      -8.881  -1.152 125.104  0.00  0.00    +0.000 OA
BRANCH  28  29
ATOM     29  C   UNL     1      -8.594  -2.579 125.222  0.00  0.00    +0.000 C 
ATOM     30  C   UNL     1      -8.972  -3.116 126.606  0.00  0.00    +0.000 C 
ATOM     31  C   UNL     1      -9.404  -3.348 124.176  0.00  0.00    +0.000 C 
ENDBRANCH  28  29
ENDBRANCH  26  28
ENDBRANCH   7  26
TORSDOF 10
ENDMDL
MODEL 3
REMARK VINA RESULT:      -6.8      3.271      6.549
REMARK  Name = Nimodipine
REMARK  15 active torsions:
REMARK  status: ('A' for Active; 'I' for Inactive)
REMARK    1  A    between atoms: C_1  and  O_2
REMARK    2  A    between atoms: O_2  and  C_3
REMARK    3  A    between atoms: C_3  and  C_4
REMARK    4  A    between atoms: C_4  and  O_5
REMARK    5  A    between atoms: O_5  and  C_6
REMARK    6  A    between atoms: C_6  and  C_8
REMARK    7  A    between atoms: C_9  and  C_10
REMARK    8  A    between atoms: C_12  and  C_13
REMARK    9  A    between atoms: C_14  and  C_25
REMARK   10  A    between atoms: C_15  and  C_16
REMARK   11  A    between atoms: C_18  and  N_22
REMARK   12  A    between atoms: C_25  and  O_27
REMARK   13  A    between atoms: O_27  and  C_28
REMARK   14  A    between atoms: C_28  and  C_29
REMARK   15  A    between atoms: C_28  and  C_30
REMARK                            x       y       z     vdW  Elec       q    Type
REMARK                         _______ _______ _______ _____ _____    ______ ____
ROOT
ATOM      1  C   UNL     1      -8.142   1.696 129.000  0.00  0.00    +0.000 C 
ATOM      2  C   UNL     1      -7.823   0.644 129.789  0.00  0.00    +0.000 C 
ATOM      3  C   UNL     1      -7.810   0.623 131.293  0.00  0.00    +0.000 C 
ATOM      4  N   UNL     1      -7.525  -0.577 129.198  0.00  0.00    +0.000 N 
ATOM      5  C   UNL     1      -7.874  -0.919 127.898  0.00  0.00    +0.000 C 
ATOM      6  C   UNL     1      -7.893  -2.401 127.606  0.00  0.00    +0.000 C 
ATOM      7  C   UNL     1      -8.183   0.057 127.002  0.00  0.00    +0.000 C 
ATOM      8  C   UNL     1      -8.102   1.525 127.462  0.00  0.00    +0.000 C 
ATOM      9  H   UNL     1      -7.276  -1.343 129.821  0.00  0.00    +0.000 HD
ENDROOT
BRANCH   8  10
ATOM     10  C   UNL     1      -6.814   2.159 126.919  0.00  0.00    +0.000 A 
ATOM     11  C   UNL     1      -6.882   3.362 126.209  0.00  0.00    +0.000 A 
ATOM     12  C   UNL     1      -5.734   3.854 125.577  0.00  0.00    +0.000 A 
ATOM     13  C   UNL     1      -4.487   3.241 125.759  0.00  0.00    +0.000 A 
ATOM     14  C   UNL     1      -4.406   2.065 126.498  0.00  0.00    +0.000 A 
ATOM     15  C   UNL     1      -5.562   1.520 127.056  0.00  0.00    +0.000 A 
BRANCH  12  16
ATOM     16  N   UNL     1      -5.866   4.946 124.607  0.00  0.00    +0.000 N 
ATOM     17  O   UNL     1      -6.259   6.045 125.025  0.00  0.00    +0.000 OA
ATOM     18  O   UNL     1      -5.622   4.692 123.419  0.00  0.00    +0.000 OA
ENDBRANCH  12  16
ENDBRANCH   8  10
BRANCH   1  19
ATOM     19  C   UNL     1      -8.647   3.002 129.512  0.00  0.00    +0.000 C 
ATOM     20  O   UNL     1      -7.890   3.867 129.945  0.00  0.00    +0.000 OA
BRANCH  19  21
ATOM     21  O   UNL     1     -10.000   3.118 129.450  0.00  0.00    +0.000 OA
BRANCH  21  22
ATOM     22  C   UNL     1     -10.644   3.639 130.635  0.00  0.00    +0.000 C 
BRANCH  22  23
ATOM     23  C   UNL     1     -11.002   5.117 130.435  0.00  0.00    +0.000 C 
BRANCH  23  25
ATOM     24  C   UNL     1     -12.295   6.626 129.159  0.00  0.00    +0.000 C 
ATOM     25  O   UNL     1     -12.041   5.256 129.462  0.00  0.00    +0.000 OA
ENDBRANCH  23  25
ENDBRANCH  22  23
ENDBRANCH  21  22
ENDBRANCH  19  21
ENDBRANCH   1  19
BRANCH   7  26
ATOM     26  C   UNL     1      -8.541  -0.308 125.593  0.00  0.00    +0.000 C 
ATOM     27  O   UNL     1      -9.663  -0.685 125.272  0.00  0.00    +0.000 OA
BRANCH  26  28
ATOM     28  O   UNL     1      -7.523  -0.184 124.694  0.00  0.00    +0.000 OA
BRANCH  28  29
ATOM     29  C   UNL     1      -6.881  -1.439 124.314  0.00  0.00    +0.000 C 
ATOM     30  C   UNL     1      -6.735  -1.559 122.794  0.00  0.00    +0.000 C 
ATOM     31  C   UNL     1      -5.483  -1.502 124.932  0.00  0.00    +0.000 C 
ENDBRANCH  28  29
ENDBRANCH  26  28
ENDBRANCH   7  26
TORSDOF 10
ENDMDL
MODEL 4
REMARK VINA RESULT:      -6.8      2.499      6.546
REMARK  Name = Nimodipine
REMARK  15 active torsions:
REMARK  status: ('A' for Active; 'I' for Inactive)
REMARK    1  A    between atoms: C_1  and  O_2
REMARK    2  A    between atoms: O_2  and  C_3
REMARK    3  A    between atoms: C_3  and  C_4
REMARK    4  A    between atoms: C_4  and  O_5
REMARK    5  A    between atoms: O_5  and  C_6
REMARK    6  A    between atoms: C_6  and  C_8
REMARK    7  A    between atoms: C_9  and  C_10
REMARK    8  A    between atoms: C_12  and  C_13
REMARK    9  A    between atoms: C_14  and  C_25
REMARK   10  A    between atoms: C_15  and  C_16
REMARK   11  A    between atoms: C_18  and  N_22
REMARK   12  A    between atoms: C_25  and  O_27
REMARK   13  A    between atoms: O_27  and  C_28
REMARK   14  A    between atoms: C_28  and  C_29
REMARK   15  A    between atoms: C_28  and  C_30
REMARK                            x       y       z     vdW  Elec       q    Type
REMARK                         _______ _______ _______ _____ _____    ______ ____
ROOT
ATOM      1  C   UNL     1      -7.157   1.797 124.577  0.00  0.00    +0.000 C 
ATOM      2  C   UNL     1      -8.452   1.458 124.778  0.00  0.00    +0.000 C 
ATOM      3  C   UNL     1      -9.660   2.180 124.247  0.00  0.00    +0.000 C 
ATOM      4  N   UNL     1      -8.744   0.304 125.494  0.00  0.00    +0.000 N 
ATOM      5  C   UNL     1      -7.840  -0.727 125.711  0.00  0.00    +0.000 C 
ATOM      6  C   UNL     1      -8.457  -2.057 126.077  0.00  0.00    +0.000 C 
ATOM      7  C   UNL     1      -6.507  -0.498 125.573  0.00  0.00    +0.000 C 
ATOM      8  C   UNL     1      -6.044   0.925 125.206  0.00  0.00    +0.000 C 
ATOM      9  H   UNL     1      -9.729   0.087 125.637  0.00  0.00    +0.000 HD
ENDROOT
BRANCH   8  10
ATOM     10  C   UNL     1      -5.503   1.625 126.460  0.00  0.00    +0.000 A 
ATOM     11  C   UNL     1      -4.356   2.419 126.369  0.00  0.00    +0.000 A 
ATOM     12  C   UNL     1      -3.772   2.924 127.537  0.00  0.00    +0.000 A 
ATOM     13  C   UNL     1      -4.394   2.768 128.783  0.00  0.00    +0.000 A 
ATOM     14  C   UNL     1      -5.558   2.012 128.875  0.00  0.00    +0.000 A 
ATOM     15  C   UNL     1      -6.096   1.431 127.727  0.00  0.00    +0.000 A 
BRANCH  12  16
ATOM     16  N   UNL     1      -2.428   3.506 127.470  0.00  0.00    +0.000 N 
ATOM     17  O   UNL     1      -2.264   4.637 127.950  0.00  0.00    +0.000 OA
ATOM     18  O   UNL     1      -1.547   2.853 126.894  0.00  0.00    +0.000 OA
ENDBRANCH  12  16
ENDBRANCH   8  10
BRANCH   1  19
ATOM     19  C   UNL     1      -6.712   2.907 123.687  0.00  0.00    +0.000 C 
ATOM     20  O   UNL     1      -6.549   4.050 124.105  0.00  0.00    +0.000 OA
BRANCH  19  21
ATOM     21  O   UNL     1      -6.519   2.518 122.399  0.00  0.00    +0.000 OA
BRANCH  21  22
ATOM     22  C   UNL     1      -6.599   3.565 121.405  0.00  0.00    +0.000 C 
BRANCH  22  23
ATOM     23  C   UNL     1      -5.196   3.916 120.892  0.00  0.00    +0.000 C 
BRANCH  23  25
ATOM     24  C   UNL     1      -5.541   5.588 119.260  0.00  0.00    +0.000 C 
ATOM     25  O   UNL     1      -5.105   5.311 120.590  0.00  0.00    +0.000 OA
ENDBRANCH  23  25
ENDBRANCH  22  23
ENDBRANCH  21  22
ENDBRANCH  19  21
ENDBRANCH   1  19
BRANCH   7  26
ATOM     26  C   UNL     1      -5.527  -1.604 125.827  0.00  0.00    +0.000 C 
ATOM     27  O   UNL     1      -5.382  -2.118 126.931  0.00  0.00    +0.000 OA
BRANCH  26  28
ATOM     28  O   UNL     1      -4.812  -1.997 124.733  0.00  0.00    +0.000 OA
BRANCH  28  29
ATOM     29  C   UNL     1      -5.485  -2.971 123.878  0.00  0.00    +0.000 C 
ATOM     30  C   UNL     1      -5.927  -2.344 122.552  0.00  0.00    +0.000 C 
ATOM     31  C   UNL     1      -4.524  -4.119 123.563  0.00  0.00    +0.000 C 
ENDBRANCH  28  29
ENDBRANCH  26  28
ENDBRANCH   7  26
TORSDOF 10
ENDMDL
MODEL 5
REMARK VINA RESULT:      -6.8      2.787      6.441
REMARK  Name = Nimodipine
REMARK  15 active torsions:
REMARK  status: ('A' for Active; 'I' for Inactive)
REMARK    1  A    between atoms: C_1  and  O_2
REMARK    2  A    between atoms: O_2  and  C_3
REMARK    3  A    between atoms: C_3  and  C_4
REMARK    4  A    between atoms: C_4  and  O_5
REMARK    5  A    between atoms: O_5  and  C_6
REMARK    6  A    between atoms: C_6  and  C_8
REMARK    7  A    between atoms: C_9  and  C_10
REMARK    8  A    between atoms: C_12  and  C_13
REMARK    9  A    between atoms: C_14  and  C_25
REMARK   10  A    between atoms: C_15  and  C_16
REMARK   11  A    between atoms: C_18  and  N_22
REMARK   12  A    between atoms: C_25  and  O_27
REMARK   13  A    between atoms: O_27  and  C_28
REMARK   14  A    between atoms: C_28  and  C_29
REMARK   15  A    between atoms: C_28  and  C_30
REMARK                            x       y       z     vdW  Elec       q    Type
REMARK                         _______ _______ _______ _____ _____    ______ ____
ROOT
ATOM      1  C   UNL     1      -6.906   2.346 125.731  0.00  0.00    +0.000 C 
ATOM      2  C   UNL     1      -5.688   2.903 125.924  0.00  0.00    +0.000 C 
ATOM      3  C   UNL     1      -5.106   4.068 125.171  0.00  0.00    +0.000 C 
ATOM      4  N   UNL     1      -4.880   2.421 126.946  0.00  0.00    +0.000 N 
ATOM      5  C   UNL     1      -5.344   1.670 128.017  0.00  0.00    +0.000 C 
ATOM      6  C   UNL     1      -4.441   1.651 129.229  0.00  0.00    +0.000 C 
ATOM      7  C   UNL     1      -6.543   1.034 127.928  0.00  0.00    +0.000 C 
ATOM      8  C   UNL     1      -7.335   1.148 126.612  0.00  0.00    +0.000 C 
ATOM      9  H   UNL     1      -3.965   2.855 127.053  0.00  0.00    +0.000 HD
ENDROOT
BRANCH   8  10
ATOM     10  C   UNL     1      -7.177  -0.150 125.807  0.00  0.00    +0.000 A 
ATOM     11  C   UNL     1      -8.314  -0.844 125.383  0.00  0.00    +0.000 A 
ATOM     12  C   UNL     1      -8.172  -2.105 124.793  0.00  0.00    +0.000 A 
ATOM     13  C   UNL     1      -6.906  -2.625 124.491  0.00  0.00    +0.000 A 
ATOM     14  C   UNL     1      -5.770  -1.921 124.875  0.00  0.00    +0.000 A 
ATOM     15  C   UNL     1      -5.905  -0.705 125.544  0.00  0.00    +0.000 A 
BRANCH  12  16
ATOM     16  N   UNL     1      -9.359  -2.946 124.612  0.00  0.00    +0.000 N 
ATOM     17  O   UNL     1      -9.585  -3.391 123.478  0.00  0.00    +0.000 OA
ATOM     18  O   UNL     1     -10.093  -3.124 125.595  0.00  0.00    +0.000 OA
ENDBRANCH  12  16
ENDBRANCH   8  10
BRANCH   1  19
ATOM     19  C   UNL     1      -7.931   2.882 124.790  0.00  0.00    +0.000 C 
ATOM     20  O   UNL     1      -8.672   3.812 125.096  0.00  0.00    +0.000 OA
BRANCH  19  21
ATOM     21  O   UNL     1      -7.951   2.236 123.594  0.00  0.00    +0.000 OA
BRANCH  21  22
ATOM     22  C   UNL     1      -7.857   3.077 122.421  0.00  0.00    +0.000 C 
BRANCH  22  23
ATOM     23  C   UNL     1      -6.422   3.069 121.878  0.00  0.00    +0.000 C 
BRANCH  23  25
ATOM     24  C   UNL     1      -6.774   4.198 119.834  0.00  0.00    +0.000 C 
ATOM     25  O   UNL     1      -6.163   4.255 121.122  0.00  0.00    +0.000 OA
ENDBRANCH  23  25
ENDBRANCH  22  23
ENDBRANCH  21  22
ENDBRANCH  19  21
ENDBRANCH   1  19
BRANCH   7  26
ATOM     26  C   UNL     1      -7.037   0.206 129.076  0.00  0.00    +0.000 C 
ATOM     27  O   UNL     1      -7.765   0.659 129.953  0.00  0.00    +0.000 OA
BRANCH  26  28
ATOM     28  O   UNL     1      -6.619  -1.093 129.066  0.00  0.00    +0.000 OA
BRANCH  28  29
ATOM     29  C   UNL     1      -7.615  -2.062 129.514  0.00  0.00    +0.000 C 
ATOM     30  C   UNL     1      -8.000  -3.031 128.392  0.00  0.00    +0.000 C 
ATOM     31  C   UNL     1      -7.041  -2.881 130.672  0.00  0.00    +0.000 C 
ENDBRANCH  28  29
ENDBRANCH  26  28
ENDBRANCH   7  26
TORSDOF 10
ENDMDL
MODEL 6
REMARK VINA RESULT:      -6.7      3.874      6.913
REMARK  Name = Nimodipine
REMARK  15 active torsions:
REMARK  status: ('A' for Active; 'I' for Inactive)
REMARK    1  A    between atoms: C_1  and  O_2
REMARK    2  A    between atoms: O_2  and  C_3
REMARK    3  A    between atoms: C_3  and  C_4
REMARK    4  A    between atoms: C_4  and  O_5
REMARK    5  A    between atoms: O_5  and  C_6
REMARK    6  A    between atoms: C_6  and  C_8
REMARK    7  A    between atoms: C_9  and  C_10
REMARK    8  A    between atoms: C_12  and  C_13
REMARK    9  A    between atoms: C_14  and  C_25
REMARK   10  A    between atoms: C_15  and  C_16
REMARK   11  A    between atoms: C_18  and  N_22
REMARK   12  A    between atoms: C_25  and  O_27
REMARK   13  A    between atoms: O_27  and  C_28
REMARK   14  A    between atoms: C_28  and  C_29
REMARK   15  A    between atoms: C_28  and  C_30
REMARK                            x       y       z     vdW  Elec       q    Type
REMARK                         _______ _______ _______ _____ _____    ______ ____
ROOT
ATOM      1  C   UNL     1      -7.339  -2.068 125.634  0.00  0.00    +0.000 C 
ATOM      2  C   UNL     1      -6.275  -1.656 124.907  0.00  0.00    +0.000 C 
ATOM      3  C   UNL     1      -5.753  -2.286 123.645  0.00  0.00    +0.000 C 
ATOM      4  N   UNL     1      -5.598  -0.506 125.294  0.00  0.00    +0.000 N 
ATOM      5  C   UNL     1      -6.126   0.461 126.140  0.00  0.00    +0.000 C 
ATOM      6  C   UNL     1      -5.462   1.816 126.061  0.00  0.00    +0.000 C 
ATOM      7  C   UNL     1      -7.177   0.153 126.945  0.00  0.00    +0.000 C 
ATOM      8  C   UNL     1      -7.729  -1.285 126.910  0.00  0.00    +0.000 C 
ATOM      9  H   UNL     1      -4.794  -0.233 124.732  0.00  0.00    +0.000 HD
ENDROOT
BRANCH   8  10
ATOM     10  C   UNL     1      -7.233  -2.052 128.144  0.00  0.00    +0.000 A 
ATOM     11  C   UNL     1      -5.863  -2.124 128.409  0.00  0.00    +0.000 A 
ATOM     12  C   UNL     1      -5.402  -2.955 129.437  0.00  0.00    +0.000 A 
ATOM     13  C   UNL     1      -6.296  -3.607 130.296  0.00  0.00    +0.000 A 
ATOM     14  C   UNL     1      -7.663  -3.508 130.062  0.00  0.00    +0.000 A 
ATOM     15  C   UNL     1      -8.126  -2.754 128.984  0.00  0.00    +0.000 A 
BRANCH  12  16
ATOM     16  N   UNL     1      -3.968  -3.249 129.528  0.00  0.00    +0.000 N 
ATOM     17  O   UNL     1      -3.440  -3.845 128.579  0.00  0.00    +0.000 OA
ATOM     18  O   UNL     1      -3.381  -2.928 130.571  0.00  0.00    +0.000 OA
ENDBRANCH  12  16
ENDBRANCH   8  10
BRANCH   1  19
ATOM     19  C   UNL     1      -8.248  -3.179 125.229  0.00  0.00    +0.000 C 
ATOM     20  O   UNL     1      -7.954  -4.357 125.409  0.00  0.00    +0.000 OA
BRANCH  19  21
ATOM     21  O   UNL     1      -9.400  -2.747 124.652  0.00  0.00    +0.000 OA
BRANCH  21  22
ATOM     22  C   UNL     1      -9.422  -2.751 123.206  0.00  0.00    +0.000 C 
BRANCH  22  23
ATOM     23  C   UNL     1      -9.360  -1.314 122.672  0.00  0.00    +0.000 C 
BRANCH  23  25
ATOM     24  C   UNL     1      -8.925   0.763 123.707  0.00  0.00    +0.000 C 
ATOM     25  O   UNL     1      -9.770  -0.385 123.678  0.00  0.00    +0.000 OA
ENDBRANCH  23  25
ENDBRANCH  22  23
ENDBRANCH  21  22
ENDBRANCH  19  21
ENDBRANCH   1  19
BRANCH   7  26
ATOM     26  C   UNL     1      -7.737   1.189 127.874  0.00  0.00    +0.000 C 
ATOM     27  O   UNL     1      -8.684   1.907 127.570  0.00  0.00    +0.000 OA
BRANCH  26  28
ATOM     28  O   UNL     1      -7.114   1.267 129.085  0.00  0.00    +0.000 OA
BRANCH  28  29
ATOM     29  C   UNL     1      -7.953   0.928 130.230  0.00  0.00    +0.000 C 
ATOM     30  C   UNL     1      -7.201   0.054 131.239  0.00  0.00    +0.000 C 
ATOM     31  C   UNL     1      -8.382   2.212 130.943  0.00  0.00    +0.000 C 
ENDBRANCH  28  29
ENDBRANCH  26  28
ENDBRANCH   7  26
TORSDOF 10
ENDMDL
MODEL 7
REMARK VINA RESULT:      -6.6      2.422      5.916
REMARK  Name = Nimodipine
REMARK  15 active torsions:
REMARK  status: ('A' for Active; 'I' for Inactive)
REMARK    1  A    between atoms: C_1  and  O_2
REMARK    2  A    between atoms: O_2  and  C_3
REMARK    3  A    between atoms: C_3  and  C_4
REMARK    4  A    between atoms: C_4  and  O_5
REMARK    5  A    between atoms: O_5  and  C_6
REMARK    6  A    between atoms: C_6  and  C_8
REMARK    7  A    between atoms: C_9  and  C_10
REMARK    8  A    between atoms: C_12  and  C_13
REMARK    9  A    between atoms: C_14  and  C_25
REMARK   10  A    between atoms: C_15  and  C_16
REMARK   11  A    between atoms: C_18  and  N_22
REMARK   12  A    between atoms: C_25  and  O_27
REMARK   13  A    between atoms: O_27  and  C_28
REMARK   14  A    between atoms: C_28  and  C_29
REMARK   15  A    between atoms: C_28  and  C_30
REMARK                            x       y       z     vdW  Elec       q    Type
REMARK                         _______ _______ _______ _____ _____    ______ ____
ROOT
ATOM      1  C   UNL     1      -6.423   2.355 126.935  0.00  0.00    +0.000 C 
ATOM      2  C   UNL     1      -5.160   1.885 127.060  0.00  0.00    +0.000 C 
ATOM      3  C   UNL     1      -3.996   2.600 127.690  0.00  0.00    +0.000 C 
ATOM      4  N   UNL     1      -4.874   0.596 126.630  0.00  0.00    +0.000 N 
ATOM      5  C   UNL     1      -5.835  -0.385 126.418  0.00  0.00    +0.000 C 
ATOM      6  C   UNL     1      -5.315  -1.804 126.420  0.00  0.00    +0.000 C 
ATOM      7  C   UNL     1      -7.136  -0.031 126.244  0.00  0.00    +0.000 C 
ATOM      8  C   UNL     1      -7.494   1.467 126.258  0.00  0.00    +0.000 C 
ATOM      9  H   UNL     1      -3.911   0.280 126.727  0.00  0.00    +0.000 HD
ENDROOT
BRANCH   8  10
ATOM     10  C   UNL     1      -7.713   1.953 124.818  0.00  0.00    +0.000 A 
ATOM     11  C   UNL     1      -6.625   2.411 124.069  0.00  0.00    +0.000 A 
ATOM     12  C   UNL     1      -6.848   3.003 122.820  0.00  0.00    +0.000 A 
ATOM     13  C   UNL     1      -8.126   3.018 122.244  0.00  0.00    +0.000 A 
ATOM     14  C   UNL     1      -9.207   2.528 122.968  0.00  0.00    +0.000 A 
ATOM     15  C   UNL     1      -9.005   2.018 124.250  0.00  0.00    +0.000 A 
BRANCH  12  16
ATOM     16  N   UNL     1      -5.755   3.733 122.171  0.00  0.00    +0.000 N 
ATOM     17  O   UNL     1      -5.320   3.287 121.099  0.00  0.00    +0.000 OA
ATOM     18  O   UNL     1      -5.299   4.725 122.756  0.00  0.00    +0.000 OA
ENDBRANCH  12  16
ENDBRANCH   8  10
BRANCH   1  19
ATOM     19  C   UNL     1      -6.895   3.647 127.512  0.00  0.00    +0.000 C 
ATOM     20  O   UNL     1      -7.014   4.659 126.827  0.00  0.00    +0.000 OA
BRANCH  19  21
ATOM     21  O   UNL     1      -7.164   3.576 128.842  0.00  0.00    +0.000 OA
BRANCH  21  22
ATOM     22  C   UNL     1      -8.421   4.152 129.264  0.00  0.00    +0.000 C 
BRANCH  22  23
ATOM     23  C   UNL     1      -9.309   3.075 129.901  0.00  0.00    +0.000 C 
BRANCH  23  25
ATOM     24  C   UNL     1     -10.793   4.799 130.534  0.00  0.00    +0.000 C 
ATOM     25  O   UNL     1     -10.672   3.506 129.944  0.00  0.00    +0.000 OA
ENDBRANCH  23  25
ENDBRANCH  22  23
ENDBRANCH  21  22
ENDBRANCH  19  21
ENDBRANCH   1  19
BRANCH   7  26
ATOM     26  C   UNL     1      -8.171  -1.086 125.995  0.00  0.00    +0.000 C 
ATOM     27  O   UNL     1      -8.585  -1.828 126.879  0.00  0.00    +0.000 OA
BRANCH  26  28
ATOM     28  O   UNL     1      -8.621  -1.153 124.708  0.00  0.00    +0.000 OA
BRANCH  28  29
ATOM     29  C   UNL     1      -8.149  -2.311 123.953  0.00  0.00    +0.000 C 
ATOM     30  C   UNL     1      -9.313  -3.084 123.325  0.00  0.00    +0.000 C 
ATOM     31  C   UNL     1      -7.229  -1.840 122.825  0.00  0.00    +0.000 C 
ENDBRANCH  28  29
ENDBRANCH  26  28
ENDBRANCH   7  26
TORSDOF 10
ENDMDL
MODEL 8
REMARK VINA RESULT:      -6.5      4.067      7.044
REMARK  Name = Nimodipine
REMARK  15 active torsions:
REMARK  status: ('A' for Active; 'I' for Inactive)
REMARK    1  A    between atoms: C_1  and  O_2
REMARK    2  A    between atoms: O_2  and  C_3
REMARK    3  A    between atoms: C_3  and  C_4
REMARK    4  A    between atoms: C_4  and  O_5
REMARK    5  A    between atoms: O_5  and  C_6
REMARK    6  A    between atoms: C_6  and  C_8
REMARK    7  A    between atoms: C_9  and  C_10
REMARK    8  A    between atoms: C_12  and  C_13
REMARK    9  A    between atoms: C_14  and  C_25
REMARK   10  A    between atoms: C_15  and  C_16
REMARK   11  A    between atoms: C_18  and  N_22
REMARK   12  A    between atoms: C_25  and  O_27
REMARK   13  A    between atoms: O_27  and  C_28
REMARK   14  A    between atoms: C_28  and  C_29
REMARK   15  A    between atoms: C_28  and  C_30
REMARK                            x       y       z     vdW  Elec       q    Type
REMARK                         _______ _______ _______ _____ _____    ______ ____
ROOT
ATOM      1  C   UNL     1      -7.129   0.137 127.610  0.00  0.00    +0.000 C 
ATOM      2  C   UNL     1      -5.855   0.574 127.737  0.00  0.00    +0.000 C 
ATOM      3  C   UNL     1      -5.336   1.939 127.379  0.00  0.00    +0.000 C 
ATOM      4  N   UNL     1      -4.906  -0.268 128.303  0.00  0.00    +0.000 N 
ATOM      5  C   UNL     1      -5.214  -1.376 129.081  0.00  0.00    +0.000 C 
ATOM      6  C   UNL     1      -4.096  -1.866 129.973  0.00  0.00    +0.000 C 
ATOM      7  C   UNL     1      -6.455  -1.927 129.013  0.00  0.00    +0.000 C 
ATOM      8  C   UNL     1      -7.476  -1.309 128.039  0.00  0.00    +0.000 C 
ATOM      9  H   UNL     1      -3.955   0.089 128.371  0.00  0.00    +0.000 HD
ENDROOT
BRANCH   8  10
ATOM     10  C   UNL     1      -7.586  -2.192 126.788  0.00  0.00    +0.000 A 
ATOM     11  C   UNL     1      -6.529  -2.232 125.874  0.00  0.00    +0.000 A 
ATOM     12  C   UNL     1      -6.694  -2.907 124.658  0.00  0.00    +0.000 A 
ATOM     13  C   UNL     1      -7.846  -3.662 124.399  0.00  0.00    +0.000 A 
ATOM     14  C   UNL     1      -8.886  -3.658 125.323  0.00  0.00    +0.000 A 
ATOM     15  C   UNL     1      -8.764  -2.915 126.496  0.00  0.00    +0.000 A 
BRANCH  12  16
ATOM     16  N   UNL     1      -5.706  -2.710 123.593  0.00  0.00    +0.000 N 
ATOM     17  O   UNL     1      -6.008  -1.956 122.657  0.00  0.00    +0.000 OA
ATOM     18  O   UNL     1      -4.646  -3.348 123.667  0.00  0.00    +0.000 OA
ENDBRANCH  12  16
ENDBRANCH   8  10
BRANCH   1  19
ATOM     19  C   UNL     1      -8.270   0.997 127.182  0.00  0.00    +0.000 C 
ATOM     20  O   UNL     1      -8.774   1.827 127.933  0.00  0.00    +0.000 OA
BRANCH  19  21
ATOM     21  O   UNL     1      -8.675   0.757 125.908  0.00  0.00    +0.000 OA
BRANCH  21  22
ATOM     22  C   UNL     1      -8.038   1.553 124.882  0.00  0.00    +0.000 C 
BRANCH  22  23
ATOM     23  C   UNL     1      -9.012   2.615 124.356  0.00  0.00    +0.000 C 
BRANCH  23  25
ATOM     24  C   UNL     1      -7.510   4.207 125.245  0.00  0.00    +0.000 C 
ATOM     25  O   UNL     1      -8.878   3.831 125.097  0.00  0.00    +0.000 OA
ENDBRANCH  23  25
ENDBRANCH  22  23
ENDBRANCH  21  22
ENDBRANCH  19  21
ENDBRANCH   1  19
BRANCH   7  26
ATOM     26  C   UNL     1      -6.783  -3.136 129.837  0.00  0.00    +0.000 C 
ATOM     27  O   UNL     1      -6.329  -4.248 129.589  0.00  0.00    +0.000 OA
BRANCH  26  28
ATOM     28  O   UNL     1      -7.624  -2.902 130.886  0.00  0.00    +0.000 OA
BRANCH  28  29
ATOM     29  C   UNL     1      -6.968  -2.448 132.109  0.00  0.00    +0.000 C 
ATOM     30  C   UNL     1      -7.889  -1.549 132.940  0.00  0.00    +0.000 C 
ATOM     31  C   UNL     1      -6.590  -3.660 132.962  0.00  0.00    +0.000 C 
ENDBRANCH  28  29
ENDBRANCH  26  28
ENDBRANCH   7  26
TORSDOF 10
ENDMDL
MODEL 9
REMARK VINA RESULT:      -6.4      3.532      6.927
REMARK  Name = Nimodipine
REMARK  15 active torsions:
REMARK  status: ('A' for Active; 'I' for Inactive)
REMARK    1  A    between atoms: C_1  and  O_2
REMARK    2  A    between atoms: O_2  and  C_3
REMARK    3  A    between atoms: C_3  and  C_4
REMARK    4  A    between atoms: C_4  and  O_5
REMARK    5  A    between atoms: O_5  and  C_6
REMARK    6  A    between atoms: C_6  and  C_8
REMARK    7  A    between atoms: C_9  and  C_10
REMARK    8  A    between atoms: C_12  and  C_13
REMARK    9  A    between atoms: C_14  and  C_25
REMARK   10  A    between atoms: C_15  and  C_16
REMARK   11  A    between atoms: C_18  and  N_22
REMARK   12  A    between atoms: C_25  and  O_27
REMARK   13  A    between atoms: O_27  and  C_28
REMARK   14  A    between atoms: C_28  and  C_29
REMARK   15  A    between atoms: C_28  and  C_30
REMARK                            x       y       z     vdW  Elec       q    Type
REMARK                         _______ _______ _______ _____ _____    ______ ____
ROOT
ATOM      1  C   UNL     1      -7.494   2.182 129.151  0.00  0.00    +0.000 C 
ATOM      2  C   UNL     1      -7.750   0.853 129.134  0.00  0.00    +0.000 C 
ATOM      3  C   UNL     1      -8.001  -0.027 130.327  0.00  0.00    +0.000 C 
ATOM      4  N   UNL     1      -7.858   0.203 127.911  0.00  0.00    +0.000 N 
ATOM      5  C   UNL     1      -8.088   0.849 126.703  0.00  0.00    +0.000 C 
ATOM      6  C   UNL     1      -8.636  -0.027 125.600  0.00  0.00    +0.000 C 
ATOM      7  C   UNL     1      -7.834   2.179 126.589  0.00  0.00    +0.000 C 
ATOM      8  C   UNL     1      -7.264   2.923 127.812  0.00  0.00    +0.000 C 
ATOM      9  H   UNL     1      -8.038  -0.799 127.936  0.00  0.00    +0.000 HD
ENDROOT
BRANCH   8  10
ATOM     10  C   UNL     1      -5.759   3.151 127.615  0.00  0.00    +0.000 A 
ATOM     11  C   UNL     1      -5.178   4.346 128.048  0.00  0.00    +0.000 A 
ATOM     12  C   UNL     1      -3.844   4.621 127.724  0.00  0.00    +0.000 A 
ATOM     13  C   UNL     1      -3.038   3.661 127.096  0.00  0.00    +0.000 A 
ATOM     14  C   UNL     1      -3.601   2.453 126.698  0.00  0.00    +0.000 A 
ATOM     15  C   UNL     1      -4.953   2.209 126.938  0.00  0.00    +0.000 A 
BRANCH  12  16
ATOM     16  N   UNL     1      -3.326   5.978 127.925  0.00  0.00    +0.000 N 
ATOM     17  O   UNL     1      -4.114   6.924 127.784  0.00  0.00    +0.000 OA
ATOM     18  O   UNL     1      -2.118   6.101 128.176  0.00  0.00    +0.000 OA
ENDBRANCH  12  16
ENDBRANCH   8  10
BRANCH   1  19
ATOM     19  C   UNL     1      -7.526   3.023 130.382  0.00  0.00    +0.000 C 
ATOM     20  O   UNL     1      -6.530   3.190 131.081  0.00  0.00    +0.000 OA
BRANCH  19  21
ATOM     21  O   UNL     1      -8.748   3.561 130.634  0.00  0.00    +0.000 OA
BRANCH  21  22
ATOM     22  C   UNL     1      -8.758   4.957 131.012  0.00  0.00    +0.000 C 
BRANCH  22  23
ATOM     23  C   UNL     1      -9.555   5.148 132.309  0.00  0.00    +0.000 C 
BRANCH  23  25
ATOM     24  C   UNL     1     -11.472   6.451 131.857  0.00  0.00    +0.000 C 
ATOM     25  O   UNL     1     -10.136   6.454 132.355  0.00  0.00    +0.000 OA
ENDBRANCH  23  25
ENDBRANCH  22  23
ENDBRANCH  21  22
ENDBRANCH  19  21
ENDBRANCH   1  19
BRANCH   7  26
ATOM     26  C   UNL     1      -8.063   2.875 125.281  0.00  0.00    +0.000 C 
ATOM     27  O   UNL     1      -8.951   3.706 125.120  0.00  0.00    +0.000 OA
BRANCH  26  28
ATOM     28  O   UNL     1      -7.203   2.516 124.285  0.00  0.00    +0.000 OA
BRANCH  28  29
ATOM     29  C   UNL     1      -6.762   3.613 123.428  0.00  0.00    +0.000 C 
ATOM     30  C   UNL     1      -5.534   4.321 124.008  0.00  0.00    +0.000 C 
ATOM     31  C   UNL     1      -6.386   3.062 122.051  0.00  0.00    +0.000 C 
ENDBRANCH  28  29
ENDBRANCH  26  28
ENDBRANCH   7  26
TORSDOF 10
ENDMDL
