MODEL 1
REMARK VINA RESULT:      -9.8      0.000      0.000
REMARK  Name = Nintedanib
REMARK  11 active torsions:
REMARK  status: ('A' for Active; 'I' for Inactive)
REMARK    1  A    between atoms: C_1  and  O_2
REMARK    2  A    between atoms: O_2  and  C_3
REMARK    3  A    between atoms: C_3  and  C_5
REMARK    4  A    between atoms: C_14  and  N_15
REMARK    5  A    between atoms: C_14  and  C_34
REMARK    6  A    between atoms: N_15  and  C_16
REMARK    7  A    between atoms: C_19  and  N_22
REMARK    8  A    between atoms: N_22  and  C_23
REMARK    9  A    between atoms: C_24  and  C_26
REMARK   10  A    between atoms: C_26  and  N_27
REMARK   11  A    between atoms: N_30  and  C_31
REMARK                            x       y       z     vdW  Elec       q    Type
REMARK                         _______ _______ _______ _____ _____    ______ ____
ROOT
ATOM      1  C   UNL     1      -5.645   4.262 121.745  0.00  0.00    +0.000 A 
ATOM      2  C   UNL     1      -6.378   3.074 121.539  0.00  0.00    +0.000 A 
ATOM      3  C   UNL     1      -6.639   2.182 122.600  0.00  0.00    +0.000 A 
ATOM      4  C   UNL     1      -6.152   2.484 123.859  0.00  0.00    +0.000 A 
ATOM      5  C   UNL     1      -5.508   3.719 124.036  0.00  0.00    +0.000 A 
ATOM      6  N   UNL     1      -5.101   3.893 125.342  0.00  0.00    +0.000 N 
ATOM      7  C   UNL     1      -5.149   2.694 125.990  0.00  0.00    +0.000 C 
ATOM      8  O   UNL     1      -4.387   2.437 126.916  0.00  0.00    +0.000 OA
ATOM      9  C   UNL     1      -6.078   1.797 125.177  0.00  0.00    +0.000 C 
ATOM     10  C   UNL     1      -6.642   0.655 125.666  0.00  0.00    +0.000 C 
ATOM     11  C   UNL     1      -5.208   4.600 123.021  0.00  0.00    +0.000 A 
ATOM     12  H   UNL     1      -4.531   4.640 125.704  0.00  0.00    +0.000 HD
ENDROOT
BRANCH  10  13
ATOM     13  C   UNL     1      -7.247  -0.343 124.713  0.00  0.00    +0.000 A 
ATOM     14  C   UNL     1      -6.484  -1.266 123.980  0.00  0.00    +0.000 A 
ATOM     15  C   UNL     1      -7.086  -2.085 123.005  0.00  0.00    +0.000 A 
ATOM     16  C   UNL     1      -8.467  -2.063 122.814  0.00  0.00    +0.000 A 
ATOM     17  C   UNL     1      -9.242  -1.176 123.550  0.00  0.00    +0.000 A 
ATOM     18  C   UNL     1      -8.633  -0.304 124.461  0.00  0.00    +0.000 A 
ENDBRANCH  10  13
BRANCH   1  19
ATOM     19  C   UNL     1      -5.244   5.153 120.633  0.00  0.00    +0.000 C 
ATOM     20  O   UNL     1      -4.433   6.055 120.771  0.00  0.00    +0.000 OA
BRANCH  19  22
ATOM     21  C   UNL     1      -5.891   5.893 118.516  0.00  0.00    +0.000 C 
ATOM     22  O   UNL     1      -5.942   4.861 119.509  0.00  0.00    +0.000 OA
ENDBRANCH  19  22
ENDBRANCH   1  19
BRANCH  10  23
ATOM     23  N   UNL     1      -6.652   0.231 127.007  0.00  0.00    +0.000 N 
ATOM     24  H   UNL     1      -6.173  -0.635 127.229  0.00  0.00    +0.000 HD
BRANCH  23  25
ATOM     25  C   UNL     1      -7.258   0.882 128.104  0.00  0.00    +0.000 A 
ATOM     26  C   UNL     1      -6.587   1.048 129.316  0.00  0.00    +0.000 A 
ATOM     27  C   UNL     1      -7.095   1.912 130.315  0.00  0.00    +0.000 A 
ATOM     28  C   UNL     1      -8.204   2.750 130.087  0.00  0.00    +0.000 A 
ATOM     29  C   UNL     1      -8.861   2.550 128.870  0.00  0.00    +0.000 A 
ATOM     30  C   UNL     1      -8.448   1.589 127.938  0.00  0.00    +0.000 A 
BRANCH  28  31
ATOM     31  N   UNL     1      -8.629   3.781 131.024  0.00  0.00    +0.000 N 
ATOM     32  C   UNL     1      -9.415   3.382 132.200  0.00  0.00    +0.000 C 
ATOM     33  C   UNL     1      -8.273   5.146 130.847  0.00  0.00    +0.000 C 
ATOM     34  O   UNL     1      -7.563   5.608 129.946  0.00  0.00    +0.000 OA
BRANCH  33  35
ATOM     35  C   UNL     1      -8.795   6.187 131.848  0.00  0.00    +0.000 C 
BRANCH  35  36
ATOM     36  N   UNL     1      -9.942   6.923 131.323  0.00  0.00    +0.000 NA
ATOM     37  C   UNL     1     -11.209   6.307 131.720  0.00  0.00    +0.000 C 
ATOM     38  C   UNL     1     -12.391   7.185 131.257  0.00  0.00    +0.000 C 
ATOM     39  N   UNL     1     -12.392   7.503 129.810  0.00  0.00    +0.000 NA
ATOM     40  C   UNL     1     -12.757   6.319 129.035  0.00  0.00    +0.000 C 
ATOM     41  C   UNL     1     -11.052   7.976 129.391  0.00  0.00    +0.000 C 
ATOM     42  C   UNL     1      -9.896   7.068 129.858  0.00  0.00    +0.000 C 
ENDBRANCH  35  36
ENDBRANCH  33  35
ENDBRANCH  28  31
ENDBRANCH  23  25
ENDBRANCH  10  23
TORSDOF 8
ENDMDL
MODEL 2
REMARK VINA RESULT:      -9.2      3.555      5.214
REMARK  Name = Nintedanib
REMARK  11 active torsions:
REMARK  status: ('A' for Active; 'I' for Inactive)
REMARK    1  A    between atoms: C_1  and  O_2
REMARK    2  A    between atoms: O_2  and  C_3
REMARK    3  A    between atoms: C_3  and  C_5
REMARK    4  A    between atoms: C_14  and  N_15
REMARK    5  A    between atoms: C_14  and  C_34
REMARK    6  A    between atoms: N_15  and  C_16
REMARK    7  A    between atoms: C_19  and  N_22
REMARK    8  A    between atoms: N_22  and  C_23
REMARK    9  A    between atoms: C_24  and  C_26
REMARK   10  A    between atoms: C_26  and  N_27
REMARK   11  A    between atoms: N_30  and  C_31
REMARK                            x       y       z     vdW  Elec       q    Type
REMARK                         _______ _______ _______ _____ _____    ______ ____
ROOT
ATOM      1  C   UNL     1      -8.616  -1.889 124.816  0.00  0.00    +0.000 A 
ATOM      2  C   UNL     1      -8.237  -2.779 125.843  0.00  0.00    +0.000 A 
ATOM      3  C   UNL     1      -7.675  -2.308 127.049  0.00  0.00    +0.000 A 
ATOM      4  C   UNL     1      -7.489  -0.948 127.209  0.00  0.00    +0.000 A 
ATOM      5  C   UNL     1      -7.965  -0.094 126.201  0.00  0.00    +0.000 A 
ATOM      6  N   UNL     1      -7.733   1.230 126.509  0.00  0.00    +0.000 N 
ATOM      7  C   UNL     1      -6.831   1.301 127.528  0.00  0.00    +0.000 C 
ATOM      8  O   UNL     1      -6.068   2.255 127.641  0.00  0.00    +0.000 OA
ATOM      9  C   UNL     1      -6.839  -0.062 128.214  0.00  0.00    +0.000 C 
ATOM     10  C   UNL     1      -6.333  -0.281 129.462  0.00  0.00    +0.000 C 
ATOM     11  C   UNL     1      -8.488  -0.517 124.999  0.00  0.00    +0.000 A 
ATOM     12  H   UNL     1      -7.883   2.025 125.909  0.00  0.00    +0.000 HD
ENDROOT
BRANCH  10  13
ATOM     13  C   UNL     1      -6.061  -1.692 129.916  0.00  0.00    +0.000 A 
ATOM     14  C   UNL     1      -4.940  -2.430 129.502  0.00  0.00    +0.000 A 
ATOM     15  C   UNL     1      -4.804  -3.787 129.850  0.00  0.00    +0.000 A 
ATOM     16  C   UNL     1      -5.731  -4.401 130.692  0.00  0.00    +0.000 A 
ATOM     17  C   UNL     1      -6.832  -3.679 131.135  0.00  0.00    +0.000 A 
ATOM     18  C   UNL     1      -7.010  -2.352 130.721  0.00  0.00    +0.000 A 
ENDBRANCH  10  13
BRANCH   1  19
ATOM     19  C   UNL     1      -9.087  -2.355 123.492  0.00  0.00    +0.000 C 
ATOM     20  O   UNL     1      -9.914  -3.244 123.362  0.00  0.00    +0.000 OA
BRANCH  19  22
ATOM     21  C   UNL     1      -7.031  -2.014 122.440  0.00  0.00    +0.000 C 
ATOM     22  O   UNL     1      -8.431  -1.711 122.496  0.00  0.00    +0.000 OA
ENDBRANCH  19  22
ENDBRANCH   1  19
BRANCH  10  23
ATOM     23  N   UNL     1      -5.933   0.697 130.390  0.00  0.00    +0.000 N 
ATOM     24  H   UNL     1      -4.962   0.699 130.679  0.00  0.00    +0.000 HD
BRANCH  23  25
ATOM     25  C   UNL     1      -6.739   1.699 130.975  0.00  0.00    +0.000 A 
ATOM     26  C   UNL     1      -6.347   3.039 130.979  0.00  0.00    +0.000 A 
ATOM     27  C   UNL     1      -7.260   4.060 131.334  0.00  0.00    +0.000 A 
ATOM     28  C   UNL     1      -8.627   3.800 131.553  0.00  0.00    +0.000 A 
ATOM     29  C   UNL     1      -8.983   2.449 131.554  0.00  0.00    +0.000 A 
ATOM     30  C   UNL     1      -8.052   1.423 131.349  0.00  0.00    +0.000 A 
BRANCH  28  31
ATOM     31  N   UNL     1      -9.619   4.851 131.731  0.00  0.00    +0.000 N 
ATOM     32  C   UNL     1      -9.420   5.831 132.808  0.00  0.00    +0.000 C 
ATOM     33  C   UNL     1     -10.746   4.971 130.872  0.00  0.00    +0.000 C 
ATOM     34  O   UNL     1     -10.998   4.262 129.891  0.00  0.00    +0.000 OA
BRANCH  33  35
ATOM     35  C   UNL     1     -11.777   6.075 131.146  0.00  0.00    +0.000 C 
BRANCH  35  36
ATOM     36  N   UNL     1     -11.736   7.125 130.133  0.00  0.00    +0.000 NA
ATOM     37  C   UNL     1     -12.778   6.944 129.120  0.00  0.00    +0.000 C 
ATOM     38  C   UNL     1     -12.782   8.140 128.147  0.00  0.00    +0.000 C 
ATOM     39  N   UNL     1     -11.475   8.420 127.509  0.00  0.00    +0.000 NA
ATOM     40  C   UNL     1     -11.175   7.399 126.508  0.00  0.00    +0.000 C 
ATOM     41  C   UNL     1     -10.403   8.442 128.532  0.00  0.00    +0.000 C 
ATOM     42  C   UNL     1     -10.419   7.225 129.478  0.00  0.00    +0.000 C 
ENDBRANCH  35  36
ENDBRANCH  33  35
ENDBRANCH  28  31
ENDBRANCH  23  25
ENDBRANCH  10  23
TORSDOF 8
ENDMDL
MODEL 3
REMARK VINA RESULT:      -9.0      4.362      7.042
REMARK  Name = Nintedanib
REMARK  11 active torsions:
REMARK  status: ('A' for Active; 'I' for Inactive)
REMARK    1  A    between atoms: C_1  and  O_2
REMARK    2  A    between atoms: O_2  and  C_3
REMARK    3  A    between atoms: C_3  and  C_5
REMARK    4  A    between atoms: C_14  and  N_15
REMARK    5  A    between atoms: C_14  and  C_34
REMARK    6  A    between atoms: N_15  and  C_16
REMARK    7  A    between atoms: C_19  and  N_22
REMARK    8  A    between atoms: N_22  and  C_23
REMARK    9  A    between atoms: C_24  and  C_26
REMARK   10  A    between atoms: C_26  and  N_27
REMARK   11  A    between atoms: N_30  and  C_31
REMARK                            x       y       z     vdW  Elec       q    Type
REMARK                         _______ _______ _______ _____ _____    ______ ____
ROOT
ATOM      1  C   UNL     1      -5.498   4.281 121.785  0.00  0.00    +0.000 A 
ATOM      2  C   UNL     1      -6.094   3.038 121.480  0.00  0.00    +0.000 A 
ATOM      3  C   UNL     1      -6.567   2.185 122.498  0.00  0.00    +0.000 A 
ATOM      4  C   UNL     1      -6.429   2.580 123.816  0.00  0.00    +0.000 A 
ATOM      5  C   UNL     1      -5.915   3.862 124.068  0.00  0.00    +0.000 A 
ATOM      6  N   UNL     1      -5.859   4.127 125.420  0.00  0.00    +0.000 N 
ATOM      7  C   UNL     1      -6.006   2.961 126.112  0.00  0.00    +0.000 C 
ATOM      8  O   UNL     1      -5.489   2.801 127.212  0.00  0.00    +0.000 OA
ATOM      9  C   UNL     1      -6.653   1.965 125.153  0.00  0.00    +0.000 C 
ATOM     10  C   UNL     1      -7.263   0.814 125.560  0.00  0.00    +0.000 C 
ATOM     11  C   UNL     1      -5.415   4.710 123.105  0.00  0.00    +0.000 A 
ATOM     12  H   UNL     1      -5.437   4.927 125.863  0.00  0.00    +0.000 HD
ENDROOT
BRANCH  10  13
ATOM     13  C   UNL     1      -7.556  -0.267 124.553  0.00  0.00    +0.000 A 
ATOM     14  C   UNL     1      -6.575  -1.141 124.055  0.00  0.00    +0.000 A 
ATOM     15  C   UNL     1      -6.876  -2.044 123.018  0.00  0.00    +0.000 A 
ATOM     16  C   UNL     1      -8.177  -2.157 122.529  0.00  0.00    +0.000 A 
ATOM     17  C   UNL     1      -9.167  -1.320 123.029  0.00  0.00    +0.000 A 
ATOM     18  C   UNL     1      -8.849  -0.365 124.002  0.00  0.00    +0.000 A 
ENDBRANCH  10  13
BRANCH   1  19
ATOM     19  C   UNL     1      -4.877   5.140 120.752  0.00  0.00    +0.000 C 
ATOM     20  O   UNL     1      -4.215   6.128 121.028  0.00  0.00    +0.000 OA
BRANCH  19  22
ATOM     21  C   UNL     1      -5.885   5.697 118.721  0.00  0.00    +0.000 C 
ATOM     22  O   UNL     1      -5.206   4.710 119.510  0.00  0.00    +0.000 OA
ENDBRANCH  19  22
ENDBRANCH   1  19
BRANCH  10  23
ATOM     23  N   UNL     1      -7.587   0.457 126.881  0.00  0.00    +0.000 N 
ATOM     24  H   UNL     1      -8.254   1.041 127.374  0.00  0.00    +0.000 HD
BRANCH  23  25
ATOM     25  C   UNL     1      -7.088  -0.641 127.616  0.00  0.00    +0.000 A 
ATOM     26  C   UNL     1      -5.814  -0.618 128.187  0.00  0.00    +0.000 A 
ATOM     27  C   UNL     1      -5.421  -1.603 129.123  0.00  0.00    +0.000 A 
ATOM     28  C   UNL     1      -6.326  -2.555 129.633  0.00  0.00    +0.000 A 
ATOM     29  C   UNL     1      -7.587  -2.560 129.032  0.00  0.00    +0.000 A 
ATOM     30  C   UNL     1      -7.934  -1.680 127.998  0.00  0.00    +0.000 A 
BRANCH  28  31
ATOM     31  N   UNL     1      -6.001  -3.454 130.732  0.00  0.00    +0.000 N 
ATOM     32  C   UNL     1      -5.381  -4.750 130.421  0.00  0.00    +0.000 C 
ATOM     33  C   UNL     1      -6.234  -3.094 132.088  0.00  0.00    +0.000 C 
ATOM     34  O   UNL     1      -6.682  -2.015 132.494  0.00  0.00    +0.000 OA
BRANCH  33  35
ATOM     35  C   UNL     1      -5.910  -4.109 133.194  0.00  0.00    +0.000 C 
BRANCH  35  36
ATOM     36  N   UNL     1      -4.851  -3.633 134.079  0.00  0.00    +0.000 NA
ATOM     37  C   UNL     1      -3.609  -3.374 133.348  0.00  0.00    +0.000 C 
ATOM     38  C   UNL     1      -2.560  -2.753 134.294  0.00  0.00    +0.000 C 
ATOM     39  N   UNL     1      -2.293  -3.540 135.520  0.00  0.00    +0.000 NA
ATOM     40  C   UNL     1      -1.523  -4.738 135.190  0.00  0.00    +0.000 C 
ATOM     41  C   UNL     1      -3.569  -3.931 136.163  0.00  0.00    +0.000 C 
ATOM     42  C   UNL     1      -4.588  -4.562 135.193  0.00  0.00    +0.000 C 
ENDBRANCH  35  36
ENDBRANCH  33  35
ENDBRANCH  28  31
ENDBRANCH  23  25
ENDBRANCH  10  23
TORSDOF 8
ENDMDL
MODEL 4
REMARK VINA RESULT:      -9.0      7.442     11.188
REMARK  Name = Nintedanib
REMARK  11 active torsions:
REMARK  status: ('A' for Active; 'I' for Inactive)
REMARK    1  A    between atoms: C_1  and  O_2
REMARK    2  A    between atoms: O_2  and  C_3
REMARK    3  A    between atoms: C_3  and  C_5
REMARK    4  A    between atoms: C_14  and  N_15
REMARK    5  A    between atoms: C_14  and  C_34
REMARK    6  A    between atoms: N_15  and  C_16
REMARK    7  A    between atoms: C_19  and  N_22
REMARK    8  A    between atoms: N_22  and  C_23
REMARK    9  A    between atoms: C_24  and  C_26
REMARK   10  A    between atoms: C_26  and  N_27
REMARK   11  A    between atoms: N_30  and  C_31
REMARK                            x       y       z     vdW  Elec       q    Type
REMARK                         _______ _______ _______ _____ _____    ______ ____
ROOT
ATOM      1  C   UNL     1     -10.683   6.752 131.104  0.00  0.00    +0.000 A 
ATOM      2  C   UNL     1      -9.597   6.898 130.216  0.00  0.00    +0.000 A 
ATOM      3  C   UNL     1      -8.283   6.563 130.606  0.00  0.00    +0.000 A 
ATOM      4  C   UNL     1      -8.069   6.096 131.889  0.00  0.00    +0.000 A 
ATOM      5  C   UNL     1      -9.189   5.881 132.707  0.00  0.00    +0.000 A 
ATOM      6  N   UNL     1      -8.825   5.391 133.944  0.00  0.00    +0.000 N 
ATOM      7  C   UNL     1      -7.485   5.570 134.120  0.00  0.00    +0.000 C 
ATOM      8  O   UNL     1      -7.003   5.736 135.236  0.00  0.00    +0.000 OA
ATOM      9  C   UNL     1      -6.885   5.766 132.730  0.00  0.00    +0.000 C 
ATOM     10  C   UNL     1      -5.554   5.639 132.459  0.00  0.00    +0.000 C 
ATOM     11  C   UNL     1     -10.481   6.223 132.374  0.00  0.00    +0.000 A 
ATOM     12  H   UNL     1      -9.425   5.253 134.741  0.00  0.00    +0.000 HD
ENDROOT
BRANCH  10  13
ATOM     13  C   UNL     1      -5.004   6.184 131.167  0.00  0.00    +0.000 A 
ATOM     14  C   UNL     1      -4.703   5.376 130.058  0.00  0.00    +0.000 A 
ATOM     15  C   UNL     1      -4.067   5.917 128.924  0.00  0.00    +0.000 A 
ATOM     16  C   UNL     1      -3.810   7.285 128.840  0.00  0.00    +0.000 A 
ATOM     17  C   UNL     1      -4.127   8.105 129.916  0.00  0.00    +0.000 A 
ATOM     18  C   UNL     1      -4.684   7.553 131.076  0.00  0.00    +0.000 A 
ENDBRANCH  10  13
BRANCH   1  19
ATOM     19  C   UNL     1     -12.050   7.212 130.772  0.00  0.00    +0.000 C 
ATOM     20  O   UNL     1     -12.991   7.093 131.541  0.00  0.00    +0.000 OA
BRANCH  19  22
ATOM     21  C   UNL     1     -12.694   9.002 129.419  0.00  0.00    +0.000 C 
ATOM     22  O   UNL     1     -12.098   7.701 129.509  0.00  0.00    +0.000 OA
ENDBRANCH  19  22
ENDBRANCH   1  19
BRANCH  10  23
ATOM     23  N   UNL     1      -4.569   5.115 133.315  0.00  0.00    +0.000 N 
ATOM     24  H   UNL     1      -4.661   4.146 133.598  0.00  0.00    +0.000 HD
BRANCH  23  25
ATOM     25  C   UNL     1      -3.442   5.790 133.833  0.00  0.00    +0.000 A 
ATOM     26  C   UNL     1      -2.165   5.592 133.304  0.00  0.00    +0.000 A 
ATOM     27  C   UNL     1      -1.094   6.448 133.653  0.00  0.00    +0.000 A 
ATOM     28  C   UNL     1      -1.287   7.614 134.421  0.00  0.00    +0.000 A 
ATOM     29  C   UNL     1      -2.572   7.776 134.946  0.00  0.00    +0.000 A 
ATOM     30  C   UNL     1      -3.600   6.851 134.724  0.00  0.00    +0.000 A 
BRANCH  28  31
ATOM     31  N   UNL     1      -0.245   8.608 134.633  0.00  0.00    +0.000 N 
ATOM     32  C   UNL     1       0.803   8.328 135.626  0.00  0.00    +0.000 C 
ATOM     33  C   UNL     1      -0.198   9.816 133.885  0.00  0.00    +0.000 C 
ATOM     34  O   UNL     1      -0.970  10.147 132.976  0.00  0.00    +0.000 OA
BRANCH  33  35
ATOM     35  C   UNL     1       0.903  10.842 134.193  0.00  0.00    +0.000 C 
BRANCH  35  36
ATOM     36  N   UNL     1       0.426  11.909 135.068  0.00  0.00    +0.000 NA
ATOM     37  C   UNL     1       0.211  13.157 134.334  0.00  0.00    +0.000 C 
ATOM     38  C   UNL     1      -0.414  14.216 135.266  0.00  0.00    +0.000 C 
ATOM     39  N   UNL     1       0.346  14.465 136.513  0.00  0.00    +0.000 NA
ATOM     40  C   UNL     1       1.568  15.211 136.217  0.00  0.00    +0.000 C 
ATOM     41  C   UNL     1       0.695  13.180 137.162  0.00  0.00    +0.000 C 
ATOM     42  C   UNL     1       1.330  12.150 136.206  0.00  0.00    +0.000 C 
ENDBRANCH  35  36
ENDBRANCH  33  35
ENDBRANCH  28  31
ENDBRANCH  23  25
ENDBRANCH  10  23
TORSDOF 8
ENDMDL
MODEL 5
REMARK VINA RESULT:      -8.8      5.177      9.595
REMARK  Name = Nintedanib
REMARK  11 active torsions:
REMARK  status: ('A' for Active; 'I' for Inactive)
REMARK    1  A    between atoms: C_1  and  O_2
REMARK    2  A    between atoms: O_2  and  C_3
REMARK    3  A    between atoms: C_3  and  C_5
REMARK    4  A    between atoms: C_14  and  N_15
REMARK    5  A    between atoms: C_14  and  C_34
REMARK    6  A    between atoms: N_15  and  C_16
REMARK    7  A    between atoms: C_19  and  N_22
REMARK    8  A    between atoms: N_22  and  C_23
REMARK    9  A    between atoms: C_24  and  C_26
REMARK   10  A    between atoms: C_26  and  N_27
REMARK   11  A    between atoms: N_30  and  C_31
REMARK                            x       y       z     vdW  Elec       q    Type
REMARK                         _______ _______ _______ _____ _____    ______ ____
ROOT
ATOM      1  C   UNL     1     -11.073   6.994 130.927  0.00  0.00    +0.000 A 
ATOM      2  C   UNL     1      -9.873   7.233 130.226  0.00  0.00    +0.000 A 
ATOM      3  C   UNL     1      -8.661   6.629 130.622  0.00  0.00    +0.000 A 
ATOM      4  C   UNL     1      -8.662   5.798 131.727  0.00  0.00    +0.000 A 
ATOM      5  C   UNL     1      -9.895   5.517 132.338  0.00  0.00    +0.000 A 
ATOM      6  N   UNL     1      -9.745   4.657 133.406  0.00  0.00    +0.000 N 
ATOM      7  C   UNL     1      -8.427   4.598 133.752  0.00  0.00    +0.000 C 
ATOM      8  O   UNL     1      -8.079   4.379 134.907  0.00  0.00    +0.000 OA
ATOM      9  C   UNL     1      -7.637   5.090 132.542  0.00  0.00    +0.000 C 
ATOM     10  C   UNL     1      -6.302   4.865 132.371  0.00  0.00    +0.000 C 
ATOM     11  C   UNL     1     -11.091   6.109 132.000  0.00  0.00    +0.000 A 
ATOM     12  H   UNL     1     -10.453   4.385 134.068  0.00  0.00    +0.000 HD
ENDROOT
BRANCH  10  13
ATOM     13  C   UNL     1      -5.538   5.669 131.353  0.00  0.00    +0.000 A 
ATOM     14  C   UNL     1      -5.282   5.214 130.048  0.00  0.00    +0.000 A 
ATOM     15  C   UNL     1      -4.450   5.947 129.180  0.00  0.00    +0.000 A 
ATOM     16  C   UNL     1      -3.940   7.186 129.564  0.00  0.00    +0.000 A 
ATOM     17  C   UNL     1      -4.205   7.666 130.841  0.00  0.00    +0.000 A 
ATOM     18  C   UNL     1      -4.965   6.899 131.732  0.00  0.00    +0.000 A 
ENDBRANCH  10  13
BRANCH   1  19
ATOM     19  C   UNL     1     -12.332   7.709 130.618  0.00  0.00    +0.000 C 
ATOM     20  O   UNL     1     -13.195   7.917 131.456  0.00  0.00    +0.000 OA
BRANCH  19  22
ATOM     21  C   UNL     1     -12.812   9.366 129.046  0.00  0.00    +0.000 C 
ATOM     22  O   UNL     1     -12.395   8.018 129.300  0.00  0.00    +0.000 OA
ENDBRANCH  19  22
ENDBRANCH   1  19
BRANCH  10  23
ATOM     23  N   UNL     1      -5.494   3.995 133.125  0.00  0.00    +0.000 N 
ATOM     24  H   UNL     1      -4.958   4.396 133.887  0.00  0.00    +0.000 HD
BRANCH  23  25
ATOM     25  C   UNL     1      -5.339   2.603 132.945  0.00  0.00    +0.000 A 
ATOM     26  C   UNL     1      -6.085   1.684 133.686  0.00  0.00    +0.000 A 
ATOM     27  C   UNL     1      -6.111   0.315 133.330  0.00  0.00    +0.000 A 
ATOM     28  C   UNL     1      -5.519  -0.161 132.143  0.00  0.00    +0.000 A 
ATOM     29  C   UNL     1      -4.770   0.780 131.432  0.00  0.00    +0.000 A 
ATOM     30  C   UNL     1      -4.619   2.105 131.861  0.00  0.00    +0.000 A 
BRANCH  28  31
ATOM     31  N   UNL     1      -5.693  -1.523 131.658  0.00  0.00    +0.000 N 
ATOM     32  C   UNL     1      -4.595  -2.482 131.844  0.00  0.00    +0.000 C 
ATOM     33  C   UNL     1      -6.903  -1.951 131.046  0.00  0.00    +0.000 C 
ATOM     34  O   UNL     1      -7.926  -1.272 130.889  0.00  0.00    +0.000 OA
BRANCH  33  35
ATOM     35  C   UNL     1      -7.001  -3.388 130.515  0.00  0.00    +0.000 C 
BRANCH  35  36
ATOM     36  N   UNL     1      -7.127  -3.426 129.061  0.00  0.00    +0.000 NA
ATOM     37  C   UNL     1      -6.414  -2.317 128.425  0.00  0.00    +0.000 C 
ATOM     38  C   UNL     1      -6.464  -2.468 126.890  0.00  0.00    +0.000 C 
ATOM     39  N   UNL     1      -7.827  -2.606 126.329  0.00  0.00    +0.000 NA
ATOM     40  C   UNL     1      -8.527  -1.323 126.387  0.00  0.00    +0.000 C 
ATOM     41  C   UNL     1      -8.591  -3.623 127.088  0.00  0.00    +0.000 C 
ATOM     42  C   UNL     1      -8.533  -3.433 128.617  0.00  0.00    +0.000 C 
ENDBRANCH  35  36
ENDBRANCH  33  35
ENDBRANCH  28  31
ENDBRANCH  23  25
ENDBRANCH  10  23
TORSDOF 8
ENDMDL
MODEL 6
REMARK VINA RESULT:      -8.7      6.522     10.047
REMARK  Name = Nintedanib
REMARK  11 active torsions:
REMARK  status: ('A' for Active; 'I' for Inactive)
REMARK    1  A    between atoms: C_1  and  O_2
REMARK    2  A    between atoms: O_2  and  C_3
REMARK    3  A    between atoms: C_3  and  C_5
REMARK    4  A    between atoms: C_14  and  N_15
REMARK    5  A    between atoms: C_14  and  C_34
REMARK    6  A    between atoms: N_15  and  C_16
REMARK    7  A    between atoms: C_19  and  N_22
REMARK    8  A    between atoms: N_22  and  C_23
REMARK    9  A    between atoms: C_24  and  C_26
REMARK   10  A    between atoms: C_26  and  N_27
REMARK   11  A    between atoms: N_30  and  C_31
REMARK                            x       y       z     vdW  Elec       q    Type
REMARK                         _______ _______ _______ _____ _____    ______ ____
ROOT
ATOM      1  C   UNL     1      -1.335  11.601 134.209  0.00  0.00    +0.000 A 
ATOM      2  C   UNL     1      -1.600  11.191 132.885  0.00  0.00    +0.000 A 
ATOM      3  C   UNL     1      -2.139   9.917 132.608  0.00  0.00    +0.000 A 
ATOM      4  C   UNL     1      -2.398   9.060 133.662  0.00  0.00    +0.000 A 
ATOM      5  C   UNL     1      -2.206   9.544 134.966  0.00  0.00    +0.000 A 
ATOM      6  N   UNL     1      -2.528   8.592 135.910  0.00  0.00    +0.000 N 
ATOM      7  C   UNL     1      -2.620   7.374 135.305  0.00  0.00    +0.000 C 
ATOM      8  O   UNL     1      -2.364   6.338 135.910  0.00  0.00    +0.000 OA
ATOM      9  C   UNL     1      -2.822   7.641 133.816  0.00  0.00    +0.000 C 
ATOM     10  C   UNL     1      -3.288   6.707 132.938  0.00  0.00    +0.000 C 
ATOM     11  C   UNL     1      -1.653  10.767 135.275  0.00  0.00    +0.000 A 
ATOM     12  H   UNL     1      -2.380   8.652 136.904  0.00  0.00    +0.000 HD
ENDROOT
BRANCH  10  13
ATOM     13  C   UNL     1      -3.126   6.932 131.457  0.00  0.00    +0.000 A 
ATOM     14  C   UNL     1      -4.018   7.703 130.694  0.00  0.00    +0.000 A 
ATOM     15  C   UNL     1      -3.894   7.771 129.293  0.00  0.00    +0.000 A 
ATOM     16  C   UNL     1      -2.827   7.153 128.644  0.00  0.00    +0.000 A 
ATOM     17  C   UNL     1      -1.918   6.409 129.385  0.00  0.00    +0.000 A 
ATOM     18  C   UNL     1      -2.088   6.273 130.769  0.00  0.00    +0.000 A 
ENDBRANCH  10  13
BRANCH   1  19
ATOM     19  C   UNL     1      -0.652  12.875 134.527  0.00  0.00    +0.000 C 
ATOM     20  O   UNL     1      -0.807  13.460 135.588  0.00  0.00    +0.000 OA
BRANCH  19  22
ATOM     21  C   UNL     1       1.498  13.223 133.687  0.00  0.00    +0.000 C 
ATOM     22  O   UNL     1       0.083  13.301 133.471  0.00  0.00    +0.000 OA
ENDBRANCH  19  22
ENDBRANCH   1  19
BRANCH  10  23
ATOM     23  N   UNL     1      -3.851   5.459 133.260  0.00  0.00    +0.000 N 
ATOM     24  H   UNL     1      -3.265   4.794 133.752  0.00  0.00    +0.000 HD
BRANCH  23  25
ATOM     25  C   UNL     1      -5.162   5.015 132.978  0.00  0.00    +0.000 A 
ATOM     26  C   UNL     1      -6.256   5.448 133.728  0.00  0.00    +0.000 A 
ATOM     27  C   UNL     1      -7.579   5.204 133.290  0.00  0.00    +0.000 A 
ATOM     28  C   UNL     1      -7.859   4.654 132.023  0.00  0.00    +0.000 A 
ATOM     29  C   UNL     1      -6.742   4.219 131.303  0.00  0.00    +0.000 A 
ATOM     30  C   UNL     1      -5.437   4.325 131.799  0.00  0.00    +0.000 A 
BRANCH  28  31
ATOM     31  N   UNL     1      -9.204   4.569 131.471  0.00  0.00    +0.000 N 
ATOM     32  C   UNL     1      -9.726   3.249 131.091  0.00  0.00    +0.000 C 
ATOM     33  C   UNL     1     -10.028   5.719 131.327  0.00  0.00    +0.000 C 
ATOM     34  O   UNL     1      -9.743   6.873 131.669  0.00  0.00    +0.000 OA
BRANCH  33  35
ATOM     35  C   UNL     1     -11.419   5.563 130.695  0.00  0.00    +0.000 C 
BRANCH  35  36
ATOM     36  N   UNL     1     -11.731   6.661 129.784  0.00  0.00    +0.000 NA
ATOM     37  C   UNL     1     -13.036   6.481 129.145  0.00  0.00    +0.000 C 
ATOM     38  C   UNL     1     -13.381   7.722 128.294  0.00  0.00    +0.000 C 
ATOM     39  N   UNL     1     -12.353   8.089 127.294  0.00  0.00    +0.000 NA
ATOM     40  C   UNL     1     -12.360   7.130 126.190  0.00  0.00    +0.000 C 
ATOM     41  C   UNL     1     -11.013   8.111 127.925  0.00  0.00    +0.000 C 
ATOM     42  C   UNL     1     -10.694   6.850 128.754  0.00  0.00    +0.000 C 
ENDBRANCH  35  36
ENDBRANCH  33  35
ENDBRANCH  28  31
ENDBRANCH  23  25
ENDBRANCH  10  23
TORSDOF 8
ENDMDL
MODEL 7
REMARK VINA RESULT:      -8.7      4.560      7.910
REMARK  Name = Nintedanib
REMARK  11 active torsions:
REMARK  status: ('A' for Active; 'I' for Inactive)
REMARK    1  A    between atoms: C_1  and  O_2
REMARK    2  A    between atoms: O_2  and  C_3
REMARK    3  A    between atoms: C_3  and  C_5
REMARK    4  A    between atoms: C_14  and  N_15
REMARK    5  A    between atoms: C_14  and  C_34
REMARK    6  A    between atoms: N_15  and  C_16
REMARK    7  A    between atoms: C_19  and  N_22
REMARK    8  A    between atoms: N_22  and  C_23
REMARK    9  A    between atoms: C_24  and  C_26
REMARK   10  A    between atoms: C_26  and  N_27
REMARK   11  A    between atoms: N_30  and  C_31
REMARK                            x       y       z     vdW  Elec       q    Type
REMARK                         _______ _______ _______ _____ _____    ______ ____
ROOT
ATOM      1  C   UNL     1      -5.835   4.271 121.247  0.00  0.00    +0.000 A 
ATOM      2  C   UNL     1      -4.832   4.583 122.188  0.00  0.00    +0.000 A 
ATOM      3  C   UNL     1      -4.927   4.153 123.529  0.00  0.00    +0.000 A 
ATOM      4  C   UNL     1      -6.035   3.422 123.916  0.00  0.00    +0.000 A 
ATOM      5  C   UNL     1      -6.962   3.057 122.926  0.00  0.00    +0.000 A 
ATOM      6  N   UNL     1      -7.996   2.312 123.453  0.00  0.00    +0.000 N 
ATOM      7  C   UNL     1      -7.986   2.429 124.811  0.00  0.00    +0.000 C 
ATOM      8  O   UNL     1      -9.019   2.347 125.468  0.00  0.00    +0.000 OA
ATOM      9  C   UNL     1      -6.587   2.903 125.197  0.00  0.00    +0.000 C 
ATOM     10  C   UNL     1      -6.084   2.815 126.463  0.00  0.00    +0.000 C 
ATOM     11  C   UNL     1      -6.919   3.482 121.617  0.00  0.00    +0.000 A 
ATOM     12  H   UNL     1      -8.833   2.019 122.977  0.00  0.00    +0.000 HD
ENDROOT
BRANCH  10  13
ATOM     13  C   UNL     1      -4.860   3.612 126.832  0.00  0.00    +0.000 A 
ATOM     14  C   UNL     1      -3.555   3.099 126.750  0.00  0.00    +0.000 A 
ATOM     15  C   UNL     1      -2.459   3.839 127.233  0.00  0.00    +0.000 A 
ATOM     16  C   UNL     1      -2.635   5.135 127.715  0.00  0.00    +0.000 A 
ATOM     17  C   UNL     1      -3.915   5.671 127.778  0.00  0.00    +0.000 A 
ATOM     18  C   UNL     1      -5.014   4.903 127.374  0.00  0.00    +0.000 A 
ENDBRANCH  10  13
BRANCH   1  19
ATOM     19  C   UNL     1      -5.831   4.812 119.869  0.00  0.00    +0.000 C 
ATOM     20  O   UNL     1      -5.260   5.849 119.570  0.00  0.00    +0.000 OA
BRANCH  19  22
ATOM     21  C   UNL     1      -7.515   4.786 118.253  0.00  0.00    +0.000 C 
ATOM     22  O   UNL     1      -6.584   4.040 119.049  0.00  0.00    +0.000 OA
ENDBRANCH  19  22
ENDBRANCH   1  19
BRANCH  10  23
ATOM     23  N   UNL     1      -6.643   2.107 127.541  0.00  0.00    +0.000 N 
ATOM     24  H   UNL     1      -7.592   2.339 127.813  0.00  0.00    +0.000 HD
BRANCH  23  25
ATOM     25  C   UNL     1      -6.029   1.089 128.304  0.00  0.00    +0.000 A 
ATOM     26  C   UNL     1      -5.838   1.223 129.681  0.00  0.00    +0.000 A 
ATOM     27  C   UNL     1      -5.459   0.114 130.472  0.00  0.00    +0.000 A 
ATOM     28  C   UNL     1      -5.400  -1.194 129.950  0.00  0.00    +0.000 A 
ATOM     29  C   UNL     1      -5.583  -1.291 128.568  0.00  0.00    +0.000 A 
ATOM     30  C   UNL     1      -5.813  -0.174 127.756  0.00  0.00    +0.000 A 
BRANCH  28  31
ATOM     31  N   UNL     1      -5.201  -2.374 130.779  0.00  0.00    +0.000 N 
ATOM     32  C   UNL     1      -6.377  -3.018 131.381  0.00  0.00    +0.000 C 
ATOM     33  C   UNL     1      -3.910  -2.933 130.988  0.00  0.00    +0.000 C 
ATOM     34  O   UNL     1      -2.850  -2.537 130.489  0.00  0.00    +0.000 OA
BRANCH  33  35
ATOM     35  C   UNL     1      -3.767  -4.152 131.912  0.00  0.00    +0.000 C 
BRANCH  35  36
ATOM     36  N   UNL     1      -2.885  -3.879 133.042  0.00  0.00    +0.000 NA
ATOM     37  C   UNL     1      -2.640  -5.082 133.841  0.00  0.00    +0.000 C 
ATOM     38  C   UNL     1      -1.604  -4.780 134.944  0.00  0.00    +0.000 C 
ATOM     39  N   UNL     1      -1.947  -3.632 135.815  0.00  0.00    +0.000 NA
ATOM     40  C   UNL     1      -3.041  -3.994 136.716  0.00  0.00    +0.000 C 
ATOM     41  C   UNL     1      -2.348  -2.469 134.991  0.00  0.00    +0.000 C 
ATOM     42  C   UNL     1      -3.395  -2.802 133.908  0.00  0.00    +0.000 C 
ENDBRANCH  35  36
ENDBRANCH  33  35
ENDBRANCH  28  31
ENDBRANCH  23  25
ENDBRANCH  10  23
TORSDOF 8
ENDMDL
MODEL 8
REMARK VINA RESULT:      -8.6      6.080      9.980
REMARK  Name = Nintedanib
REMARK  11 active torsions:
REMARK  status: ('A' for Active; 'I' for Inactive)
REMARK    1  A    between atoms: C_1  and  O_2
REMARK    2  A    between atoms: O_2  and  C_3
REMARK    3  A    between atoms: C_3  and  C_5
REMARK    4  A    between atoms: C_14  and  N_15
REMARK    5  A    between atoms: C_14  and  C_34
REMARK    6  A    between atoms: N_15  and  C_16
REMARK    7  A    between atoms: C_19  and  N_22
REMARK    8  A    between atoms: N_22  and  C_23
REMARK    9  A    between atoms: C_24  and  C_26
REMARK   10  A    between atoms: C_26  and  N_27
REMARK   11  A    between atoms: N_30  and  C_31
REMARK                            x       y       z     vdW  Elec       q    Type
REMARK                         _______ _______ _______ _____ _____    ______ ____
ROOT
ATOM      1  C   UNL     1     -10.678   6.787 131.120  0.00  0.00    +0.000 A 
ATOM      2  C   UNL     1      -9.579   6.938 130.248  0.00  0.00    +0.000 A 
ATOM      3  C   UNL     1      -8.275   6.573 130.644  0.00  0.00    +0.000 A 
ATOM      4  C   UNL     1      -8.083   6.069 131.918  0.00  0.00    +0.000 A 
ATOM      5  C   UNL     1      -9.216   5.850 132.717  0.00  0.00    +0.000 A 
ATOM      6  N   UNL     1      -8.875   5.323 133.944  0.00  0.00    +0.000 N 
ATOM      7  C   UNL     1      -7.534   5.477 134.140  0.00  0.00    +0.000 C 
ATOM      8  O   UNL     1      -7.063   5.605 135.266  0.00  0.00    +0.000 OA
ATOM      9  C   UNL     1      -6.915   5.699 132.763  0.00  0.00    +0.000 C 
ATOM     10  C   UNL     1      -5.583   5.558 132.504  0.00  0.00    +0.000 C 
ATOM     11  C   UNL     1     -10.499   6.221 132.378  0.00  0.00    +0.000 A 
ATOM     12  H   UNL     1      -9.487   5.174 134.730  0.00  0.00    +0.000 HD
ENDROOT
BRANCH  10  13
ATOM     13  C   UNL     1      -5.010   6.128 131.233  0.00  0.00    +0.000 A 
ATOM     14  C   UNL     1      -4.815   5.366 130.068  0.00  0.00    +0.000 A 
ATOM     15  C   UNL     1      -4.153   5.914 128.953  0.00  0.00    +0.000 A 
ATOM     16  C   UNL     1      -3.762   7.253 128.946  0.00  0.00    +0.000 A 
ATOM     17  C   UNL     1      -3.972   8.029 130.078  0.00  0.00    +0.000 A 
ATOM     18  C   UNL     1      -4.556   7.461 131.217  0.00  0.00    +0.000 A 
ENDBRANCH  10  13
BRANCH   1  19
ATOM     19  C   UNL     1     -12.034   7.277 130.785  0.00  0.00    +0.000 C 
ATOM     20  O   UNL     1     -12.981   7.172 131.549  0.00  0.00    +0.000 OA
BRANCH  19  22
ATOM     21  C   UNL     1     -12.710   9.051 129.427  0.00  0.00    +0.000 C 
ATOM     22  O   UNL     1     -12.065   7.774 129.525  0.00  0.00    +0.000 OA
ENDBRANCH  19  22
ENDBRANCH   1  19
BRANCH  10  23
ATOM     23  N   UNL     1      -4.616   4.996 133.357  0.00  0.00    +0.000 N 
ATOM     24  H   UNL     1      -4.024   5.634 133.877  0.00  0.00    +0.000 HD
BRANCH  23  25
ATOM     25  C   UNL     1      -4.370   3.624 133.581  0.00  0.00    +0.000 A 
ATOM     26  C   UNL     1      -4.601   3.035 134.826  0.00  0.00    +0.000 A 
ATOM     27  C   UNL     1      -4.595   1.628 134.975  0.00  0.00    +0.000 A 
ATOM     28  C   UNL     1      -4.505   0.758 133.871  0.00  0.00    +0.000 A 
ATOM     29  C   UNL     1      -4.261   1.378 132.643  0.00  0.00    +0.000 A 
ATOM     30  C   UNL     1      -4.119   2.765 132.512  0.00  0.00    +0.000 A 
BRANCH  28  31
ATOM     31  N   UNL     1      -4.687  -0.683 133.976  0.00  0.00    +0.000 N 
ATOM     32  C   UNL     1      -3.496  -1.536 134.086  0.00  0.00    +0.000 C 
ATOM     33  C   UNL     1      -5.980  -1.274 134.011  0.00  0.00    +0.000 C 
ATOM     34  O   UNL     1      -7.062  -0.674 133.996  0.00  0.00    +0.000 OA
BRANCH  33  35
ATOM     35  C   UNL     1      -6.099  -2.804 134.075  0.00  0.00    +0.000 C 
BRANCH  35  36
ATOM     36  N   UNL     1      -6.380  -3.386 132.767  0.00  0.00    +0.000 NA
ATOM     37  C   UNL     1      -5.213  -4.080 132.219  0.00  0.00    +0.000 C 
ATOM     38  C   UNL     1      -5.591  -4.788 130.901  0.00  0.00    +0.000 C 
ATOM     39  N   UNL     1      -6.204  -3.906 129.881  0.00  0.00    +0.000 NA
ATOM     40  C   UNL     1      -5.191  -3.024 129.305  0.00  0.00    +0.000 C 
ATOM     41  C   UNL     1      -7.281  -3.093 130.492  0.00  0.00    +0.000 C 
ATOM     42  C   UNL     1      -6.865  -2.387 131.798  0.00  0.00    +0.000 C 
ENDBRANCH  35  36
ENDBRANCH  33  35
ENDBRANCH  28  31
ENDBRANCH  23  25
ENDBRANCH  10  23
TORSDOF 8
ENDMDL
MODEL 9
REMARK VINA RESULT:      -8.5      5.538      8.661
REMARK  Name = Nintedanib
REMARK  11 active torsions:
REMARK  status: ('A' for Active; 'I' for Inactive)
REMARK    1  A    between atoms: C_1  and  O_2
REMARK    2  A    between atoms: O_2  and  C_3
REMARK    3  A    between atoms: C_3  and  C_5
REMARK    4  A    between atoms: C_14  and  N_15
REMARK    5  A    between atoms: C_14  and  C_34
REMARK    6  A    between atoms: N_15  and  C_16
REMARK    7  A    between atoms: C_19  and  N_22
REMARK    8  A    between atoms: N_22  and  C_23
REMARK    9  A    between atoms: C_24  and  C_26
REMARK   10  A    between atoms: C_26  and  N_27
REMARK   11  A    between atoms: N_30  and  C_31
REMARK                            x       y       z     vdW  Elec       q    Type
REMARK                         _______ _______ _______ _____ _____    ______ ____
ROOT
ATOM      1  C   UNL     1      -6.920   2.138 123.662  0.00  0.00    +0.000 A 
ATOM      2  C   UNL     1      -6.382   2.359 124.947  0.00  0.00    +0.000 A 
ATOM      3  C   UNL     1      -6.583   1.434 125.994  0.00  0.00    +0.000 A 
ATOM      4  C   UNL     1      -7.332   0.298 125.743  0.00  0.00    +0.000 A 
ATOM      5  C   UNL     1      -7.769   0.075 124.428  0.00  0.00    +0.000 A 
ATOM      6  N   UNL     1      -8.478  -1.104 124.325  0.00  0.00    +0.000 N 
ATOM      7  C   UNL     1      -8.822  -1.530 125.573  0.00  0.00    +0.000 C 
ATOM      8  O   UNL     1      -9.841  -2.186 125.767  0.00  0.00    +0.000 OA
ATOM      9  C   UNL     1      -7.883  -0.826 126.549  0.00  0.00    +0.000 C 
ATOM     10  C   UNL     1      -7.686  -1.236 127.835  0.00  0.00    +0.000 C 
ATOM     11  C   UNL     1      -7.620   0.967 123.390  0.00  0.00    +0.000 A 
ATOM     12  H   UNL     1      -8.982  -1.438 123.520  0.00  0.00    +0.000 HD
ENDROOT
BRANCH  10  13
ATOM     13  C   UNL     1      -7.033  -0.303 128.821  0.00  0.00    +0.000 A 
ATOM     14  C   UNL     1      -5.659  -0.334 129.115  0.00  0.00    +0.000 A 
ATOM     15  C   UNL     1      -5.125   0.469 130.140  0.00  0.00    +0.000 A 
ATOM     16  C   UNL     1      -5.930   1.383 130.819  0.00  0.00    +0.000 A 
ATOM     17  C   UNL     1      -7.285   1.448 130.523  0.00  0.00    +0.000 A 
ATOM     18  C   UNL     1      -7.832   0.591 129.560  0.00  0.00    +0.000 A 
ENDBRANCH  10  13
BRANCH   1  19
ATOM     19  C   UNL     1      -6.838   3.145 122.581  0.00  0.00    +0.000 C 
ATOM     20  O   UNL     1      -7.731   3.310 121.764  0.00  0.00    +0.000 OA
BRANCH  19  22
ATOM     21  C   UNL     1      -5.189   4.200 121.311  0.00  0.00    +0.000 C 
ATOM     22  O   UNL     1      -5.639   3.776 122.603  0.00  0.00    +0.000 OA
ENDBRANCH  19  22
ENDBRANCH   1  19
BRANCH  10  23
ATOM     23  N   UNL     1      -8.117  -2.447 128.406  0.00  0.00    +0.000 N 
ATOM     24  H   UNL     1      -8.906  -2.914 127.974  0.00  0.00    +0.000 HD
BRANCH  23  25
ATOM     25  C   UNL     1      -7.568  -3.105 129.529  0.00  0.00    +0.000 A 
ATOM     26  C   UNL     1      -6.483  -3.975 129.407  0.00  0.00    +0.000 A 
ATOM     27  C   UNL     1      -5.785  -4.428 130.550  0.00  0.00    +0.000 A 
ATOM     28  C   UNL     1      -6.045  -3.919 131.838  0.00  0.00    +0.000 A 
ATOM     29  C   UNL     1      -7.144  -3.061 131.928  0.00  0.00    +0.000 A 
ATOM     30  C   UNL     1      -7.932  -2.724 130.820  0.00  0.00    +0.000 A 
BRANCH  28  31
ATOM     31  N   UNL     1      -5.218  -4.224 132.997  0.00  0.00    +0.000 N 
ATOM     32  C   UNL     1      -5.880  -4.575 134.261  0.00  0.00    +0.000 C 
ATOM     33  C   UNL     1      -3.797  -4.226 132.924  0.00  0.00    +0.000 C 
ATOM     34  O   UNL     1      -3.115  -4.019 131.914  0.00  0.00    +0.000 OA
BRANCH  33  35
ATOM     35  C   UNL     1      -2.987  -4.512 134.197  0.00  0.00    +0.000 C 
BRANCH  35  36
ATOM     36  N   UNL     1      -1.755  -3.729 134.247  0.00  0.00    +0.000 NA
ATOM     37  C   UNL     1      -0.799  -4.284 135.207  0.00  0.00    +0.000 C 
ATOM     38  C   UNL     1       0.532  -3.507 135.135  0.00  0.00    +0.000 C 
ATOM     39  N   UNL     1       0.402  -2.042 135.310  0.00  0.00    +0.000 NA
ATOM     40  C   UNL     1       0.108  -1.728 136.708  0.00  0.00    +0.000 C 
ATOM     41  C   UNL     1      -0.682  -1.520 134.446  0.00  0.00    +0.000 C 
ATOM     42  C   UNL     1      -2.002  -2.309 134.554  0.00  0.00    +0.000 C 
ENDBRANCH  35  36
ENDBRANCH  33  35
ENDBRANCH  28  31
ENDBRANCH  23  25
ENDBRANCH  10  23
TORSDOF 8
ENDMDL
