MODEL 1
REMARK VINA RESULT:      -8.0      0.000      0.000
REMARK  Name = Niraparib
REMARK  3 active torsions:
REMARK  status: ('A' for Active; 'I' for Inactive)
REMARK    1  A    between atoms: C_2  and  C_4
REMARK    2  A    between atoms: N_10  and  C_13
REMARK    3  A    between atoms: C_16  and  C_19
REMARK                            x       y       z     vdW  Elec       q    Type
REMARK                         _______ _______ _______ _____ _____    ______ ____
ROOT
ATOM      1  C   UNL     1     -11.913   7.147 128.735  0.00  0.00    +0.000 A 
ATOM      2  C   UNL     1     -13.082   7.480 129.472  0.00  0.00    +0.000 A 
ATOM      3  C   UNL     1     -13.162   7.386 130.892  0.00  0.00    +0.000 A 
ATOM      4  C   UNL     1     -12.104   6.926 131.702  0.00  0.00    +0.000 A 
ATOM      5  C   UNL     1     -10.979   6.590 130.950  0.00  0.00    +0.000 A 
ATOM      6  C   UNL     1      -9.807   6.100 131.454  0.00  0.00    +0.000 A 
ATOM      7  N   UNL     1      -8.963   5.992 130.370  0.00  0.00    +0.000 N 
ATOM      8  N   UNL     1      -9.542   6.398 129.211  0.00  0.00    +0.000 NA
ATOM      9  C   UNL     1     -10.819   6.702 129.516  0.00  0.00    +0.000 A 
ENDROOT
BRANCH   7  10
ATOM     10  C   UNL     1      -7.624   5.539 130.394  0.00  0.00    +0.000 A 
ATOM     11  C   UNL     1      -6.714   6.082 131.310  0.00  0.00    +0.000 A 
ATOM     12  C   UNL     1      -5.360   5.719 131.267  0.00  0.00    +0.000 A 
ATOM     13  C   UNL     1      -4.906   4.779 130.338  0.00  0.00    +0.000 A 
ATOM     14  C   UNL     1      -5.870   4.169 129.512  0.00  0.00    +0.000 A 
ATOM     15  C   UNL     1      -7.207   4.558 129.503  0.00  0.00    +0.000 A 
BRANCH  13  16
ATOM     16  C   UNL     1      -3.430   4.369 130.327  0.00  0.00    +0.000 C 
ATOM     17  C   UNL     1      -2.472   5.296 131.107  0.00  0.00    +0.000 C 
ATOM     18  C   UNL     1      -2.244   6.625 130.392  0.00  0.00    +0.000 C 
ATOM     19  C   UNL     1      -1.894   6.413 128.913  0.00  0.00    +0.000 C 
ATOM     20  N   UNL     1      -2.830   5.535 128.214  0.00  0.00    +0.000 NA
ATOM     21  C   UNL     1      -2.950   4.229 128.869  0.00  0.00    +0.000 C 
ATOM     22  H   UNL     1      -2.601   5.433 127.230  0.00  0.00    +0.000 HD
ENDBRANCH  13  16
ENDBRANCH   7  10
BRANCH   1  24
ATOM     23  N   UNL     1     -10.881   7.985 126.727  0.00  0.00    +0.000 N 
ATOM     24  C   UNL     1     -11.888   7.237 127.273  0.00  0.00    +0.000 C 
ATOM     25  O   UNL     1     -12.744   6.714 126.564  0.00  0.00    +0.000 OA
ATOM     26  H   UNL     1     -10.823   8.005 125.716  0.00  0.00    +0.000 HD
ATOM     27  H   UNL     1     -10.110   8.362 127.261  0.00  0.00    +0.000 HD
ENDBRANCH   1  24
TORSDOF 3
ENDMDL
MODEL 2
REMARK VINA RESULT:      -7.8      3.404      3.855
REMARK  Name = Niraparib
REMARK  3 active torsions:
REMARK  status: ('A' for Active; 'I' for Inactive)
REMARK    1  A    between atoms: C_2  and  C_4
REMARK    2  A    between atoms: N_10  and  C_13
REMARK    3  A    between atoms: C_16  and  C_19
REMARK                            x       y       z     vdW  Elec       q    Type
REMARK                         _______ _______ _______ _____ _____    ______ ____
ROOT
ATOM      1  C   UNL     1     -11.886   7.513 128.128  0.00  0.00    +0.000 A 
ATOM      2  C   UNL     1     -12.667   8.672 128.385  0.00  0.00    +0.000 A 
ATOM      3  C   UNL     1     -13.034   9.090 129.697  0.00  0.00    +0.000 A 
ATOM      4  C   UNL     1     -12.684   8.383 130.865  0.00  0.00    +0.000 A 
ATOM      5  C   UNL     1     -11.934   7.242 130.579  0.00  0.00    +0.000 A 
ATOM      6  C   UNL     1     -11.466   6.351 131.503  0.00  0.00    +0.000 A 
ATOM      7  N   UNL     1     -10.720   5.443 130.785  0.00  0.00    +0.000 N 
ATOM      8  N   UNL     1     -10.687   5.722 129.456  0.00  0.00    +0.000 NA
ATOM      9  C   UNL     1     -11.494   6.787 129.278  0.00  0.00    +0.000 A 
ENDROOT
BRANCH   7  10
ATOM     10  C   UNL     1     -10.020   4.332 131.310  0.00  0.00    +0.000 A 
ATOM     11  C   UNL     1      -9.412   4.414 132.569  0.00  0.00    +0.000 A 
ATOM     12  C   UNL     1      -8.624   3.359 133.050  0.00  0.00    +0.000 A 
ATOM     13  C   UNL     1      -8.468   2.190 132.298  0.00  0.00    +0.000 A 
ATOM     14  C   UNL     1      -9.189   2.096 131.092  0.00  0.00    +0.000 A 
ATOM     15  C   UNL     1      -9.930   3.157 130.574  0.00  0.00    +0.000 A 
BRANCH  13  16
ATOM     16  C   UNL     1      -7.632   1.033 132.853  0.00  0.00    +0.000 C 
ATOM     17  C   UNL     1      -6.518   1.428 133.847  0.00  0.00    +0.000 C 
ATOM     18  C   UNL     1      -5.346   2.119 133.157  0.00  0.00    +0.000 C 
ATOM     19  C   UNL     1      -4.878   1.331 131.925  0.00  0.00    +0.000 C 
ATOM     20  N   UNL     1      -5.963   0.985 131.010  0.00  0.00    +0.000 NA
ATOM     21  C   UNL     1      -7.027   0.233 131.682  0.00  0.00    +0.000 C 
ATOM     22  H   UNL     1      -5.630   0.493 130.186  0.00  0.00    +0.000 HD
ENDBRANCH  13  16
ENDBRANCH   7  10
BRANCH   1  24
ATOM     23  N   UNL     1     -12.611   6.924 125.908  0.00  0.00    +0.000 N 
ATOM     24  C   UNL     1     -11.555   7.111 126.758  0.00  0.00    +0.000 C 
ATOM     25  O   UNL     1     -10.402   6.903 126.390  0.00  0.00    +0.000 OA
ATOM     26  H   UNL     1     -12.388   6.702 124.945  0.00  0.00    +0.000 HD
ATOM     27  H   UNL     1     -13.565   7.162 126.138  0.00  0.00    +0.000 HD
ENDBRANCH   1  24
TORSDOF 3
ENDMDL
MODEL 3
REMARK VINA RESULT:      -7.8      9.114     11.492
REMARK  Name = Niraparib
REMARK  3 active torsions:
REMARK  status: ('A' for Active; 'I' for Inactive)
REMARK    1  A    between atoms: C_2  and  C_4
REMARK    2  A    between atoms: N_10  and  C_13
REMARK    3  A    between atoms: C_16  and  C_19
REMARK                            x       y       z     vdW  Elec       q    Type
REMARK                         _______ _______ _______ _____ _____    ______ ____
ROOT
ATOM      1  C   UNL     1      -6.563  -3.647 133.884  0.00  0.00    +0.000 A 
ATOM      2  C   UNL     1      -5.555  -4.432 134.505  0.00  0.00    +0.000 A 
ATOM      3  C   UNL     1      -4.619  -5.219 133.774  0.00  0.00    +0.000 A 
ATOM      4  C   UNL     1      -4.617  -5.321 132.368  0.00  0.00    +0.000 A 
ATOM      5  C   UNL     1      -5.628  -4.555 131.789  0.00  0.00    +0.000 A 
ATOM      6  C   UNL     1      -5.885  -4.467 130.449  0.00  0.00    +0.000 A 
ATOM      7  N   UNL     1      -6.904  -3.546 130.336  0.00  0.00    +0.000 N 
ATOM      8  N   UNL     1      -7.295  -3.044 131.536  0.00  0.00    +0.000 NA
ATOM      9  C   UNL     1      -6.580  -3.704 132.469  0.00  0.00    +0.000 A 
ENDROOT
BRANCH   7  10
ATOM     10  C   UNL     1      -7.507  -3.108 129.135  0.00  0.00    +0.000 A 
ATOM     11  C   UNL     1      -8.441  -3.922 128.479  0.00  0.00    +0.000 A 
ATOM     12  C   UNL     1      -8.961  -3.545 127.233  0.00  0.00    +0.000 A 
ATOM     13  C   UNL     1      -8.589  -2.333 126.645  0.00  0.00    +0.000 A 
ATOM     14  C   UNL     1      -7.741  -1.488 127.388  0.00  0.00    +0.000 A 
ATOM     15  C   UNL     1      -7.171  -1.872 128.600  0.00  0.00    +0.000 A 
BRANCH  13  16
ATOM     16  C   UNL     1      -9.193  -1.921 125.300  0.00  0.00    +0.000 C 
ATOM     17  C   UNL     1      -9.140  -2.991 124.187  0.00  0.00    +0.000 C 
ATOM     18  C   UNL     1      -7.729  -3.190 123.642  0.00  0.00    +0.000 C 
ATOM     19  C   UNL     1      -7.068  -1.849 123.296  0.00  0.00    +0.000 C 
ATOM     20  N   UNL     1      -7.136  -0.870 124.379  0.00  0.00    +0.000 NA
ATOM     21  C   UNL     1      -8.515  -0.626 124.811  0.00  0.00    +0.000 C 
ATOM     22  H   UNL     1      -6.665  -0.001 124.143  0.00  0.00    +0.000 HD
ENDBRANCH  13  16
ENDBRANCH   7  10
BRANCH   1  24
ATOM     23  N   UNL     1      -8.843  -3.172 134.500  0.00  0.00    +0.000 N 
ATOM     24  C   UNL     1      -7.520  -2.873 134.680  0.00  0.00    +0.000 C 
ATOM     25  O   UNL     1      -7.171  -1.970 135.436  0.00  0.00    +0.000 OA
ATOM     26  H   UNL     1      -9.505  -2.682 135.088  0.00  0.00    +0.000 HD
ATOM     27  H   UNL     1      -9.171  -3.957 133.956  0.00  0.00    +0.000 HD
ENDBRANCH   1  24
TORSDOF 3
ENDMDL
MODEL 4
REMARK VINA RESULT:      -7.6      2.226      2.730
REMARK  Name = Niraparib
REMARK  3 active torsions:
REMARK  status: ('A' for Active; 'I' for Inactive)
REMARK    1  A    between atoms: C_2  and  C_4
REMARK    2  A    between atoms: N_10  and  C_13
REMARK    3  A    between atoms: C_16  and  C_19
REMARK                            x       y       z     vdW  Elec       q    Type
REMARK                         _______ _______ _______ _____ _____    ______ ____
ROOT
ATOM      1  C   UNL     1     -11.205   7.225 128.494  0.00  0.00    +0.000 A 
ATOM      2  C   UNL     1     -12.596   7.236 128.783  0.00  0.00    +0.000 A 
ATOM      3  C   UNL     1     -13.122   7.044 130.094  0.00  0.00    +0.000 A 
ATOM      4  C   UNL     1     -12.320   6.796 131.226  0.00  0.00    +0.000 A 
ATOM      5  C   UNL     1     -10.962   6.773 130.907  0.00  0.00    +0.000 A 
ATOM      6  C   UNL     1      -9.946   6.539 131.791  0.00  0.00    +0.000 A 
ATOM      7  N   UNL     1      -8.788   6.692 131.060  0.00  0.00    +0.000 N 
ATOM      8  N   UNL     1      -9.024   7.019 129.763  0.00  0.00    +0.000 NA
ATOM      9  C   UNL     1     -10.363   7.002 129.610  0.00  0.00    +0.000 A 
ENDROOT
BRANCH   7  10
ATOM     10  C   UNL     1      -7.467   6.561 131.547  0.00  0.00    +0.000 A 
ATOM     11  C   UNL     1      -6.397   7.123 130.837  0.00  0.00    +0.000 A 
ATOM     12  C   UNL     1      -5.076   6.904 131.253  0.00  0.00    +0.000 A 
ATOM     13  C   UNL     1      -4.808   6.159 132.405  0.00  0.00    +0.000 A 
ATOM     14  C   UNL     1      -5.912   5.711 133.156  0.00  0.00    +0.000 A 
ATOM     15  C   UNL     1      -7.228   5.871 132.728  0.00  0.00    +0.000 A 
BRANCH  13  16
ATOM     16  C   UNL     1      -3.360   5.959 132.864  0.00  0.00    +0.000 C 
ATOM     17  C   UNL     1      -3.139   5.949 134.392  0.00  0.00    +0.000 C 
ATOM     18  C   UNL     1      -3.280   7.339 135.006  0.00  0.00    +0.000 C 
ATOM     19  C   UNL     1      -2.462   8.380 134.230  0.00  0.00    +0.000 C 
ATOM     20  N   UNL     1      -2.709   8.358 132.790  0.00  0.00    +0.000 NA
ATOM     21  C   UNL     1      -2.465   7.032 132.213  0.00  0.00    +0.000 C 
ATOM     22  H   UNL     1      -2.184   9.074 132.298  0.00  0.00    +0.000 HD
ENDBRANCH  13  16
ENDBRANCH   7  10
BRANCH   1  24
ATOM     23  N   UNL     1      -9.816   6.473 126.676  0.00  0.00    +0.000 N 
ATOM     24  C   UNL     1     -10.714   7.403 127.125  0.00  0.00    +0.000 C 
ATOM     25  O   UNL     1     -11.045   8.354 126.423  0.00  0.00    +0.000 OA
ATOM     26  H   UNL     1      -9.516   6.557 125.712  0.00  0.00    +0.000 HD
ATOM     27  H   UNL     1      -9.579   5.632 127.183  0.00  0.00    +0.000 HD
ENDBRANCH   1  24
TORSDOF 3
ENDMDL
MODEL 5
REMARK VINA RESULT:      -7.5      2.544      8.006
REMARK  Name = Niraparib
REMARK  3 active torsions:
REMARK  status: ('A' for Active; 'I' for Inactive)
REMARK    1  A    between atoms: C_2  and  C_4
REMARK    2  A    between atoms: N_10  and  C_13
REMARK    3  A    between atoms: C_16  and  C_19
REMARK                            x       y       z     vdW  Elec       q    Type
REMARK                         _______ _______ _______ _____ _____    ______ ____
ROOT
ATOM      1  C   UNL     1      -3.578   6.346 130.239  0.00  0.00    +0.000 A 
ATOM      2  C   UNL     1      -2.522   6.049 131.142  0.00  0.00    +0.000 A 
ATOM      3  C   UNL     1      -2.732   5.773 132.524  0.00  0.00    +0.000 A 
ATOM      4  C   UNL     1      -4.001   5.797 133.138  0.00  0.00    +0.000 A 
ATOM      5  C   UNL     1      -5.013   6.109 132.231  0.00  0.00    +0.000 A 
ATOM      6  C   UNL     1      -6.341   6.222 132.535  0.00  0.00    +0.000 A 
ATOM      7  N   UNL     1      -6.969   6.459 131.332  0.00  0.00    +0.000 N 
ATOM      8  N   UNL     1      -6.105   6.491 130.285  0.00  0.00    +0.000 NA
ATOM      9  C   UNL     1      -4.872   6.357 130.813  0.00  0.00    +0.000 A 
ENDROOT
BRANCH   7  10
ATOM     10  C   UNL     1      -8.358   6.634 131.133  0.00  0.00    +0.000 A 
ATOM     11  C   UNL     1      -9.271   6.156 132.081  0.00  0.00    +0.000 A 
ATOM     12  C   UNL     1     -10.650   6.228 131.840  0.00  0.00    +0.000 A 
ATOM     13  C   UNL     1     -11.137   6.816 130.669  0.00  0.00    +0.000 A 
ATOM     14  C   UNL     1     -10.194   7.391 129.795  0.00  0.00    +0.000 A 
ATOM     15  C   UNL     1      -8.819   7.279 129.992  0.00  0.00    +0.000 A 
BRANCH  13  16
ATOM     16  C   UNL     1     -12.647   6.917 130.437  0.00  0.00    +0.000 C 
ATOM     17  C   UNL     1     -13.118   6.681 128.985  0.00  0.00    +0.000 C 
ATOM     18  C   UNL     1     -12.765   7.847 128.066  0.00  0.00    +0.000 C 
ATOM     19  C   UNL     1     -13.180   9.190 128.681  0.00  0.00    +0.000 C 
ATOM     20  N   UNL     1     -12.708   9.373 130.051  0.00  0.00    +0.000 NA
ATOM     21  C   UNL     1     -13.150   8.287 130.932  0.00  0.00    +0.000 C 
ATOM     22  H   UNL     1     -12.964  10.280 130.430  0.00  0.00    +0.000 HD
ENDBRANCH  13  16
ENDBRANCH   7  10
BRANCH   1  24
ATOM     23  N   UNL     1      -2.003   6.558 128.428  0.00  0.00    +0.000 N 
ATOM     24  C   UNL     1      -3.308   6.647 128.830  0.00  0.00    +0.000 C 
ATOM     25  O   UNL     1      -4.187   7.007 128.051  0.00  0.00    +0.000 OA
ATOM     26  H   UNL     1      -1.817   6.708 127.444  0.00  0.00    +0.000 HD
ATOM     27  H   UNL     1      -1.263   6.188 129.007  0.00  0.00    +0.000 HD
ENDBRANCH   1  24
TORSDOF 3
ENDMDL
MODEL 6
REMARK VINA RESULT:      -7.5      5.634      7.416
REMARK  Name = Niraparib
REMARK  3 active torsions:
REMARK  status: ('A' for Active; 'I' for Inactive)
REMARK    1  A    between atoms: C_2  and  C_4
REMARK    2  A    between atoms: N_10  and  C_13
REMARK    3  A    between atoms: C_16  and  C_19
REMARK                            x       y       z     vdW  Elec       q    Type
REMARK                         _______ _______ _______ _____ _____    ______ ____
ROOT
ATOM      1  C   UNL     1      -8.893  -0.281 123.668  0.00  0.00    +0.000 A 
ATOM      2  C   UNL     1      -9.012  -1.621 123.209  0.00  0.00    +0.000 A 
ATOM      3  C   UNL     1      -8.048  -2.631 123.491  0.00  0.00    +0.000 A 
ATOM      4  C   UNL     1      -6.869  -2.398 124.227  0.00  0.00    +0.000 A 
ATOM      5  C   UNL     1      -6.771  -1.072 124.648  0.00  0.00    +0.000 A 
ATOM      6  C   UNL     1      -5.734  -0.543 125.364  0.00  0.00    +0.000 A 
ATOM      7  N   UNL     1      -6.098   0.760 125.621  0.00  0.00    +0.000 N 
ATOM      8  N   UNL     1      -7.316   1.077 125.111  0.00  0.00    +0.000 NA
ATOM      9  C   UNL     1      -7.732  -0.011 124.432  0.00  0.00    +0.000 A 
ENDROOT
BRANCH   7  10
ATOM     10  C   UNL     1      -5.347   1.712 126.349  0.00  0.00    +0.000 A 
ATOM     11  C   UNL     1      -4.942   2.905 125.737  0.00  0.00    +0.000 A 
ATOM     12  C   UNL     1      -4.105   3.803 126.415  0.00  0.00    +0.000 A 
ATOM     13  C   UNL     1      -3.698   3.543 127.726  0.00  0.00    +0.000 A 
ATOM     14  C   UNL     1      -4.221   2.392 128.349  0.00  0.00    +0.000 A 
ATOM     15  C   UNL     1      -5.006   1.462 127.672  0.00  0.00    +0.000 A 
BRANCH  13  16
ATOM     16  C   UNL     1      -2.812   4.551 128.465  0.00  0.00    +0.000 C 
ATOM     17  C   UNL     1      -2.944   4.556 130.004  0.00  0.00    +0.000 C 
ATOM     18  C   UNL     1      -4.261   5.172 130.469  0.00  0.00    +0.000 C 
ATOM     19  C   UNL     1      -4.522   6.520 129.782  0.00  0.00    +0.000 C 
ATOM     20  N   UNL     1      -4.393   6.466 128.328  0.00  0.00    +0.000 NA
ATOM     21  C   UNL     1      -3.079   5.965 127.913  0.00  0.00    +0.000 C 
ATOM     22  H   UNL     1      -4.601   7.358 127.889  0.00  0.00    +0.000 HD
ENDBRANCH  13  16
ENDBRANCH   7  10
BRANCH   1  24
ATOM     23  N   UNL     1      -9.892   1.870 124.084  0.00  0.00    +0.000 N 
ATOM     24  C   UNL     1      -9.899   0.729 123.330  0.00  0.00    +0.000 C 
ATOM     25  O   UNL     1     -10.741   0.555 122.452  0.00  0.00    +0.000 OA
ATOM     26  H   UNL     1     -10.547   2.596 123.820  0.00  0.00    +0.000 HD
ATOM     27  H   UNL     1      -9.172   2.093 124.757  0.00  0.00    +0.000 HD
ENDBRANCH   1  24
TORSDOF 3
ENDMDL
MODEL 7
REMARK VINA RESULT:      -7.3      9.556     11.191
REMARK  Name = Niraparib
REMARK  3 active torsions:
REMARK  status: ('A' for Active; 'I' for Inactive)
REMARK    1  A    between atoms: C_2  and  C_4
REMARK    2  A    between atoms: N_10  and  C_13
REMARK    3  A    between atoms: C_16  and  C_19
REMARK                            x       y       z     vdW  Elec       q    Type
REMARK                         _______ _______ _______ _____ _____    ______ ____
ROOT
ATOM      1  C   UNL     1      -4.939  -3.140 132.655  0.00  0.00    +0.000 A 
ATOM      2  C   UNL     1      -5.519  -3.117 133.953  0.00  0.00    +0.000 A 
ATOM      3  C   UNL     1      -6.920  -2.997 134.179  0.00  0.00    +0.000 A 
ATOM      4  C   UNL     1      -7.867  -2.861 133.143  0.00  0.00    +0.000 A 
ATOM      5  C   UNL     1      -7.267  -2.869 131.884  0.00  0.00    +0.000 A 
ATOM      6  C   UNL     1      -7.925  -2.739 130.693  0.00  0.00    +0.000 A 
ATOM      7  N   UNL     1      -6.955  -2.886 129.726  0.00  0.00    +0.000 N 
ATOM      8  N   UNL     1      -5.722  -3.111 130.247  0.00  0.00    +0.000 NA
ATOM      9  C   UNL     1      -5.860  -3.030 131.586  0.00  0.00    +0.000 A 
ENDROOT
BRANCH   7  10
ATOM     10  C   UNL     1      -7.154  -2.842 128.327  0.00  0.00    +0.000 A 
ATOM     11  C   UNL     1      -8.343  -3.331 127.769  0.00  0.00    +0.000 A 
ATOM     12  C   UNL     1      -8.503  -3.393 126.378  0.00  0.00    +0.000 A 
ATOM     13  C   UNL     1      -7.498  -2.927 125.526  0.00  0.00    +0.000 A 
ATOM     14  C   UNL     1      -6.368  -2.334 126.123  0.00  0.00    +0.000 A 
ATOM     15  C   UNL     1      -6.168  -2.316 127.501  0.00  0.00    +0.000 A 
BRANCH  13  16
ATOM     16  C   UNL     1      -7.703  -2.970 124.009  0.00  0.00    +0.000 C 
ATOM     17  C   UNL     1      -6.815  -2.010 123.186  0.00  0.00    +0.000 C 
ATOM     18  C   UNL     1      -7.243  -0.554 123.336  0.00  0.00    +0.000 C 
ATOM     19  C   UNL     1      -8.755  -0.390 123.128  0.00  0.00    +0.000 C 
ATOM     20  N   UNL     1      -9.555  -1.313 123.930  0.00  0.00    +0.000 NA
ATOM     21  C   UNL     1      -9.188  -2.711 123.687  0.00  0.00    +0.000 C 
ATOM     22  H   UNL     1     -10.553  -1.167 123.803  0.00  0.00    +0.000 HD
ENDBRANCH  13  16
ENDBRANCH   7  10
BRANCH   1  24
ATOM     23  N   UNL     1      -2.902  -2.269 131.710  0.00  0.00    +0.000 N 
ATOM     24  C   UNL     1      -3.489  -3.240 132.475  0.00  0.00    +0.000 C 
ATOM     25  O   UNL     1      -2.827  -4.166 132.938  0.00  0.00    +0.000 OA
ATOM     26  H   UNL     1      -1.894  -2.299 131.629  0.00  0.00    +0.000 HD
ATOM     27  H   UNL     1      -3.388  -1.447 131.380  0.00  0.00    +0.000 HD
ENDBRANCH   1  24
TORSDOF 3
ENDMDL
MODEL 8
REMARK VINA RESULT:      -7.3      5.871      7.568
REMARK  Name = Niraparib
REMARK  3 active torsions:
REMARK  status: ('A' for Active; 'I' for Inactive)
REMARK    1  A    between atoms: C_2  and  C_4
REMARK    2  A    between atoms: N_10  and  C_13
REMARK    3  A    between atoms: C_16  and  C_19
REMARK                            x       y       z     vdW  Elec       q    Type
REMARK                         _______ _______ _______ _____ _____    ______ ____
ROOT
ATOM      1  C   UNL     1      -8.410  -2.493 126.046  0.00  0.00    +0.000 A 
ATOM      2  C   UNL     1      -9.090  -3.581 126.656  0.00  0.00    +0.000 A 
ATOM      3  C   UNL     1      -8.970  -3.898 128.040  0.00  0.00    +0.000 A 
ATOM      4  C   UNL     1      -8.146  -3.185 128.934  0.00  0.00    +0.000 A 
ATOM      5  C   UNL     1      -7.479  -2.135 128.303  0.00  0.00    +0.000 A 
ATOM      6  C   UNL     1      -6.600  -1.280 128.906  0.00  0.00    +0.000 A 
ATOM      7  N   UNL     1      -6.257  -0.368 127.932  0.00  0.00    +0.000 N 
ATOM      8  N   UNL     1      -6.882  -0.600 126.749  0.00  0.00    +0.000 NA
ATOM      9  C   UNL     1      -7.589  -1.735 126.916  0.00  0.00    +0.000 A 
ENDROOT
BRANCH   7  10
ATOM     10  C   UNL     1      -5.376   0.728 128.085  0.00  0.00    +0.000 A 
ATOM     11  C   UNL     1      -4.850   1.038 129.345  0.00  0.00    +0.000 A 
ATOM     12  C   UNL     1      -4.065   2.186 129.526  0.00  0.00    +0.000 A 
ATOM     13  C   UNL     1      -3.759   3.015 128.443  0.00  0.00    +0.000 A 
ATOM     14  C   UNL     1      -4.207   2.607 127.170  0.00  0.00    +0.000 A 
ATOM     15  C   UNL     1      -5.034   1.502 126.983  0.00  0.00    +0.000 A 
BRANCH  13  16
ATOM     16  C   UNL     1      -2.872   4.245 128.651  0.00  0.00    +0.000 C 
ATOM     17  C   UNL     1      -2.741   4.737 130.109  0.00  0.00    +0.000 C 
ATOM     18  C   UNL     1      -4.017   5.408 130.610  0.00  0.00    +0.000 C 
ATOM     19  C   UNL     1      -4.531   6.452 129.608  0.00  0.00    +0.000 C 
ATOM     20  N   UNL     1      -4.645   5.941 128.244  0.00  0.00    +0.000 NA
ATOM     21  C   UNL     1      -3.375   5.395 127.756  0.00  0.00    +0.000 C 
ATOM     22  H   UNL     1      -5.017   6.635 127.603  0.00  0.00    +0.000 HD
ENDBRANCH  13  16
ENDBRANCH   7  10
BRANCH   1  24
ATOM     23  N   UNL     1      -7.407  -1.843 123.954  0.00  0.00    +0.000 N 
ATOM     24  C   UNL     1      -8.545  -2.221 124.612  0.00  0.00    +0.000 C 
ATOM     25  O   UNL     1      -9.624  -2.280 124.028  0.00  0.00    +0.000 OA
ATOM     26  H   UNL     1      -7.481  -1.710 122.953  0.00  0.00    +0.000 HD
ATOM     27  H   UNL     1      -6.487  -1.862 124.371  0.00  0.00    +0.000 HD
ENDBRANCH   1  24
TORSDOF 3
ENDMDL
MODEL 9
REMARK VINA RESULT:      -7.2      7.853      9.393
REMARK  Name = Niraparib
REMARK  3 active torsions:
REMARK  status: ('A' for Active; 'I' for Inactive)
REMARK    1  A    between atoms: C_2  and  C_4
REMARK    2  A    between atoms: N_10  and  C_13
REMARK    3  A    between atoms: C_16  and  C_19
REMARK                            x       y       z     vdW  Elec       q    Type
REMARK                         _______ _______ _______ _____ _____    ______ ____
ROOT
ATOM      1  C   UNL     1      -8.654   0.426 124.590  0.00  0.00    +0.000 A 
ATOM      2  C   UNL     1      -9.217   0.120 123.322  0.00  0.00    +0.000 A 
ATOM      3  C   UNL     1      -9.319  -1.207 122.813  0.00  0.00    +0.000 A 
ATOM      4  C   UNL     1      -8.846  -2.343 123.501  0.00  0.00    +0.000 A 
ATOM      5  C   UNL     1      -8.284  -2.009 124.732  0.00  0.00    +0.000 A 
ATOM      6  C   UNL     1      -7.727  -2.894 125.614  0.00  0.00    +0.000 A 
ATOM      7  N   UNL     1      -7.380  -2.140 126.713  0.00  0.00    +0.000 N 
ATOM      8  N   UNL     1      -7.697  -0.827 126.572  0.00  0.00    +0.000 NA
ATOM      9  C   UNL     1      -8.188  -0.692 125.324  0.00  0.00    +0.000 A 
ENDROOT
BRANCH   7  10
ATOM     10  C   UNL     1      -6.778  -2.617 127.900  0.00  0.00    +0.000 A 
ATOM     11  C   UNL     1      -5.402  -2.452 128.107  0.00  0.00    +0.000 A 
ATOM     12  C   UNL     1      -4.779  -3.018 129.228  0.00  0.00    +0.000 A 
ATOM     13  C   UNL     1      -5.527  -3.719 130.178  0.00  0.00    +0.000 A 
ATOM     14  C   UNL     1      -6.923  -3.763 129.997  0.00  0.00    +0.000 A 
ATOM     15  C   UNL     1      -7.550  -3.255 128.862  0.00  0.00    +0.000 A 
BRANCH  13  16
ATOM     16  C   UNL     1      -4.835  -4.302 131.414  0.00  0.00    +0.000 C 
ATOM     17  C   UNL     1      -5.775  -4.861 132.505  0.00  0.00    +0.000 C 
ATOM     18  C   UNL     1      -6.499  -3.755 133.268  0.00  0.00    +0.000 C 
ATOM     19  C   UNL     1      -5.523  -2.667 133.736  0.00  0.00    +0.000 C 
ATOM     20  N   UNL     1      -4.659  -2.164 132.671  0.00  0.00    +0.000 NA
ATOM     21  C   UNL     1      -3.901  -3.240 132.025  0.00  0.00    +0.000 C 
ATOM     22  H   UNL     1      -4.043  -1.422 132.992  0.00  0.00    +0.000 HD
ENDBRANCH  13  16
ENDBRANCH   7  10
BRANCH   1  24
ATOM     23  N   UNL     1      -7.423   2.128 125.768  0.00  0.00    +0.000 N 
ATOM     24  C   UNL     1      -8.549   1.810 125.060  0.00  0.00    +0.000 C 
ATOM     25  O   UNL     1      -9.437   2.639 124.876  0.00  0.00    +0.000 OA
ATOM     26  H   UNL     1      -7.316   3.096 126.046  0.00  0.00    +0.000 HD
ATOM     27  H   UNL     1      -6.632   1.507 125.872  0.00  0.00    +0.000 HD
ENDBRANCH   1  24
TORSDOF 3
ENDMDL
