MODEL 1
REMARK VINA RESULT:      -8.2      0.000      0.000
REMARK  Name = Nirmatrelvir
REMARK  14 active torsions:
REMARK  status: ('A' for Active; 'I' for Inactive)
REMARK    1  A    between atoms: C_5  and  C_6
REMARK    2  A    between atoms: N_8  and  C_9
REMARK    3  A    between atoms: C_9  and  C_10
REMARK    4  A    between atoms: C_9  and  C_18
REMARK    5  A    between atoms: C_10  and  C_11
REMARK    6  A    between atoms: C_22  and  C_23
REMARK    7  A    between atoms: C_22  and  C_24
REMARK    8  A    between atoms: C_25  and  C_27
REMARK    9  A    between atoms: C_27  and  N_28
REMARK   10  A    between atoms: C_27  and  C_35
REMARK   11  A    between atoms: C_29  and  C_31
REMARK   12  A    between atoms: C_35  and  C_36
REMARK   13  A    between atoms: C_35  and  C_37
REMARK   14  A    between atoms: C_35  and  C_38
REMARK                            x       y       z     vdW  Elec       q    Type
REMARK                         _______ _______ _______ _____ _____    ______ ____
ROOT
ATOM      1  C   UNL     1      -4.066   4.928 132.315  0.00  0.00    +0.000 C 
ATOM      2  C   UNL     1      -5.489   5.313 132.239  0.00  0.00    +0.000 C 
ATOM      3  N   UNL     1      -5.975   5.241 130.883  0.00  0.00    +0.000 N 
ATOM      4  C   UNL     1      -4.901   5.676 130.029  0.00  0.00    +0.000 C 
ATOM      5  C   UNL     1      -3.626   4.974 130.910  0.00  0.00    +0.000 C 
ATOM      6  C   UNL     1      -2.781   5.673 131.904  0.00  0.00    +0.000 C 
ATOM      7  C   UNL     1      -2.617   7.129 131.666  0.00  0.00    +0.000 C 
ATOM      8  C   UNL     1      -1.470   5.002 132.255  0.00  0.00    +0.000 C 
ATOM      9  C   UNL     1      -7.269   4.998 130.454  0.00  0.00    +0.000 C 
ATOM     10  O   UNL     1      -7.516   4.901 129.250  0.00  0.00    +0.000 OA
ENDROOT
BRANCH   4  11
ATOM     11  C   UNL     1      -4.876   5.062 128.683  0.00  0.00    +0.000 C 
ATOM     12  O   UNL     1      -4.571   6.019 127.995  0.00  0.00    +0.000 OA
ATOM     13  N   UNL     1      -5.019   3.725 128.300  0.00  0.00    +0.000 N 
ATOM     14  H   UNL     1      -5.120   3.138 129.120  0.00  0.00    +0.000 HD
BRANCH  13  15
ATOM     15  C   UNL     1      -4.557   2.827 126.982  0.00  0.00    +0.000 C 
BRANCH  15  16
ATOM     16  C   UNL     1      -3.054   2.972 126.812  0.00  0.00    +0.000 C 
ATOM     17  N   UNL     1      -1.806   3.092 126.670  0.00  0.00    +0.000 NA
ENDBRANCH  15  16
BRANCH  15  18
ATOM     18  C   UNL     1      -5.214   2.996 125.566  0.00  0.00    +0.000 C 
BRANCH  18  19
ATOM     19  C   UNL     1      -6.732   2.740 125.437  0.00  0.00    +0.000 C 
ATOM     20  C   UNL     1      -6.818   1.693 124.406  0.00  0.00    +0.000 C 
ATOM     21  C   UNL     1      -6.825   2.655 123.027  0.00  0.00    +0.000 C 
ATOM     22  N   UNL     1      -7.557   3.753 123.391  0.00  0.00    +0.000 N 
ATOM     23  C   UNL     1      -7.722   3.699 124.754  0.00  0.00    +0.000 C 
ATOM     24  O   UNL     1      -8.672   4.233 125.298  0.00  0.00    +0.000 OA
ATOM     25  H   UNL     1      -8.327   3.967 122.771  0.00  0.00    +0.000 HD
ENDBRANCH  18  19
ENDBRANCH  15  18
ENDBRANCH  13  15
ENDBRANCH   4  11
BRANCH   9  26
ATOM     26  C   UNL     1      -8.455   4.900 131.472  0.00  0.00    +0.000 C 
BRANCH  26  27
ATOM     27  N   UNL     1      -9.616   5.500 130.759  0.00  0.00    +0.000 N 
ATOM     28  C   UNL     1     -10.531   6.365 131.315  0.00  0.00    +0.000 C 
ATOM     29  O   UNL     1     -10.640   6.484 132.560  0.00  0.00    +0.000 OA
ATOM     30  H   UNL     1      -9.951   5.006 129.940  0.00  0.00    +0.000 HD
BRANCH  28  31
ATOM     31  C   UNL     1     -11.489   7.143 130.415  0.00  0.00    +0.000 C 
ATOM     32  F   UNL     1     -12.101   6.389 129.461  0.00  0.00    +0.000 F 
ATOM     33  F   UNL     1     -12.467   7.698 131.174  0.00  0.00    +0.000 F 
ATOM     34  F   UNL     1     -10.865   8.162 129.757  0.00  0.00    +0.000 F 
ENDBRANCH  28  31
ENDBRANCH  26  27
BRANCH  26  35
ATOM     35  C   UNL     1      -8.769   3.392 131.905  0.00  0.00    +0.000 C 
ATOM     36  C   UNL     1      -9.986   2.804 131.147  0.00  0.00    +0.000 C 
ATOM     37  C   UNL     1      -7.556   2.444 131.703  0.00  0.00    +0.000 C 
ATOM     38  C   UNL     1      -9.106   3.337 133.415  0.00  0.00    +0.000 C 
ENDBRANCH  26  35
ENDBRANCH   9  26
TORSDOF 9
ENDMDL
MODEL 2
REMARK VINA RESULT:      -8.0      3.971      7.257
REMARK  Name = Nirmatrelvir
REMARK  14 active torsions:
REMARK  status: ('A' for Active; 'I' for Inactive)
REMARK    1  A    between atoms: C_5  and  C_6
REMARK    2  A    between atoms: N_8  and  C_9
REMARK    3  A    between atoms: C_9  and  C_10
REMARK    4  A    between atoms: C_9  and  C_18
REMARK    5  A    between atoms: C_10  and  C_11
REMARK    6  A    between atoms: C_22  and  C_23
REMARK    7  A    between atoms: C_22  and  C_24
REMARK    8  A    between atoms: C_25  and  C_27
REMARK    9  A    between atoms: C_27  and  N_28
REMARK   10  A    between atoms: C_27  and  C_35
REMARK   11  A    between atoms: C_29  and  C_31
REMARK   12  A    between atoms: C_35  and  C_36
REMARK   13  A    between atoms: C_35  and  C_37
REMARK   14  A    between atoms: C_35  and  C_38
REMARK                            x       y       z     vdW  Elec       q    Type
REMARK                         _______ _______ _______ _____ _____    ______ ____
ROOT
ATOM      1  C   UNL     1      -6.577   1.322 130.665  0.00  0.00    +0.000 C 
ATOM      2  C   UNL     1      -6.740   1.205 129.203  0.00  0.00    +0.000 C 
ATOM      3  N   UNL     1      -7.670   2.188 128.703  0.00  0.00    +0.000 N 
ATOM      4  C   UNL     1      -8.705   2.328 129.694  0.00  0.00    +0.000 C 
ATOM      5  C   UNL     1      -7.712   2.169 131.067  0.00  0.00    +0.000 C 
ATOM      6  C   UNL     1      -7.498   0.921 131.833  0.00  0.00    +0.000 C 
ATOM      7  C   UNL     1      -8.637  -0.031 131.800  0.00  0.00    +0.000 C 
ATOM      8  C   UNL     1      -6.930   1.082 133.227  0.00  0.00    +0.000 C 
ATOM      9  C   UNL     1      -7.706   2.763 127.444  0.00  0.00    +0.000 C 
ATOM     10  O   UNL     1      -8.529   3.646 127.188  0.00  0.00    +0.000 OA
ENDROOT
BRANCH   4  11
ATOM     11  C   UNL     1      -9.327   3.668 129.772  0.00  0.00    +0.000 C 
ATOM     12  O   UNL     1     -10.503   3.374 129.882  0.00  0.00    +0.000 OA
ATOM     13  N   UNL     1      -8.735   4.933 129.847  0.00  0.00    +0.000 N 
ATOM     14  H   UNL     1      -7.727   4.843 129.879  0.00  0.00    +0.000 HD
BRANCH  13  15
ATOM     15  C   UNL     1      -9.216   6.421 130.405  0.00  0.00    +0.000 C 
BRANCH  15  16
ATOM     16  C   UNL     1      -9.316   6.350 131.920  0.00  0.00    +0.000 C 
ATOM     17  N   UNL     1      -9.399   6.291 133.177  0.00  0.00    +0.000 NA
ENDBRANCH  15  16
BRANCH  15  18
ATOM     18  C   UNL     1     -10.501   7.152 129.877  0.00  0.00    +0.000 C 
BRANCH  18  19
ATOM     19  C   UNL     1     -10.458   7.755 128.455  0.00  0.00    +0.000 C 
ATOM     20  C   UNL     1     -11.480   8.814 128.499  0.00  0.00    +0.000 C 
ATOM     21  C   UNL     1     -12.843   7.909 128.116  0.00  0.00    +0.000 C 
ATOM     22  N   UNL     1     -12.391   7.002 127.194  0.00  0.00    +0.000 N 
ATOM     23  C   UNL     1     -11.018   7.065 127.200  0.00  0.00    +0.000 C 
ATOM     24  O   UNL     1     -10.368   6.753 126.219  0.00  0.00    +0.000 OA
ATOM     25  H   UNL     1     -12.919   6.984 126.332  0.00  0.00    +0.000 HD
ENDBRANCH  18  19
ENDBRANCH  15  18
ENDBRANCH  13  15
ENDBRANCH   4  11
BRANCH   9  26
ATOM     26  C   UNL     1      -6.755   2.272 126.301  0.00  0.00    +0.000 C 
BRANCH  26  27
ATOM     27  N   UNL     1      -7.592   2.306 125.071  0.00  0.00    +0.000 N 
ATOM     28  C   UNL     1      -8.405   1.285 124.633  0.00  0.00    +0.000 C 
ATOM     29  O   UNL     1      -8.276   0.117 125.073  0.00  0.00    +0.000 OA
ATOM     30  H   UNL     1      -7.309   2.956 124.346  0.00  0.00    +0.000 HD
BRANCH  28  31
ATOM     31  C   UNL     1      -9.436   1.549 123.537  0.00  0.00    +0.000 C 
ATOM     32  F   UNL     1      -9.197   2.667 122.799  0.00  0.00    +0.000 F 
ATOM     33  F   UNL     1      -9.455   0.500 122.677  0.00  0.00    +0.000 F 
ATOM     34  F   UNL     1     -10.698   1.680 124.036  0.00  0.00    +0.000 F 
ENDBRANCH  28  31
ENDBRANCH  26  27
BRANCH  26  35
ATOM     35  C   UNL     1      -5.462   3.202 126.137  0.00  0.00    +0.000 C 
ATOM     36  C   UNL     1      -5.377   3.848 124.732  0.00  0.00    +0.000 C 
ATOM     37  C   UNL     1      -5.393   4.327 127.205  0.00  0.00    +0.000 C 
ATOM     38  C   UNL     1      -4.179   2.356 126.326  0.00  0.00    +0.000 C 
ENDBRANCH  26  35
ENDBRANCH   9  26
TORSDOF 9
ENDMDL
MODEL 3
REMARK VINA RESULT:      -8.0      2.925      4.138
REMARK  Name = Nirmatrelvir
REMARK  14 active torsions:
REMARK  status: ('A' for Active; 'I' for Inactive)
REMARK    1  A    between atoms: C_5  and  C_6
REMARK    2  A    between atoms: N_8  and  C_9
REMARK    3  A    between atoms: C_9  and  C_10
REMARK    4  A    between atoms: C_9  and  C_18
REMARK    5  A    between atoms: C_10  and  C_11
REMARK    6  A    between atoms: C_22  and  C_23
REMARK    7  A    between atoms: C_22  and  C_24
REMARK    8  A    between atoms: C_25  and  C_27
REMARK    9  A    between atoms: C_27  and  N_28
REMARK   10  A    between atoms: C_27  and  C_35
REMARK   11  A    between atoms: C_29  and  C_31
REMARK   12  A    between atoms: C_35  and  C_36
REMARK   13  A    between atoms: C_35  and  C_37
REMARK   14  A    between atoms: C_35  and  C_38
REMARK                            x       y       z     vdW  Elec       q    Type
REMARK                         _______ _______ _______ _____ _____    ______ ____
ROOT
ATOM      1  C   UNL     1      -4.768   3.717 129.243  0.00  0.00    +0.000 C 
ATOM      2  C   UNL     1      -5.943   4.279 129.937  0.00  0.00    +0.000 C 
ATOM      3  N   UNL     1      -7.164   3.946 129.246  0.00  0.00    +0.000 N 
ATOM      4  C   UNL     1      -6.873   3.989 127.837  0.00  0.00    +0.000 C 
ATOM      5  C   UNL     1      -5.300   3.345 127.921  0.00  0.00    +0.000 C 
ATOM      6  C   UNL     1      -4.049   4.135 127.946  0.00  0.00    +0.000 C 
ATOM      7  C   UNL     1      -4.127   5.444 127.251  0.00  0.00    +0.000 C 
ATOM      8  C   UNL     1      -2.779   3.384 127.606  0.00  0.00    +0.000 C 
ATOM      9  C   UNL     1      -8.433   3.801 129.781  0.00  0.00    +0.000 C 
ATOM     10  O   UNL     1      -9.372   3.445 129.065  0.00  0.00    +0.000 OA
ENDROOT
BRANCH   4  11
ATOM     11  C   UNL     1      -7.667   3.063 127.000  0.00  0.00    +0.000 C 
ATOM     12  O   UNL     1      -8.097   3.824 126.152  0.00  0.00    +0.000 OA
ATOM     13  N   UNL     1      -7.789   1.671 127.062  0.00  0.00    +0.000 N 
ATOM     14  H   UNL     1      -7.192   1.303 127.794  0.00  0.00    +0.000 HD
BRANCH  13  15
ATOM     15  C   UNL     1      -8.204   0.481 125.982  0.00  0.00    +0.000 C 
BRANCH  15  16
ATOM     16  C   UNL     1      -9.516   0.876 125.323  0.00  0.00    +0.000 C 
ATOM     17  N   UNL     1     -10.604   1.202 124.775  0.00  0.00    +0.000 NA
ENDBRANCH  15  16
BRANCH  15  18
ATOM     18  C   UNL     1      -8.311  -1.033 126.383  0.00  0.00    +0.000 C 
BRANCH  18  19
ATOM     19  C   UNL     1      -9.215  -1.947 125.526  0.00  0.00    +0.000 C 
ATOM     20  C   UNL     1      -8.873  -3.301 125.990  0.00  0.00    +0.000 C 
ATOM     21  C   UNL     1      -7.552  -3.615 125.001  0.00  0.00    +0.000 C 
ATOM     22  N   UNL     1      -7.882  -3.028 123.808  0.00  0.00    +0.000 N 
ATOM     23  C   UNL     1      -8.988  -2.243 124.034  0.00  0.00    +0.000 C 
ATOM     24  O   UNL     1      -9.770  -1.982 123.138  0.00  0.00    +0.000 OA
ATOM     25  H   UNL     1      -7.822  -3.643 123.008  0.00  0.00    +0.000 HD
ENDBRANCH  18  19
ENDBRANCH  15  18
ENDBRANCH  13  15
ENDBRANCH   4  11
BRANCH   9  26
ATOM     26  C   UNL     1      -8.722   4.138 131.283  0.00  0.00    +0.000 C 
BRANCH  26  27
ATOM     27  N   UNL     1     -10.045   4.821 131.269  0.00  0.00    +0.000 N 
ATOM     28  C   UNL     1     -10.240   6.173 131.099  0.00  0.00    +0.000 C 
ATOM     29  O   UNL     1      -9.299   6.990 131.246  0.00  0.00    +0.000 OA
ATOM     30  H   UNL     1     -10.808   4.343 131.733  0.00  0.00    +0.000 HD
BRANCH  28  31
ATOM     31  C   UNL     1     -11.639   6.709 130.801  0.00  0.00    +0.000 C 
ATOM     32  F   UNL     1     -12.338   5.980 129.888  0.00  0.00    +0.000 F 
ATOM     33  F   UNL     1     -12.368   6.721 131.945  0.00  0.00    +0.000 F 
ATOM     34  F   UNL     1     -11.612   7.988 130.330  0.00  0.00    +0.000 F 
ENDBRANCH  28  31
ENDBRANCH  26  27
BRANCH  26  35
ATOM     35  C   UNL     1      -8.765   2.832 132.208  0.00  0.00    +0.000 C 
ATOM     36  C   UNL     1     -10.021   1.965 131.944  0.00  0.00    +0.000 C 
ATOM     37  C   UNL     1      -7.505   1.940 132.046  0.00  0.00    +0.000 C 
ATOM     38  C   UNL     1      -8.805   3.246 133.700  0.00  0.00    +0.000 C 
ENDBRANCH  26  35
ENDBRANCH   9  26
TORSDOF 9
ENDMDL
MODEL 4
REMARK VINA RESULT:      -8.0      3.117      4.246
REMARK  Name = Nirmatrelvir
REMARK  14 active torsions:
REMARK  status: ('A' for Active; 'I' for Inactive)
REMARK    1  A    between atoms: C_5  and  C_6
REMARK    2  A    between atoms: N_8  and  C_9
REMARK    3  A    between atoms: C_9  and  C_10
REMARK    4  A    between atoms: C_9  and  C_18
REMARK    5  A    between atoms: C_10  and  C_11
REMARK    6  A    between atoms: C_22  and  C_23
REMARK    7  A    between atoms: C_22  and  C_24
REMARK    8  A    between atoms: C_25  and  C_27
REMARK    9  A    between atoms: C_27  and  N_28
REMARK   10  A    between atoms: C_27  and  C_35
REMARK   11  A    between atoms: C_29  and  C_31
REMARK   12  A    between atoms: C_35  and  C_36
REMARK   13  A    between atoms: C_35  and  C_37
REMARK   14  A    between atoms: C_35  and  C_38
REMARK                            x       y       z     vdW  Elec       q    Type
REMARK                         _______ _______ _______ _____ _____    ______ ____
ROOT
ATOM      1  C   UNL     1      -4.945   3.552 129.006  0.00  0.00    +0.000 C 
ATOM      2  C   UNL     1      -6.152   4.115 129.643  0.00  0.00    +0.000 C 
ATOM      3  N   UNL     1      -7.348   3.495 129.127  0.00  0.00    +0.000 N 
ATOM      4  C   UNL     1      -7.125   3.256 127.725  0.00  0.00    +0.000 C 
ATOM      5  C   UNL     1      -5.480   2.835 127.837  0.00  0.00    +0.000 C 
ATOM      6  C   UNL     1      -4.342   3.750 127.602  0.00  0.00    +0.000 C 
ATOM      7  C   UNL     1      -4.617   4.853 126.648  0.00  0.00    +0.000 C 
ATOM      8  C   UNL     1      -3.000   3.096 127.345  0.00  0.00    +0.000 C 
ATOM      9  C   UNL     1      -8.563   3.326 129.769  0.00  0.00    +0.000 C 
ATOM     10  O   UNL     1      -9.478   2.712 129.214  0.00  0.00    +0.000 OA
ENDROOT
BRANCH   4  11
ATOM     11  C   UNL     1      -7.827   2.079 127.167  0.00  0.00    +0.000 C 
ATOM     12  O   UNL     1      -8.402   2.579 126.217  0.00  0.00    +0.000 OA
ATOM     13  N   UNL     1      -7.753   0.730 127.527  0.00  0.00    +0.000 N 
ATOM     14  H   UNL     1      -7.074   0.606 128.269  0.00  0.00    +0.000 HD
BRANCH  13  15
ATOM     15  C   UNL     1      -8.058  -0.708 126.756  0.00  0.00    +0.000 C 
BRANCH  15  16
ATOM     16  C   UNL     1      -7.926  -1.830 127.772  0.00  0.00    +0.000 C 
ATOM     17  N   UNL     1      -7.816  -2.761 128.616  0.00  0.00    +0.000 NA
ENDBRANCH  15  16
BRANCH  15  18
ATOM     18  C   UNL     1      -7.299  -1.153 125.455  0.00  0.00    +0.000 C 
BRANCH  18  19
ATOM     19  C   UNL     1      -7.762  -2.451 124.756  0.00  0.00    +0.000 C 
ATOM     20  C   UNL     1      -6.576  -2.870 123.990  0.00  0.00    +0.000 C 
ATOM     21  C   UNL     1      -6.818  -1.981 122.585  0.00  0.00    +0.000 C 
ATOM     22  N   UNL     1      -8.176  -2.005 122.406  0.00  0.00    +0.000 N 
ATOM     23  C   UNL     1      -8.730  -2.499 123.562  0.00  0.00    +0.000 C 
ATOM     24  O   UNL     1      -9.810  -3.063 123.555  0.00  0.00    +0.000 OA
ATOM     25  H   UNL     1      -8.472  -2.328 121.495  0.00  0.00    +0.000 HD
ENDBRANCH  18  19
ENDBRANCH  15  18
ENDBRANCH  13  15
ENDBRANCH   4  11
BRANCH   9  26
ATOM     26  C   UNL     1      -8.830   3.954 131.178  0.00  0.00    +0.000 C 
BRANCH  26  27
ATOM     27  N   UNL     1     -10.144   4.642 131.043  0.00  0.00    +0.000 N 
ATOM     28  C   UNL     1     -10.354   5.993 131.198  0.00  0.00    +0.000 C 
ATOM     29  O   UNL     1      -9.506   6.723 131.769  0.00  0.00    +0.000 OA
ATOM     30  H   UNL     1     -10.971   4.072 131.176  0.00  0.00    +0.000 HD
BRANCH  28  31
ATOM     31  C   UNL     1     -11.671   6.617 130.741  0.00  0.00    +0.000 C 
ATOM     32  F   UNL     1     -11.544   7.849 130.178  0.00  0.00    +0.000 F 
ATOM     33  F   UNL     1     -12.251   5.813 129.815  0.00  0.00    +0.000 F 
ATOM     34  F   UNL     1     -12.560   6.753 131.766  0.00  0.00    +0.000 F 
ENDBRANCH  28  31
ENDBRANCH  26  27
BRANCH  26  35
ATOM     35  C   UNL     1      -8.879   2.855 132.341  0.00  0.00    +0.000 C 
ATOM     36  C   UNL     1     -10.002   1.812 132.117  0.00  0.00    +0.000 C 
ATOM     37  C   UNL     1      -7.531   2.103 132.513  0.00  0.00    +0.000 C 
ATOM     38  C   UNL     1      -9.161   3.541 133.700  0.00  0.00    +0.000 C 
ENDBRANCH  26  35
ENDBRANCH   9  26
TORSDOF 9
ENDMDL
MODEL 5
REMARK VINA RESULT:      -7.8      3.371      5.926
REMARK  Name = Nirmatrelvir
REMARK  14 active torsions:
REMARK  status: ('A' for Active; 'I' for Inactive)
REMARK    1  A    between atoms: C_5  and  C_6
REMARK    2  A    between atoms: N_8  and  C_9
REMARK    3  A    between atoms: C_9  and  C_10
REMARK    4  A    between atoms: C_9  and  C_18
REMARK    5  A    between atoms: C_10  and  C_11
REMARK    6  A    between atoms: C_22  and  C_23
REMARK    7  A    between atoms: C_22  and  C_24
REMARK    8  A    between atoms: C_25  and  C_27
REMARK    9  A    between atoms: C_27  and  N_28
REMARK   10  A    between atoms: C_27  and  C_35
REMARK   11  A    between atoms: C_29  and  C_31
REMARK   12  A    between atoms: C_35  and  C_36
REMARK   13  A    between atoms: C_35  and  C_37
REMARK   14  A    between atoms: C_35  and  C_38
REMARK                            x       y       z     vdW  Elec       q    Type
REMARK                         _______ _______ _______ _____ _____    ______ ____
ROOT
ATOM      1  C   UNL     1      -6.522   3.544 124.402  0.00  0.00    +0.000 C 
ATOM      2  C   UNL     1      -7.166   3.977 125.658  0.00  0.00    +0.000 C 
ATOM      3  N   UNL     1      -7.596   2.842 126.438  0.00  0.00    +0.000 N 
ATOM      4  C   UNL     1      -8.063   1.847 125.509  0.00  0.00    +0.000 C 
ATOM      5  C   UNL     1      -6.906   2.127 124.293  0.00  0.00    +0.000 C 
ATOM      6  C   UNL     1      -7.107   2.973 123.096  0.00  0.00    +0.000 C 
ATOM      7  C   UNL     1      -8.511   3.056 122.622  0.00  0.00    +0.000 C 
ATOM      8  C   UNL     1      -6.132   2.760 121.956  0.00  0.00    +0.000 C 
ATOM      9  C   UNL     1      -7.735   2.759 127.813  0.00  0.00    +0.000 C 
ATOM     10  O   UNL     1      -8.051   1.691 128.342  0.00  0.00    +0.000 OA
ENDROOT
BRANCH   4  11
ATOM     11  C   UNL     1      -7.888   0.444 125.947  0.00  0.00    +0.000 C 
ATOM     12  O   UNL     1      -8.970  -0.029 125.652  0.00  0.00    +0.000 OA
ATOM     13  N   UNL     1      -6.754  -0.213 126.434  0.00  0.00    +0.000 N 
ATOM     14  H   UNL     1      -5.960   0.417 126.432  0.00  0.00    +0.000 HD
BRANCH  13  15
ATOM     15  C   UNL     1      -6.255  -1.795 126.505  0.00  0.00    +0.000 C 
BRANCH  15  16
ATOM     16  C   UNL     1      -5.453  -1.984 127.781  0.00  0.00    +0.000 C 
ATOM     17  N   UNL     1      -4.787  -2.141 128.841  0.00  0.00    +0.000 NA
ENDBRANCH  15  16
BRANCH  15  18
ATOM     18  C   UNL     1      -5.465  -2.490 125.340  0.00  0.00    +0.000 C 
BRANCH  18  19
ATOM     19  C   UNL     1      -6.281  -3.195 124.232  0.00  0.00    +0.000 C 
ATOM     20  C   UNL     1      -5.672  -2.697 122.987  0.00  0.00    +0.000 C 
ATOM     21  C   UNL     1      -6.552  -1.280 122.788  0.00  0.00    +0.000 C 
ATOM     22  N   UNL     1      -7.812  -1.607 123.216  0.00  0.00    +0.000 N 
ATOM     23  C   UNL     1      -7.723  -2.826 123.845  0.00  0.00    +0.000 C 
ATOM     24  O   UNL     1      -8.682  -3.574 123.911  0.00  0.00    +0.000 OA
ATOM     25  H   UNL     1      -8.545  -1.406 122.550  0.00  0.00    +0.000 HD
ENDBRANCH  18  19
ENDBRANCH  15  18
ENDBRANCH  13  15
ENDBRANCH   4  11
BRANCH   9  26
ATOM     26  C   UNL     1      -7.555   4.020 128.724  0.00  0.00    +0.000 C 
BRANCH  26  27
ATOM     27  N   UNL     1      -8.792   4.070 129.551  0.00  0.00    +0.000 N 
ATOM     28  C   UNL     1      -9.618   5.163 129.682  0.00  0.00    +0.000 C 
ATOM     29  O   UNL     1      -9.232   6.313 129.357  0.00  0.00    +0.000 OA
ATOM     30  H   UNL     1      -8.859   3.401 130.309  0.00  0.00    +0.000 HD
BRANCH  28  31
ATOM     31  C   UNL     1     -11.003   5.001 130.306  0.00  0.00    +0.000 C 
ATOM     32  F   UNL     1     -11.443   3.714 130.370  0.00  0.00    +0.000 F 
ATOM     33  F   UNL     1     -10.983   5.480 131.575  0.00  0.00    +0.000 F 
ATOM     34  F   UNL     1     -11.958   5.700 129.629  0.00  0.00    +0.000 F 
ENDBRANCH  28  31
ENDBRANCH  26  27
BRANCH  26  35
ATOM     35  C   UNL     1      -6.253   3.928 129.651  0.00  0.00    +0.000 C 
ATOM     36  C   UNL     1      -6.510   3.116 130.946  0.00  0.00    +0.000 C 
ATOM     37  C   UNL     1      -5.034   3.311 128.914  0.00  0.00    +0.000 C 
ATOM     38  C   UNL     1      -5.815   5.348 130.085  0.00  0.00    +0.000 C 
ENDBRANCH  26  35
ENDBRANCH   9  26
TORSDOF 9
ENDMDL
MODEL 6
REMARK VINA RESULT:      -7.8      3.994      7.517
REMARK  Name = Nirmatrelvir
REMARK  14 active torsions:
REMARK  status: ('A' for Active; 'I' for Inactive)
REMARK    1  A    between atoms: C_5  and  C_6
REMARK    2  A    between atoms: N_8  and  C_9
REMARK    3  A    between atoms: C_9  and  C_10
REMARK    4  A    between atoms: C_9  and  C_18
REMARK    5  A    between atoms: C_10  and  C_11
REMARK    6  A    between atoms: C_22  and  C_23
REMARK    7  A    between atoms: C_22  and  C_24
REMARK    8  A    between atoms: C_25  and  C_27
REMARK    9  A    between atoms: C_27  and  N_28
REMARK   10  A    between atoms: C_27  and  C_35
REMARK   11  A    between atoms: C_29  and  C_31
REMARK   12  A    between atoms: C_35  and  C_36
REMARK   13  A    between atoms: C_35  and  C_37
REMARK   14  A    between atoms: C_35  and  C_38
REMARK                            x       y       z     vdW  Elec       q    Type
REMARK                         _______ _______ _______ _____ _____    ______ ____
ROOT
ATOM      1  C   UNL     1      -5.080   4.557 128.609  0.00  0.00    +0.000 C 
ATOM      2  C   UNL     1      -5.583   3.314 127.992  0.00  0.00    +0.000 C 
ATOM      3  N   UNL     1      -6.966   3.087 128.332  0.00  0.00    +0.000 N 
ATOM      4  C   UNL     1      -7.140   3.525 129.692  0.00  0.00    +0.000 C 
ATOM      5  C   UNL     1      -6.104   4.873 129.620  0.00  0.00    +0.000 C 
ATOM      6  C   UNL     1      -4.691   4.894 130.061  0.00  0.00    +0.000 C 
ATOM      7  C   UNL     1      -4.367   3.943 131.154  0.00  0.00    +0.000 C 
ATOM      8  C   UNL     1      -4.087   6.262 130.298  0.00  0.00    +0.000 C 
ATOM      9  C   UNL     1      -7.922   2.406 127.598  0.00  0.00    +0.000 C 
ATOM     10  O   UNL     1      -9.089   2.353 127.995  0.00  0.00    +0.000 OA
ENDROOT
BRANCH   4  11
ATOM     11  C   UNL     1      -8.487   4.042 130.020  0.00  0.00    +0.000 C 
ATOM     12  O   UNL     1      -8.759   3.379 131.004  0.00  0.00    +0.000 OA
ATOM     13  N   UNL     1      -9.208   5.100 129.457  0.00  0.00    +0.000 N 
ATOM     14  H   UNL     1      -8.653   5.557 128.744  0.00  0.00    +0.000 HD
BRANCH  13  15
ATOM     15  C   UNL     1     -10.437   6.088 129.977  0.00  0.00    +0.000 C 
BRANCH  15  16
ATOM     16  C   UNL     1     -10.298   6.270 131.479  0.00  0.00    +0.000 C 
ATOM     17  N   UNL     1     -10.183   6.421 132.726  0.00  0.00    +0.000 NA
ENDBRANCH  15  16
BRANCH  15  18
ATOM     18  C   UNL     1     -11.949   5.797 129.672  0.00  0.00    +0.000 C 
BRANCH  18  19
ATOM     19  C   UNL     1     -12.908   7.002 129.547  0.00  0.00    +0.000 C 
ATOM     20  C   UNL     1     -13.487   6.844 128.203  0.00  0.00    +0.000 C 
ATOM     21  C   UNL     1     -12.314   7.634 127.295  0.00  0.00    +0.000 C 
ATOM     22  N   UNL     1     -11.923   8.678 128.092  0.00  0.00    +0.000 N 
ATOM     23  C   UNL     1     -12.454   8.457 129.340  0.00  0.00    +0.000 C 
ATOM     24  O   UNL     1     -12.681   9.380 130.102  0.00  0.00    +0.000 OA
ATOM     25  H   UNL     1     -11.970   9.584 127.647  0.00  0.00    +0.000 HD
ENDBRANCH  18  19
ENDBRANCH  15  18
ENDBRANCH  13  15
ENDBRANCH   4  11
BRANCH   9  26
ATOM     26  C   UNL     1      -7.542   1.638 126.287  0.00  0.00    +0.000 C 
BRANCH  26  27
ATOM     27  N   UNL     1      -8.246   0.330 126.397  0.00  0.00    +0.000 N 
ATOM     28  C   UNL     1      -7.702  -0.894 126.083  0.00  0.00    +0.000 C 
ATOM     29  O   UNL     1      -6.662  -0.985 125.385  0.00  0.00    +0.000 OA
ATOM     30  H   UNL     1      -9.259   0.356 126.377  0.00  0.00    +0.000 HD
BRANCH  28  31
ATOM     31  C   UNL     1      -8.408  -2.176 126.521  0.00  0.00    +0.000 C 
ATOM     32  F   UNL     1      -8.466  -2.353 127.869  0.00  0.00    +0.000 F 
ATOM     33  F   UNL     1      -9.685  -2.163 126.064  0.00  0.00    +0.000 F 
ATOM     34  F   UNL     1      -7.812  -3.292 126.013  0.00  0.00    +0.000 F 
ENDBRANCH  28  31
ENDBRANCH  26  27
BRANCH  26  35
ATOM     35  C   UNL     1      -7.995   2.419 124.965  0.00  0.00    +0.000 C 
ATOM     36  C   UNL     1      -9.389   1.967 124.463  0.00  0.00    +0.000 C 
ATOM     37  C   UNL     1      -8.013   3.960 125.155  0.00  0.00    +0.000 C 
ATOM     38  C   UNL     1      -6.989   2.143 123.821  0.00  0.00    +0.000 C 
ENDBRANCH  26  35
ENDBRANCH   9  26
TORSDOF 9
ENDMDL
MODEL 7
REMARK VINA RESULT:      -7.8      3.092      4.622
REMARK  Name = Nirmatrelvir
REMARK  14 active torsions:
REMARK  status: ('A' for Active; 'I' for Inactive)
REMARK    1  A    between atoms: C_5  and  C_6
REMARK    2  A    between atoms: N_8  and  C_9
REMARK    3  A    between atoms: C_9  and  C_10
REMARK    4  A    between atoms: C_9  and  C_18
REMARK    5  A    between atoms: C_10  and  C_11
REMARK    6  A    between atoms: C_22  and  C_23
REMARK    7  A    between atoms: C_22  and  C_24
REMARK    8  A    between atoms: C_25  and  C_27
REMARK    9  A    between atoms: C_27  and  N_28
REMARK   10  A    between atoms: C_27  and  C_35
REMARK   11  A    between atoms: C_29  and  C_31
REMARK   12  A    between atoms: C_35  and  C_36
REMARK   13  A    between atoms: C_35  and  C_37
REMARK   14  A    between atoms: C_35  and  C_38
REMARK                            x       y       z     vdW  Elec       q    Type
REMARK                         _______ _______ _______ _____ _____    ______ ____
ROOT
ATOM      1  C   UNL     1      -4.855   3.611 129.240  0.00  0.00    +0.000 C 
ATOM      2  C   UNL     1      -6.079   4.162 129.852  0.00  0.00    +0.000 C 
ATOM      3  N   UNL     1      -7.261   3.618 129.231  0.00  0.00    +0.000 N 
ATOM      4  C   UNL     1      -6.969   3.473 127.829  0.00  0.00    +0.000 C 
ATOM      5  C   UNL     1      -5.344   2.996 127.995  0.00  0.00    +0.000 C 
ATOM      6  C   UNL     1      -4.171   3.891 127.888  0.00  0.00    +0.000 C 
ATOM      7  C   UNL     1      -4.366   5.068 127.004  0.00  0.00    +0.000 C 
ATOM      8  C   UNL     1      -2.836   3.217 127.654  0.00  0.00    +0.000 C 
ATOM      9  C   UNL     1      -8.514   3.439 129.794  0.00  0.00    +0.000 C 
ATOM     10  O   UNL     1      -9.413   2.895 129.149  0.00  0.00    +0.000 OA
ENDROOT
BRANCH   4  11
ATOM     11  C   UNL     1      -7.671   2.361 127.150  0.00  0.00    +0.000 C 
ATOM     12  O   UNL     1      -8.163   2.941 126.199  0.00  0.00    +0.000 OA
ATOM     13  N   UNL     1      -7.666   0.990 127.425  0.00  0.00    +0.000 N 
ATOM     14  H   UNL     1      -7.043   0.794 128.200  0.00  0.00    +0.000 HD
BRANCH  13  15
ATOM     15  C   UNL     1      -7.966  -0.384 126.543  0.00  0.00    +0.000 C 
BRANCH  15  16
ATOM     16  C   UNL     1      -9.081  -0.080 125.556  0.00  0.00    +0.000 C 
ATOM     17  N   UNL     1     -10.006   0.170 124.737  0.00  0.00    +0.000 NA
ENDBRANCH  15  16
BRANCH  15  18
ATOM     18  C   UNL     1      -8.283  -1.769 127.208  0.00  0.00    +0.000 C 
BRANCH  18  19
ATOM     19  C   UNL     1      -7.127  -2.518 127.908  0.00  0.00    +0.000 C 
ATOM     20  C   UNL     1      -7.793  -3.219 129.018  0.00  0.00    +0.000 C 
ATOM     21  C   UNL     1      -7.761  -2.004 130.179  0.00  0.00    +0.000 C 
ATOM     22  N   UNL     1      -6.557  -1.382 129.977  0.00  0.00    +0.000 N 
ATOM     23  C   UNL     1      -6.057  -1.843 128.783  0.00  0.00    +0.000 C 
ATOM     24  O   UNL     1      -4.859  -1.852 128.561  0.00  0.00    +0.000 OA
ATOM     25  H   UNL     1      -5.979  -1.311 130.803  0.00  0.00    +0.000 HD
ENDBRANCH  18  19
ENDBRANCH  15  18
ENDBRANCH  13  15
ENDBRANCH   4  11
BRANCH   9  26
ATOM     26  C   UNL     1      -8.840   3.973 131.230  0.00  0.00    +0.000 C 
BRANCH  26  27
ATOM     27  N   UNL     1     -10.154   4.659 131.089  0.00  0.00    +0.000 N 
ATOM     28  C   UNL     1     -10.363   6.012 131.228  0.00  0.00    +0.000 C 
ATOM     29  O   UNL     1      -9.514   6.748 131.788  0.00  0.00    +0.000 OA
ATOM     30  H   UNL     1     -10.981   4.091 131.230  0.00  0.00    +0.000 HD
BRANCH  28  31
ATOM     31  C   UNL     1     -11.681   6.631 130.765  0.00  0.00    +0.000 C 
ATOM     32  F   UNL     1     -11.555   7.857 130.189  0.00  0.00    +0.000 F 
ATOM     33  F   UNL     1     -12.262   5.817 129.849  0.00  0.00    +0.000 F 
ATOM     34  F   UNL     1     -12.569   6.777 131.790  0.00  0.00    +0.000 F 
ENDBRANCH  28  31
ENDBRANCH  26  27
BRANCH  26  35
ATOM     35  C   UNL     1      -8.924   2.800 132.316  0.00  0.00    +0.000 C 
ATOM     36  C   UNL     1     -10.095   1.825 132.040  0.00  0.00    +0.000 C 
ATOM     37  C   UNL     1      -7.609   1.979 132.415  0.00  0.00    +0.000 C 
ATOM     38  C   UNL     1      -9.157   3.402 133.723  0.00  0.00    +0.000 C 
ENDBRANCH  26  35
ENDBRANCH   9  26
TORSDOF 9
ENDMDL
MODEL 8
REMARK VINA RESULT:      -7.7      4.383      8.068
REMARK  Name = Nirmatrelvir
REMARK  14 active torsions:
REMARK  status: ('A' for Active; 'I' for Inactive)
REMARK    1  A    between atoms: C_5  and  C_6
REMARK    2  A    between atoms: N_8  and  C_9
REMARK    3  A    between atoms: C_9  and  C_10
REMARK    4  A    between atoms: C_9  and  C_18
REMARK    5  A    between atoms: C_10  and  C_11
REMARK    6  A    between atoms: C_22  and  C_23
REMARK    7  A    between atoms: C_22  and  C_24
REMARK    8  A    between atoms: C_25  and  C_27
REMARK    9  A    between atoms: C_27  and  N_28
REMARK   10  A    between atoms: C_27  and  C_35
REMARK   11  A    between atoms: C_29  and  C_31
REMARK   12  A    between atoms: C_35  and  C_36
REMARK   13  A    between atoms: C_35  and  C_37
REMARK   14  A    between atoms: C_35  and  C_38
REMARK                            x       y       z     vdW  Elec       q    Type
REMARK                         _______ _______ _______ _____ _____    ______ ____
ROOT
ATOM      1  C   UNL     1      -4.697   3.941 126.231  0.00  0.00    +0.000 C 
ATOM      2  C   UNL     1      -5.272   2.766 125.547  0.00  0.00    +0.000 C 
ATOM      3  N   UNL     1      -6.151   2.033 126.425  0.00  0.00    +0.000 N 
ATOM      4  C   UNL     1      -5.570   2.086 127.741  0.00  0.00    +0.000 C 
ATOM      5  C   UNL     1      -4.980   3.680 127.652  0.00  0.00    +0.000 C 
ATOM      6  C   UNL     1      -3.595   4.065 127.300  0.00  0.00    +0.000 C 
ATOM      7  C   UNL     1      -2.562   3.060 127.654  0.00  0.00    +0.000 C 
ATOM      8  C   UNL     1      -3.176   5.470 127.679  0.00  0.00    +0.000 C 
ATOM      9  C   UNL     1      -7.241   1.252 126.079  0.00  0.00    +0.000 C 
ATOM     10  O   UNL     1      -7.940   0.738 126.957  0.00  0.00    +0.000 OA
ENDROOT
BRANCH   4  11
ATOM     11  C   UNL     1      -6.537   2.052 128.860  0.00  0.00    +0.000 C 
ATOM     12  O   UNL     1      -6.068   1.164 129.548  0.00  0.00    +0.000 OA
ATOM     13  N   UNL     1      -7.617   2.894 129.143  0.00  0.00    +0.000 N 
ATOM     14  H   UNL     1      -7.669   3.636 128.455  0.00  0.00    +0.000 HD
BRANCH  13  15
ATOM     15  C   UNL     1      -8.459   3.299 130.515  0.00  0.00    +0.000 C 
BRANCH  15  16
ATOM     16  C   UNL     1      -8.957   2.017 131.162  0.00  0.00    +0.000 C 
ATOM     17  N   UNL     1      -9.370   0.954 131.700  0.00  0.00    +0.000 NA
ENDBRANCH  15  16
BRANCH  15  18
ATOM     18  C   UNL     1      -9.649   4.323 130.512  0.00  0.00    +0.000 C 
BRANCH  18  19
ATOM     19  C   UNL     1      -9.332   5.802 130.829  0.00  0.00    +0.000 C 
ATOM     20  C   UNL     1      -9.952   6.012 132.147  0.00  0.00    +0.000 C 
ATOM     21  C   UNL     1     -11.512   6.409 131.667  0.00  0.00    +0.000 C 
ATOM     22  N   UNL     1     -11.331   7.145 130.526  0.00  0.00    +0.000 N 
ATOM     23  C   UNL     1     -10.016   7.003 130.154  0.00  0.00    +0.000 C 
ATOM     24  O   UNL     1      -9.449   7.858 129.498  0.00  0.00    +0.000 OA
ATOM     25  H   UNL     1     -11.786   8.048 130.534  0.00  0.00    +0.000 HD
ENDBRANCH  18  19
ENDBRANCH  15  18
ENDBRANCH  13  15
ENDBRANCH   4  11
BRANCH   9  26
ATOM     26  C   UNL     1      -7.581   0.952 124.581  0.00  0.00    +0.000 C 
BRANCH  26  27
ATOM     27  N   UNL     1      -8.381  -0.304 124.618  0.00  0.00    +0.000 N 
ATOM     28  C   UNL     1      -8.023  -1.493 124.025  0.00  0.00    +0.000 C 
ATOM     29  O   UNL     1      -7.132  -1.537 123.141  0.00  0.00    +0.000 OA
ATOM     30  H   UNL     1      -9.374  -0.204 124.791  0.00  0.00    +0.000 HD
BRANCH  28  31
ATOM     31  C   UNL     1      -8.766  -2.778 124.385  0.00  0.00    +0.000 C 
ATOM     32  F   UNL     1      -9.773  -3.103 123.529  0.00  0.00    +0.000 F 
ATOM     33  F   UNL     1      -7.893  -3.816 124.388  0.00  0.00    +0.000 F 
ATOM     34  F   UNL     1      -9.324  -2.720 125.628  0.00  0.00    +0.000 F 
ENDBRANCH  28  31
ENDBRANCH  26  27
BRANCH  26  35
ATOM     35  C   UNL     1      -8.409   2.135 123.890  0.00  0.00    +0.000 C 
ATOM     36  C   UNL     1      -8.709   3.294 124.873  0.00  0.00    +0.000 C 
ATOM     37  C   UNL     1      -7.695   2.718 122.641  0.00  0.00    +0.000 C 
ATOM     38  C   UNL     1      -9.773   1.599 123.390  0.00  0.00    +0.000 C 
ENDBRANCH  26  35
ENDBRANCH   9  26
TORSDOF 9
ENDMDL
MODEL 9
REMARK VINA RESULT:      -7.7      4.399      8.342
REMARK  Name = Nirmatrelvir
REMARK  14 active torsions:
REMARK  status: ('A' for Active; 'I' for Inactive)
REMARK    1  A    between atoms: C_5  and  C_6
REMARK    2  A    between atoms: N_8  and  C_9
REMARK    3  A    between atoms: C_9  and  C_10
REMARK    4  A    between atoms: C_9  and  C_18
REMARK    5  A    between atoms: C_10  and  C_11
REMARK    6  A    between atoms: C_22  and  C_23
REMARK    7  A    between atoms: C_22  and  C_24
REMARK    8  A    between atoms: C_25  and  C_27
REMARK    9  A    between atoms: C_27  and  N_28
REMARK   10  A    between atoms: C_27  and  C_35
REMARK   11  A    between atoms: C_29  and  C_31
REMARK   12  A    between atoms: C_35  and  C_36
REMARK   13  A    between atoms: C_35  and  C_37
REMARK   14  A    between atoms: C_35  and  C_38
REMARK                            x       y       z     vdW  Elec       q    Type
REMARK                         _______ _______ _______ _____ _____    ______ ____
ROOT
ATOM      1  C   UNL     1      -4.704   4.030 126.270  0.00  0.00    +0.000 C 
ATOM      2  C   UNL     1      -5.281   2.897 125.520  0.00  0.00    +0.000 C 
ATOM      3  N   UNL     1      -6.083   2.060 126.379  0.00  0.00    +0.000 N 
ATOM      4  C   UNL     1      -5.427   2.022 127.659  0.00  0.00    +0.000 C 
ATOM      5  C   UNL     1      -4.894   3.638 127.677  0.00  0.00    +0.000 C 
ATOM      6  C   UNL     1      -3.545   4.102 127.283  0.00  0.00    +0.000 C 
ATOM      7  C   UNL     1      -2.461   3.109 127.490  0.00  0.00    +0.000 C 
ATOM      8  C   UNL     1      -3.149   5.485 127.759  0.00  0.00    +0.000 C 
ATOM      9  C   UNL     1      -7.166   1.272 126.028  0.00  0.00    +0.000 C 
ATOM     10  O   UNL     1      -7.795   0.660 126.895  0.00  0.00    +0.000 OA
ENDROOT
BRANCH   4  11
ATOM     11  C   UNL     1      -6.325   1.858 128.824  0.00  0.00    +0.000 C 
ATOM     12  O   UNL     1      -5.747   0.984 129.444  0.00  0.00    +0.000 OA
ATOM     13  N   UNL     1      -7.453   2.592 129.202  0.00  0.00    +0.000 N 
ATOM     14  H   UNL     1      -7.604   3.355 128.553  0.00  0.00    +0.000 HD
BRANCH  13  15
ATOM     15  C   UNL     1      -8.249   2.864 130.633  0.00  0.00    +0.000 C 
BRANCH  15  16
ATOM     16  C   UNL     1      -9.629   3.414 130.312  0.00  0.00    +0.000 C 
ATOM     17  N   UNL     1     -10.774   3.871 130.046  0.00  0.00    +0.000 NA
ENDBRANCH  15  16
BRANCH  15  18
ATOM     18  C   UNL     1      -7.646   3.739 131.789  0.00  0.00    +0.000 C 
BRANCH  18  19
ATOM     19  C   UNL     1      -8.058   5.227 131.861  0.00  0.00    +0.000 C 
ATOM     20  C   UNL     1      -6.870   5.885 132.428  0.00  0.00    +0.000 C 
ATOM     21  C   UNL     1      -7.186   5.678 134.065  0.00  0.00    +0.000 C 
ATOM     22  N   UNL     1      -8.544   5.825 134.163  0.00  0.00    +0.000 N 
ATOM     23  C   UNL     1      -9.048   5.807 132.885  0.00  0.00    +0.000 C 
ATOM     24  O   UNL     1     -10.098   6.360 132.612  0.00  0.00    +0.000 OA
ATOM     25  H   UNL     1      -8.843   6.511 134.842  0.00  0.00    +0.000 HD
ENDBRANCH  18  19
ENDBRANCH  15  18
ENDBRANCH  13  15
ENDBRANCH   4  11
BRANCH   9  26
ATOM     26  C   UNL     1      -7.584   1.088 124.530  0.00  0.00    +0.000 C 
BRANCH  26  27
ATOM     27  N   UNL     1      -8.118  -0.299 124.454  0.00  0.00    +0.000 N 
ATOM     28  C   UNL     1      -7.579  -1.319 123.704  0.00  0.00    +0.000 C 
ATOM     29  O   UNL     1      -6.764  -1.085 122.777  0.00  0.00    +0.000 OA
ATOM     30  H   UNL     1      -9.097  -0.423 124.687  0.00  0.00    +0.000 HD
BRANCH  28  31
ATOM     31  C   UNL     1      -8.029  -2.759 123.941  0.00  0.00    +0.000 C 
ATOM     32  F   UNL     1      -7.012  -3.662 124.008  0.00  0.00    +0.000 F 
ATOM     33  F   UNL     1      -8.705  -2.831 125.114  0.00  0.00    +0.000 F 
ATOM     34  F   UNL     1      -8.872  -3.203 122.965  0.00  0.00    +0.000 F 
ENDBRANCH  28  31
ENDBRANCH  26  27
BRANCH  26  35
ATOM     35  C   UNL     1      -8.688   2.150 124.066  0.00  0.00    +0.000 C 
ATOM     36  C   UNL     1      -8.676   3.431 124.939  0.00  0.00    +0.000 C 
ATOM     37  C   UNL     1      -8.534   2.565 122.578  0.00  0.00    +0.000 C 
ATOM     38  C   UNL     1     -10.101   1.529 124.192  0.00  0.00    +0.000 C 
ENDBRANCH  26  35
ENDBRANCH   9  26
TORSDOF 9
ENDMDL
