MODEL 1
REMARK VINA RESULT:      -6.8      0.000      0.000
REMARK  Name = Nitazoxanide
REMARK  5 active torsions:
REMARK  status: ('A' for Active; 'I' for Inactive)
REMARK    1  A    between atoms: C_1  and  C_2
REMARK    2  A    between atoms: C_2  and  O_4
REMARK    3  A    between atoms: O_4  and  C_5
REMARK    4  A    between atoms: C_10  and  C_11
REMARK    5  A    between atoms: C_17  and  N_19
REMARK                            x       y       z     vdW  Elec       q    Type
REMARK                         _______ _______ _______ _____ _____    ______ ____
ROOT
ATOM      1  C   UNL     1      -8.744  -1.191 125.288  0.00  0.00    +0.000 C 
ATOM      2  O   UNL     1      -9.474  -1.738 124.459  0.00  0.00    +0.000 OA
ATOM      3  N   UNL     1      -8.042  -0.030 125.026  0.00  0.00    +0.000 N 
ATOM      4  C   UNL     1      -8.451   0.862 124.062  0.00  0.00    +0.000 A 
ATOM      5  N   UNL     1      -9.628   0.974 123.495  0.00  0.00    +0.000 NA
ATOM      6  C   UNL     1      -9.581   1.951 122.516  0.00  0.00    +0.000 A 
ATOM      7  C   UNL     1      -8.361   2.566 122.379  0.00  0.00    +0.000 A 
ATOM      8  S   UNL     1      -7.275   2.013 123.568  0.00  0.00    +0.000 S 
ATOM      9  H   UNL     1      -7.216   0.197 125.551  0.00  0.00    +0.000 HD
ENDROOT
BRANCH   1  15
ATOM     10  C   UNL     1      -7.922  -1.348 127.763  0.00  0.00    +0.000 A 
ATOM     11  C   UNL     1      -7.766  -2.129 128.929  0.00  0.00    +0.000 A 
ATOM     12  C   UNL     1      -8.208  -3.456 128.965  0.00  0.00    +0.000 A 
ATOM     13  C   UNL     1      -8.863  -3.989 127.861  0.00  0.00    +0.000 A 
ATOM     14  C   UNL     1      -9.011  -3.216 126.701  0.00  0.00    +0.000 A 
ATOM     15  C   UNL     1      -8.521  -1.892 126.610  0.00  0.00    +0.000 A 
BRANCH  10  16
ATOM     16  O   UNL     1      -7.342  -0.058 127.807  0.00  0.00    +0.000 OA
BRANCH  16  18
ATOM     17  C   UNL     1      -7.784   1.380 129.643  0.00  0.00    +0.000 C 
ATOM     18  C   UNL     1      -8.154   0.991 128.236  0.00  0.00    +0.000 C 
ATOM     19  O   UNL     1      -8.949   1.612 127.537  0.00  0.00    +0.000 OA
ENDBRANCH  16  18
ENDBRANCH  10  16
ENDBRANCH   1  15
BRANCH   7  20
ATOM     20  N   UNL     1      -7.998   3.516 121.376  0.00  0.00    +0.000 N 
ATOM     21  O   UNL     1      -6.812   3.862 121.298  0.00  0.00    +0.000 OA
ATOM     22  O   UNL     1      -8.911   3.915 120.640  0.00  0.00    +0.000 OA
ENDBRANCH   7  20
TORSDOF 4
ENDMDL
MODEL 2
REMARK VINA RESULT:      -6.7      1.748      3.513
REMARK  Name = Nitazoxanide
REMARK  5 active torsions:
REMARK  status: ('A' for Active; 'I' for Inactive)
REMARK    1  A    between atoms: C_1  and  C_2
REMARK    2  A    between atoms: C_2  and  O_4
REMARK    3  A    between atoms: O_4  and  C_5
REMARK    4  A    between atoms: C_10  and  C_11
REMARK    5  A    between atoms: C_17  and  N_19
REMARK                            x       y       z     vdW  Elec       q    Type
REMARK                         _______ _______ _______ _____ _____    ______ ____
ROOT
ATOM      1  C   UNL     1      -7.903   0.076 126.624  0.00  0.00    +0.000 C 
ATOM      2  O   UNL     1      -8.122   1.044 127.354  0.00  0.00    +0.000 OA
ATOM      3  N   UNL     1      -7.556   0.199 125.292  0.00  0.00    +0.000 N 
ATOM      4  C   UNL     1      -6.956   1.336 124.802  0.00  0.00    +0.000 A 
ATOM      5  N   UNL     1      -6.341   2.288 125.460  0.00  0.00    +0.000 NA
ATOM      6  C   UNL     1      -5.958   3.287 124.583  0.00  0.00    +0.000 A 
ATOM      7  C   UNL     1      -6.286   3.053 123.270  0.00  0.00    +0.000 A 
ATOM      8  S   UNL     1      -6.976   1.507 123.092  0.00  0.00    +0.000 S 
ATOM      9  H   UNL     1      -7.724  -0.555 124.649  0.00  0.00    +0.000 HD
ENDROOT
BRANCH   1  15
ATOM     10  C   UNL     1      -8.796  -2.378 126.552  0.00  0.00    +0.000 A 
ATOM     11  C   UNL     1      -8.957  -3.617 127.210  0.00  0.00    +0.000 A 
ATOM     12  C   UNL     1      -8.463  -3.808 128.505  0.00  0.00    +0.000 A 
ATOM     13  C   UNL     1      -7.752  -2.786 129.123  0.00  0.00    +0.000 A 
ATOM     14  C   UNL     1      -7.598  -1.555 128.473  0.00  0.00    +0.000 A 
ATOM     15  C   UNL     1      -8.138  -1.308 127.189  0.00  0.00    +0.000 A 
BRANCH  10  16
ATOM     16  O   UNL     1      -9.429  -2.267 125.291  0.00  0.00    +0.000 OA
BRANCH  16  18
ATOM     17  C   UNL     1      -9.744  -3.356 123.206  0.00  0.00    +0.000 C 
ATOM     18  C   UNL     1      -8.754  -2.792 124.191  0.00  0.00    +0.000 C 
ATOM     19  O   UNL     1      -7.551  -2.685 123.972  0.00  0.00    +0.000 OA
ENDBRANCH  16  18
ENDBRANCH  10  16
ENDBRANCH   1  15
BRANCH   7  20
ATOM     20  N   UNL     1      -6.121   3.961 122.180  0.00  0.00    +0.000 N 
ATOM     21  O   UNL     1      -6.901   3.877 121.223  0.00  0.00    +0.000 OA
ATOM     22  O   UNL     1      -5.205   4.788 122.286  0.00  0.00    +0.000 OA
ENDBRANCH   7  20
TORSDOF 4
ENDMDL
MODEL 3
REMARK VINA RESULT:      -6.7      5.898      8.625
REMARK  Name = Nitazoxanide
REMARK  5 active torsions:
REMARK  status: ('A' for Active; 'I' for Inactive)
REMARK    1  A    between atoms: C_1  and  C_2
REMARK    2  A    between atoms: C_2  and  O_4
REMARK    3  A    between atoms: O_4  and  C_5
REMARK    4  A    between atoms: C_10  and  C_11
REMARK    5  A    between atoms: C_17  and  N_19
REMARK                            x       y       z     vdW  Elec       q    Type
REMARK                         _______ _______ _______ _____ _____    ______ ____
ROOT
ATOM      1  C   UNL     1     -10.307   5.242 129.855  0.00  0.00    +0.000 C 
ATOM      2  O   UNL     1     -10.855   4.157 130.063  0.00  0.00    +0.000 OA
ATOM      3  N   UNL     1      -8.951   5.371 129.628  0.00  0.00    +0.000 N 
ATOM      4  C   UNL     1      -8.198   4.333 129.130  0.00  0.00    +0.000 A 
ATOM      5  N   UNL     1      -8.601   3.249 128.513  0.00  0.00    +0.000 NA
ATOM      6  C   UNL     1      -7.517   2.429 128.256  0.00  0.00    +0.000 A 
ATOM      7  C   UNL     1      -6.309   2.928 128.679  0.00  0.00    +0.000 A 
ATOM      8  S   UNL     1      -6.497   4.502 129.301  0.00  0.00    +0.000 S 
ATOM      9  H   UNL     1      -8.484   6.242 129.809  0.00  0.00    +0.000 HD
ENDROOT
BRANCH   1  15
ATOM     10  C   UNL     1     -11.124   7.610 129.111  0.00  0.00    +0.000 A 
ATOM     11  C   UNL     1     -11.960   8.722 129.350  0.00  0.00    +0.000 A 
ATOM     12  C   UNL     1     -12.831   8.738 130.445  0.00  0.00    +0.000 A 
ATOM     13  C   UNL     1     -12.919   7.620 131.266  0.00  0.00    +0.000 A 
ATOM     14  C   UNL     1     -12.085   6.519 131.032  0.00  0.00    +0.000 A 
ATOM     15  C   UNL     1     -11.148   6.495 129.971  0.00  0.00    +0.000 A 
BRANCH  10  16
ATOM     16  O   UNL     1     -10.209   7.750 128.040  0.00  0.00    +0.000 OA
BRANCH  16  18
ATOM     17  C   UNL     1     -11.731   7.331 126.267  0.00  0.00    +0.000 C 
ATOM     18  C   UNL     1     -10.422   6.958 126.912  0.00  0.00    +0.000 C 
ATOM     19  O   UNL     1      -9.611   6.179 126.421  0.00  0.00    +0.000 OA
ENDBRANCH  16  18
ENDBRANCH  10  16
ENDBRANCH   1  15
BRANCH   7  20
ATOM     20  N   UNL     1      -5.054   2.247 128.653  0.00  0.00    +0.000 N 
ATOM     21  O   UNL     1      -4.572   1.946 127.554  0.00  0.00    +0.000 OA
ATOM     22  O   UNL     1      -4.528   2.021 129.752  0.00  0.00    +0.000 OA
ENDBRANCH   7  20
TORSDOF 4
ENDMDL
MODEL 4
REMARK VINA RESULT:      -6.5      7.348      9.765
REMARK  Name = Nitazoxanide
REMARK  5 active torsions:
REMARK  status: ('A' for Active; 'I' for Inactive)
REMARK    1  A    between atoms: C_1  and  C_2
REMARK    2  A    between atoms: C_2  and  O_4
REMARK    3  A    between atoms: O_4  and  C_5
REMARK    4  A    between atoms: C_10  and  C_11
REMARK    5  A    between atoms: C_17  and  N_19
REMARK                            x       y       z     vdW  Elec       q    Type
REMARK                         _______ _______ _______ _____ _____    ______ ____
ROOT
ATOM      1  C   UNL     1      -9.529   5.978 130.141  0.00  0.00    +0.000 C 
ATOM      2  O   UNL     1      -9.624   4.879 129.590  0.00  0.00    +0.000 OA
ATOM      3  N   UNL     1      -8.412   6.370 130.853  0.00  0.00    +0.000 N 
ATOM      4  C   UNL     1      -7.171   5.828 130.611  0.00  0.00    +0.000 A 
ATOM      5  N   UNL     1      -6.757   5.165 129.559  0.00  0.00    +0.000 NA
ATOM      6  C   UNL     1      -5.460   4.727 129.765  0.00  0.00    +0.000 A 
ATOM      7  C   UNL     1      -4.921   5.088 130.975  0.00  0.00    +0.000 A 
ATOM      8  S   UNL     1      -5.993   6.095 131.833  0.00  0.00    +0.000 S 
ATOM      9  H   UNL     1      -8.481   7.079 131.561  0.00  0.00    +0.000 HD
ENDROOT
BRANCH   1  15
ATOM     10  C   UNL     1     -11.113   7.779 129.105  0.00  0.00    +0.000 A 
ATOM     11  C   UNL     1     -12.269   8.580 129.236  0.00  0.00    +0.000 A 
ATOM     12  C   UNL     1     -13.067   8.500 130.382  0.00  0.00    +0.000 A 
ATOM     13  C   UNL     1     -12.752   7.576 131.372  0.00  0.00    +0.000 A 
ATOM     14  C   UNL     1     -11.602   6.786 131.245  0.00  0.00    +0.000 A 
ATOM     15  C   UNL     1     -10.739   6.886 130.128  0.00  0.00    +0.000 A 
BRANCH  10  16
ATOM     16  O   UNL     1     -10.326   8.022 127.955  0.00  0.00    +0.000 OA
BRANCH  16  18
ATOM     17  C   UNL     1     -11.739   7.510 126.118  0.00  0.00    +0.000 C 
ATOM     18  C   UNL     1     -10.488   7.154 126.877  0.00  0.00    +0.000 C 
ATOM     19  O   UNL     1      -9.670   6.319 126.501  0.00  0.00    +0.000 OA
ENDBRANCH  16  18
ENDBRANCH  10  16
ENDBRANCH   1  15
BRANCH   7  20
ATOM     20  N   UNL     1      -3.657   4.673 131.498  0.00  0.00    +0.000 N 
ATOM     21  O   UNL     1      -3.589   4.373 132.697  0.00  0.00    +0.000 OA
ATOM     22  O   UNL     1      -2.716   4.631 130.694  0.00  0.00    +0.000 OA
ENDBRANCH   7  20
TORSDOF 4
ENDMDL
MODEL 5
REMARK VINA RESULT:      -6.4      2.098      3.512
REMARK  Name = Nitazoxanide
REMARK  5 active torsions:
REMARK  status: ('A' for Active; 'I' for Inactive)
REMARK    1  A    between atoms: C_1  and  C_2
REMARK    2  A    between atoms: C_2  and  O_4
REMARK    3  A    between atoms: O_4  and  C_5
REMARK    4  A    between atoms: C_10  and  C_11
REMARK    5  A    between atoms: C_17  and  N_19
REMARK                            x       y       z     vdW  Elec       q    Type
REMARK                         _______ _______ _______ _____ _____    ______ ____
ROOT
ATOM      1  C   UNL     1      -8.308   0.837 124.316  0.00  0.00    +0.000 C 
ATOM      2  O   UNL     1      -9.267   0.411 123.669  0.00  0.00    +0.000 OA
ATOM      3  N   UNL     1      -7.355   1.684 123.784  0.00  0.00    +0.000 N 
ATOM      4  C   UNL     1      -7.629   2.499 122.710  0.00  0.00    +0.000 A 
ATOM      5  N   UNL     1      -8.794   2.866 122.236  0.00  0.00    +0.000 NA
ATOM      6  C   UNL     1      -8.613   3.625 121.093  0.00  0.00    +0.000 A 
ATOM      7  C   UNL     1      -7.301   3.823 120.740  0.00  0.00    +0.000 A 
ATOM      8  S   UNL     1      -6.259   3.161 121.912  0.00  0.00    +0.000 S 
ATOM      9  H   UNL     1      -6.435   1.734 124.185  0.00  0.00    +0.000 HD
ENDROOT
BRANCH   1  15
ATOM     10  C   UNL     1      -7.876  -1.026 126.096  0.00  0.00    +0.000 A 
ATOM     11  C   UNL     1      -7.723  -1.376 127.456  0.00  0.00    +0.000 A 
ATOM     12  C   UNL     1      -7.798  -0.401 128.456  0.00  0.00    +0.000 A 
ATOM     13  C   UNL     1      -7.961   0.932 128.102  0.00  0.00    +0.000 A 
ATOM     14  C   UNL     1      -8.119   1.279 126.753  0.00  0.00    +0.000 A 
ATOM     15  C   UNL     1      -8.110   0.311 125.721  0.00  0.00    +0.000 A 
BRANCH  10  16
ATOM     16  O   UNL     1      -7.889  -2.107 125.183  0.00  0.00    +0.000 OA
BRANCH  16  18
ATOM     17  C   UNL     1      -9.141  -3.176 123.472  0.00  0.00    +0.000 C 
ATOM     18  C   UNL     1      -9.126  -2.683 124.896  0.00  0.00    +0.000 C 
ATOM     19  O   UNL     1     -10.020  -2.900 125.708  0.00  0.00    +0.000 OA
ENDBRANCH  16  18
ENDBRANCH  10  16
ENDBRANCH   1  15
BRANCH   7  20
ATOM     20  N   UNL     1      -6.829   4.459 119.550  0.00  0.00    +0.000 N 
ATOM     21  O   UNL     1      -7.560   4.452 118.552  0.00  0.00    +0.000 OA
ATOM     22  O   UNL     1      -5.712   4.990 119.617  0.00  0.00    +0.000 OA
ENDBRANCH   7  20
TORSDOF 4
ENDMDL
MODEL 6
REMARK VINA RESULT:      -6.4      8.434     10.179
REMARK  Name = Nitazoxanide
REMARK  5 active torsions:
REMARK  status: ('A' for Active; 'I' for Inactive)
REMARK    1  A    between atoms: C_1  and  C_2
REMARK    2  A    between atoms: C_2  and  O_4
REMARK    3  A    between atoms: O_4  and  C_5
REMARK    4  A    between atoms: C_10  and  C_11
REMARK    5  A    between atoms: C_17  and  N_19
REMARK                            x       y       z     vdW  Elec       q    Type
REMARK                         _______ _______ _______ _____ _____    ______ ____
ROOT
ATOM      1  C   UNL     1      -6.440   6.082 132.177  0.00  0.00    +0.000 C 
ATOM      2  O   UNL     1      -6.737   5.090 132.846  0.00  0.00    +0.000 OA
ATOM      3  N   UNL     1      -7.323   6.701 131.313  0.00  0.00    +0.000 N 
ATOM      4  C   UNL     1      -8.685   6.604 131.477  0.00  0.00    +0.000 A 
ATOM      5  N   UNL     1      -9.359   6.246 132.543  0.00  0.00    +0.000 NA
ATOM      6  C   UNL     1     -10.711   6.205 132.247  0.00  0.00    +0.000 A 
ATOM      7  C   UNL     1     -11.024   6.551 130.955  0.00  0.00    +0.000 A 
ATOM      8  S   UNL     1      -9.631   7.056 130.115  0.00  0.00    +0.000 S 
ATOM      9  H   UNL     1      -6.983   7.254 130.546  0.00  0.00    +0.000 HD
ENDROOT
BRANCH   1  15
ATOM     10  C   UNL     1      -4.277   7.143 131.166  0.00  0.00    +0.000 A 
ATOM     11  C   UNL     1      -2.935   7.540 131.350  0.00  0.00    +0.000 A 
ATOM     12  C   UNL     1      -2.304   7.371 132.588  0.00  0.00    +0.000 A 
ATOM     13  C   UNL     1      -3.028   6.867 133.661  0.00  0.00    +0.000 A 
ATOM     14  C   UNL     1      -4.358   6.468 133.477  0.00  0.00    +0.000 A 
ATOM     15  C   UNL     1      -5.008   6.567 132.223  0.00  0.00    +0.000 A 
BRANCH  10  16
ATOM     16  O   UNL     1      -4.776   7.262 129.846  0.00  0.00    +0.000 OA
BRANCH  16  18
ATOM     17  C   UNL     1      -4.331   5.001 129.277  0.00  0.00    +0.000 C 
ATOM     18  C   UNL     1      -4.202   6.446 128.873  0.00  0.00    +0.000 C 
ATOM     19  O   UNL     1      -3.786   6.820 127.780  0.00  0.00    +0.000 OA
ENDBRANCH  16  18
ENDBRANCH  10  16
ENDBRANCH   1  15
BRANCH   7  20
ATOM     20  N   UNL     1     -12.315   6.479 130.346  0.00  0.00    +0.000 N 
ATOM     21  O   UNL     1     -12.417   5.910 129.252  0.00  0.00    +0.000 OA
ATOM     22  O   UNL     1     -13.250   6.988 130.980  0.00  0.00    +0.000 OA
ENDBRANCH   7  20
TORSDOF 4
ENDMDL
MODEL 7
REMARK VINA RESULT:      -6.3      8.605      9.635
REMARK  Name = Nitazoxanide
REMARK  5 active torsions:
REMARK  status: ('A' for Active; 'I' for Inactive)
REMARK    1  A    between atoms: C_1  and  C_2
REMARK    2  A    between atoms: C_2  and  O_4
REMARK    3  A    between atoms: O_4  and  C_5
REMARK    4  A    between atoms: C_10  and  C_11
REMARK    5  A    between atoms: C_17  and  N_19
REMARK                            x       y       z     vdW  Elec       q    Type
REMARK                         _______ _______ _______ _____ _____    ______ ____
ROOT
ATOM      1  C   UNL     1      -6.560   6.733 131.135  0.00  0.00    +0.000 C 
ATOM      2  O   UNL     1      -6.455   7.748 130.445  0.00  0.00    +0.000 OA
ATOM      3  N   UNL     1      -7.774   6.241 131.574  0.00  0.00    +0.000 N 
ATOM      4  C   UNL     1      -8.948   6.512 130.909  0.00  0.00    +0.000 A 
ATOM      5  N   UNL     1      -9.115   6.944 129.683  0.00  0.00    +0.000 NA
ATOM      6  C   UNL     1     -10.461   7.161 129.446  0.00  0.00    +0.000 A 
ATOM      7  C   UNL     1     -11.283   6.871 130.507  0.00  0.00    +0.000 A 
ATOM      8  S   UNL     1     -10.389   6.198 131.791  0.00  0.00    +0.000 S 
ATOM      9  H   UNL     1      -7.824   5.656 132.389  0.00  0.00    +0.000 HD
ENDROOT
BRANCH   1  15
ATOM     10  C   UNL     1      -4.346   5.380 130.827  0.00  0.00    +0.000 A 
ATOM     11  C   UNL     1      -3.206   4.792 131.417  0.00  0.00    +0.000 A 
ATOM     12  C   UNL     1      -2.989   4.882 132.796  0.00  0.00    +0.000 A 
ATOM     13  C   UNL     1      -3.872   5.613 133.581  0.00  0.00    +0.000 A 
ATOM     14  C   UNL     1      -5.007   6.191 132.997  0.00  0.00    +0.000 A 
ATOM     15  C   UNL     1      -5.290   6.067 131.616  0.00  0.00    +0.000 A 
BRANCH  10  16
ATOM     16  O   UNL     1      -4.517   5.133 129.444  0.00  0.00    +0.000 OA
BRANCH  16  18
ATOM     17  C   UNL     1      -2.764   5.105 127.843  0.00  0.00    +0.000 C 
ATOM     18  C   UNL     1      -3.797   5.935 128.560  0.00  0.00    +0.000 C 
ATOM     19  O   UNL     1      -4.051   7.104 128.286  0.00  0.00    +0.000 OA
ENDBRANCH  16  18
ENDBRANCH  10  16
ENDBRANCH   1  15
BRANCH   7  20
ATOM     20  N   UNL     1     -12.689   7.114 130.582  0.00  0.00    +0.000 N 
ATOM     21  O   UNL     1     -13.204   7.238 131.701  0.00  0.00    +0.000 OA
ATOM     22  O   UNL     1     -13.291   7.200 129.503  0.00  0.00    +0.000 OA
ENDBRANCH   7  20
TORSDOF 4
ENDMDL
MODEL 8
REMARK VINA RESULT:      -6.3      2.695      3.663
REMARK  Name = Nitazoxanide
REMARK  5 active torsions:
REMARK  status: ('A' for Active; 'I' for Inactive)
REMARK    1  A    between atoms: C_1  and  C_2
REMARK    2  A    between atoms: C_2  and  O_4
REMARK    3  A    between atoms: O_4  and  C_5
REMARK    4  A    between atoms: C_10  and  C_11
REMARK    5  A    between atoms: C_17  and  N_19
REMARK                            x       y       z     vdW  Elec       q    Type
REMARK                         _______ _______ _______ _____ _____    ______ ____
ROOT
ATOM      1  C   UNL     1      -7.898   0.918 123.871  0.00  0.00    +0.000 C 
ATOM      2  O   UNL     1      -8.383   1.794 124.589  0.00  0.00    +0.000 OA
ATOM      3  N   UNL     1      -7.148   1.196 122.744  0.00  0.00    +0.000 N 
ATOM      4  C   UNL     1      -6.474   2.386 122.598  0.00  0.00    +0.000 A 
ATOM      5  N   UNL     1      -6.147   3.261 123.517  0.00  0.00    +0.000 NA
ATOM      6  C   UNL     1      -5.548   4.358 122.923  0.00  0.00    +0.000 A 
ATOM      7  C   UNL     1      -5.426   4.273 121.558  0.00  0.00    +0.000 A 
ATOM      8  S   UNL     1      -5.952   2.752 121.003  0.00  0.00    +0.000 S 
ATOM      9  H   UNL     1      -7.067   0.519 122.006  0.00  0.00    +0.000 HD
ENDROOT
BRANCH   1  15
ATOM     10  C   UNL     1      -8.026  -1.199 125.397  0.00  0.00    +0.000 A 
ATOM     11  C   UNL     1      -8.385  -2.558 125.538  0.00  0.00    +0.000 A 
ATOM     12  C   UNL     1      -8.963  -3.258 124.474  0.00  0.00    +0.000 A 
ATOM     13  C   UNL     1      -9.244  -2.591 123.288  0.00  0.00    +0.000 A 
ATOM     14  C   UNL     1      -8.883  -1.245 123.146  0.00  0.00    +0.000 A 
ATOM     15  C   UNL     1      -8.240  -0.523 124.180  0.00  0.00    +0.000 A 
BRANCH  10  16
ATOM     16  O   UNL     1      -7.352  -0.625 126.501  0.00  0.00    +0.000 OA
BRANCH  16  18
ATOM     17  C   UNL     1      -5.183   0.233 126.060  0.00  0.00    +0.000 C 
ATOM     18  C   UNL     1      -5.992  -0.902 126.631  0.00  0.00    +0.000 C 
ATOM     19  O   UNL     1      -5.510  -1.848 127.247  0.00  0.00    +0.000 OA
ENDBRANCH  16  18
ENDBRANCH  10  16
ENDBRANCH   1  15
BRANCH   7  20
ATOM     20  N   UNL     1      -4.961   5.302 120.682  0.00  0.00    +0.000 N 
ATOM     21  O   UNL     1      -4.207   6.168 121.143  0.00  0.00    +0.000 OA
ATOM     22  O   UNL     1      -5.343   5.237 119.505  0.00  0.00    +0.000 OA
ENDBRANCH   7  20
TORSDOF 4
ENDMDL
MODEL 9
REMARK VINA RESULT:      -6.3      3.756      7.184
REMARK  Name = Nitazoxanide
REMARK  5 active torsions:
REMARK  status: ('A' for Active; 'I' for Inactive)
REMARK    1  A    between atoms: C_1  and  C_2
REMARK    2  A    between atoms: C_2  and  O_4
REMARK    3  A    between atoms: O_4  and  C_5
REMARK    4  A    between atoms: C_10  and  C_11
REMARK    5  A    between atoms: C_17  and  N_19
REMARK                            x       y       z     vdW  Elec       q    Type
REMARK                         _______ _______ _______ _____ _____    ______ ____
ROOT
ATOM      1  C   UNL     1      -7.844  -2.512 126.764  0.00  0.00    +0.000 C 
ATOM      2  O   UNL     1      -8.481  -3.541 126.995  0.00  0.00    +0.000 OA
ATOM      3  N   UNL     1      -7.550  -1.573 127.735  0.00  0.00    +0.000 N 
ATOM      4  C   UNL     1      -7.489  -1.905 129.068  0.00  0.00    +0.000 A 
ATOM      5  N   UNL     1      -7.366  -3.091 129.613  0.00  0.00    +0.000 NA
ATOM      6  C   UNL     1      -7.431  -2.978 130.991  0.00  0.00    +0.000 A 
ATOM      7  C   UNL     1      -7.589  -1.695 131.453  0.00  0.00    +0.000 A 
ATOM      8  S   UNL     1      -7.536  -0.583 130.165  0.00  0.00    +0.000 S 
ATOM      9  H   UNL     1      -7.357  -0.620 127.481  0.00  0.00    +0.000 HD
ENDROOT
BRANCH   1  15
ATOM     10  C   UNL     1      -8.189  -1.412 124.419  0.00  0.00    +0.000 A 
ATOM     11  C   UNL     1      -7.726  -1.232 123.097  0.00  0.00    +0.000 A 
ATOM     12  C   UNL     1      -6.545  -1.844 122.665  0.00  0.00    +0.000 A 
ATOM     13  C   UNL     1      -5.788  -2.583 123.566  0.00  0.00    +0.000 A 
ATOM     14  C   UNL     1      -6.250  -2.766 124.876  0.00  0.00    +0.000 A 
ATOM     15  C   UNL     1      -7.471  -2.214 125.328  0.00  0.00    +0.000 A 
BRANCH  10  16
ATOM     16  O   UNL     1      -9.448  -0.835 124.712  0.00  0.00    +0.000 OA
BRANCH  16  18
ATOM     17  C   UNL     1     -10.097   1.406 124.276  0.00  0.00    +0.000 C 
ATOM     18  C   UNL     1      -9.450   0.452 125.246  0.00  0.00    +0.000 C 
ATOM     19  O   UNL     1      -9.118   0.753 126.388  0.00  0.00    +0.000 OA
ENDBRANCH  16  18
ENDBRANCH  10  16
ENDBRANCH   1  15
BRANCH   7  20
ATOM     20  N   UNL     1      -7.806  -1.302 132.810  0.00  0.00    +0.000 N 
ATOM     21  O   UNL     1      -8.173  -2.164 133.619  0.00  0.00    +0.000 OA
ATOM     22  O   UNL     1      -7.591  -0.112 133.080  0.00  0.00    +0.000 OA
ENDBRANCH   7  20
TORSDOF 4
ENDMDL
