MODEL 1
REMARK VINA RESULT:      -8.3      0.000      0.000
REMARK  Name = Nitisinone
REMARK  4 active torsions:
REMARK  status: ('A' for Active; 'I' for Inactive)
REMARK    1  A    between atoms: N_2  and  C_4
REMARK    2  A    between atoms: C_5  and  C_14
REMARK    3  A    between atoms: C_8  and  C_10
REMARK    4  A    between atoms: C_14  and  C_16
REMARK                            x       y       z     vdW  Elec       q    Type
REMARK                         _______ _______ _______ _____ _____    ______ ____
ROOT
ATOM      1  C   UNL     1      -7.164  -2.400 124.894  0.00  0.00    +0.000 A 
ATOM      2  C   UNL     1      -7.204  -1.284 123.675  0.00  0.00    +0.000 A 
ATOM      3  C   UNL     1      -6.491  -1.569 122.511  0.00  0.00    +0.000 A 
ATOM      4  C   UNL     1      -5.549  -2.576 122.592  0.00  0.00    +0.000 A 
ATOM      5  C   UNL     1      -5.315  -3.286 123.803  0.00  0.00    +0.000 A 
ATOM      6  C   UNL     1      -6.077  -3.173 124.942  0.00  0.00    +0.000 A 
ENDROOT
BRANCH   5   7
ATOM      7  C   UNL     1      -4.308  -4.369 123.933  0.00  0.00    +0.000 C 
ATOM      8  F   UNL     1      -4.842  -5.549 123.553  0.00  0.00    +0.000 F 
ATOM      9  F   UNL     1      -3.202  -4.122 123.209  0.00  0.00    +0.000 F 
ATOM     10  F   UNL     1      -3.902  -4.533 125.225  0.00  0.00    +0.000 F 
ENDBRANCH   5   7
BRANCH   1  12
ATOM     11  O   UNL     1      -7.694  -1.969 127.399  0.00  0.00    +0.000 OA
ATOM     12  N   UNL     1      -7.942  -2.777 126.486  0.00  0.00    +0.000 N 
ATOM     13  O   UNL     1      -8.813  -3.646 126.684  0.00  0.00    +0.000 OA
ENDBRANCH   1  12
BRANCH   2  14
ATOM     14  C   UNL     1      -8.071   0.244 123.310  0.00  0.00    +0.000 C 
ATOM     15  O   UNL     1      -9.287   0.233 123.092  0.00  0.00    +0.000 OA
BRANCH  14  16
ATOM     16  C   UNL     1      -7.391   1.703 123.324  0.00  0.00    +0.000 C 
ATOM     17  C   UNL     1      -8.561   2.605 123.172  0.00  0.00    +0.000 C 
ATOM     18  O   UNL     1      -8.863   3.460 122.315  0.00  0.00    +0.000 OA
ATOM     19  C   UNL     1      -9.543   2.110 124.044  0.00  0.00    +0.000 C 
ATOM     20  C   UNL     1      -8.522   1.958 125.604  0.00  0.00    +0.000 C 
ATOM     21  C   UNL     1      -7.241   1.154 125.750  0.00  0.00    +0.000 C 
ATOM     22  C   UNL     1      -6.612   1.848 124.630  0.00  0.00    +0.000 C 
ATOM     23  O   UNL     1      -5.725   2.662 124.857  0.00  0.00    +0.000 OA
ENDBRANCH  14  16
ENDBRANCH   2  14
TORSDOF 4
ENDMDL
MODEL 2
REMARK VINA RESULT:      -8.2     10.037     12.137
REMARK  Name = Nitisinone
REMARK  4 active torsions:
REMARK  status: ('A' for Active; 'I' for Inactive)
REMARK    1  A    between atoms: N_2  and  C_4
REMARK    2  A    between atoms: C_5  and  C_14
REMARK    3  A    between atoms: C_8  and  C_10
REMARK    4  A    between atoms: C_14  and  C_16
REMARK                            x       y       z     vdW  Elec       q    Type
REMARK                         _______ _______ _______ _____ _____    ______ ____
ROOT
ATOM      1  C   UNL     1     -11.060   6.775 128.718  0.00  0.00    +0.000 A 
ATOM      2  C   UNL     1     -11.118   5.950 130.149  0.00  0.00    +0.000 A 
ATOM      3  C   UNL     1     -12.096   6.319 131.072  0.00  0.00    +0.000 A 
ATOM      4  C   UNL     1     -12.708   7.542 130.871  0.00  0.00    +0.000 A 
ATOM      5  C   UNL     1     -12.355   8.384 129.779  0.00  0.00    +0.000 A 
ATOM      6  C   UNL     1     -11.520   8.028 128.747  0.00  0.00    +0.000 A 
ENDROOT
BRANCH   5   7
ATOM      7  C   UNL     1     -12.983   9.706 129.533  0.00  0.00    +0.000 C 
ATOM      8  F   UNL     1     -13.886   9.614 128.535  0.00  0.00    +0.000 F 
ATOM      9  F   UNL     1     -13.579  10.197 130.635  0.00  0.00    +0.000 F 
ATOM     10  F   UNL     1     -12.068  10.637 129.136  0.00  0.00    +0.000 F 
ENDBRANCH   5   7
BRANCH   1  12
ATOM     11  O   UNL     1      -9.303   5.933 127.001  0.00  0.00    +0.000 OA
ATOM     12  N   UNL     1     -10.259   6.725 127.094  0.00  0.00    +0.000 N 
ATOM     13  O   UNL     1     -10.682   7.266 126.054  0.00  0.00    +0.000 OA
ENDBRANCH   1  12
BRANCH   2  14
ATOM     14  C   UNL     1     -10.329   4.512 130.879  0.00  0.00    +0.000 C 
ATOM     15  O   UNL     1     -10.154   3.490 130.208  0.00  0.00    +0.000 OA
BRANCH  14  16
ATOM     16  C   UNL     1      -9.729   4.463 132.372  0.00  0.00    +0.000 C 
ATOM     17  C   UNL     1      -8.877   3.246 132.335  0.00  0.00    +0.000 C 
ATOM     18  O   UNL     1      -8.888   2.187 132.995  0.00  0.00    +0.000 OA
ATOM     19  C   UNL     1      -8.165   3.312 131.128  0.00  0.00    +0.000 C 
ATOM     20  C   UNL     1      -7.508   5.059 131.253  0.00  0.00    +0.000 C 
ATOM     21  C   UNL     1      -8.348   6.311 131.432  0.00  0.00    +0.000 C 
ATOM     22  C   UNL     1      -8.992   5.776 132.628  0.00  0.00    +0.000 C 
ATOM     23  O   UNL     1      -8.689   6.234 133.723  0.00  0.00    +0.000 OA
ENDBRANCH  14  16
ENDBRANCH   2  14
TORSDOF 4
ENDMDL
MODEL 3
REMARK VINA RESULT:      -8.1      8.874     10.398
REMARK  Name = Nitisinone
REMARK  4 active torsions:
REMARK  status: ('A' for Active; 'I' for Inactive)
REMARK    1  A    between atoms: N_2  and  C_4
REMARK    2  A    between atoms: C_5  and  C_14
REMARK    3  A    between atoms: C_8  and  C_10
REMARK    4  A    between atoms: C_14  and  C_16
REMARK                            x       y       z     vdW  Elec       q    Type
REMARK                         _______ _______ _______ _____ _____    ______ ____
ROOT
ATOM      1  C   UNL     1      -9.099   4.864 130.252  0.00  0.00    +0.000 A 
ATOM      2  C   UNL     1     -10.462   5.758 130.527  0.00  0.00    +0.000 A 
ATOM      3  C   UNL     1     -10.693   6.205 131.827  0.00  0.00    +0.000 A 
ATOM      4  C   UNL     1      -9.967   5.593 132.831  0.00  0.00    +0.000 A 
ATOM      5  C   UNL     1      -9.032   4.557 132.553  0.00  0.00    +0.000 A 
ATOM      6  C   UNL     1      -8.635   4.171 131.294  0.00  0.00    +0.000 A 
ENDROOT
BRANCH   5   7
ATOM      7  C   UNL     1      -8.238   3.872 133.602  0.00  0.00    +0.000 C 
ATOM      8  F   UNL     1      -6.932   4.189 133.482  0.00  0.00    +0.000 F 
ATOM      9  F   UNL     1      -8.662   4.179 134.842  0.00  0.00    +0.000 F 
ATOM     10  F   UNL     1      -8.312   2.514 133.490  0.00  0.00    +0.000 F 
ENDBRANCH   5   7
BRANCH   1  12
ATOM     11  O   UNL     1      -8.674   3.258 128.256  0.00  0.00    +0.000 OA
ATOM     12  N   UNL     1      -8.118   4.170 128.896  0.00  0.00    +0.000 N 
ATOM     13  O   UNL     1      -7.049   4.634 128.457  0.00  0.00    +0.000 OA
ENDBRANCH   1  12
BRANCH   2  14
ATOM     14  C   UNL     1     -11.769   6.509 129.553  0.00  0.00    +0.000 C 
ATOM     15  O   UNL     1     -12.733   5.832 129.177  0.00  0.00    +0.000 OA
BRANCH  14  16
ATOM     16  C   UNL     1     -11.844   8.073 129.180  0.00  0.00    +0.000 C 
ATOM     17  C   UNL     1     -10.598   8.277 128.397  0.00  0.00    +0.000 C 
ATOM     18  O   UNL     1      -9.610   9.021 128.559  0.00  0.00    +0.000 OA
ATOM     19  C   UNL     1     -10.519   7.189 127.514  0.00  0.00    +0.000 C 
ATOM     20  C   UNL     1     -12.243   7.251 126.792  0.00  0.00    +0.000 C 
ATOM     21  C   UNL     1     -13.538   7.186 127.583  0.00  0.00    +0.000 C 
ATOM     22  C   UNL     1     -13.147   8.316 128.422  0.00  0.00    +0.000 C 
ATOM     23  O   UNL     1     -13.698   9.397 128.258  0.00  0.00    +0.000 OA
ENDBRANCH  14  16
ENDBRANCH   2  14
TORSDOF 4
ENDMDL
MODEL 4
REMARK VINA RESULT:      -8.1      1.979      3.282
REMARK  Name = Nitisinone
REMARK  4 active torsions:
REMARK  status: ('A' for Active; 'I' for Inactive)
REMARK    1  A    between atoms: N_2  and  C_4
REMARK    2  A    between atoms: C_5  and  C_14
REMARK    3  A    between atoms: C_8  and  C_10
REMARK    4  A    between atoms: C_14  and  C_16
REMARK                            x       y       z     vdW  Elec       q    Type
REMARK                         _______ _______ _______ _____ _____    ______ ____
ROOT
ATOM      1  C   UNL     1      -7.966  -0.839 123.861  0.00  0.00    +0.000 A 
ATOM      2  C   UNL     1      -7.290   0.326 124.820  0.00  0.00    +0.000 A 
ATOM      3  C   UNL     1      -5.943   0.190 125.154  0.00  0.00    +0.000 A 
ATOM      4  C   UNL     1      -5.376  -1.053 124.950  0.00  0.00    +0.000 A 
ATOM      5  C   UNL     1      -6.129  -2.142 124.428  0.00  0.00    +0.000 A 
ATOM      6  C   UNL     1      -7.408  -2.049 123.932  0.00  0.00    +0.000 A 
ENDROOT
BRANCH   5   7
ATOM      7  C   UNL     1      -5.559  -3.493 124.200  0.00  0.00    +0.000 C 
ATOM      8  F   UNL     1      -4.658  -3.787 125.161  0.00  0.00    +0.000 F 
ATOM      9  F   UNL     1      -6.509  -4.446 124.168  0.00  0.00    +0.000 F 
ATOM     10  F   UNL     1      -4.889  -3.569 123.014  0.00  0.00    +0.000 F 
ENDBRANCH   5   7
BRANCH   1  12
ATOM     11  O   UNL     1      -9.952  -2.333 123.110  0.00  0.00    +0.000 OA
ATOM     12  N   UNL     1      -9.479  -1.195 122.931  0.00  0.00    +0.000 N 
ATOM     13  O   UNL     1     -10.155  -0.367 122.292  0.00  0.00    +0.000 OA
ENDBRANCH   1  12
BRANCH   2  14
ATOM     14  C   UNL     1      -7.766   1.916 125.504  0.00  0.00    +0.000 C 
ATOM     15  O   UNL     1      -7.414   2.233 126.645  0.00  0.00    +0.000 OA
BRANCH  14  16
ATOM     16  C   UNL     1      -8.574   3.049 124.696  0.00  0.00    +0.000 C 
ATOM     17  C   UNL     1      -8.114   4.301 125.351  0.00  0.00    +0.000 C 
ATOM     18  O   UNL     1      -8.720   5.209 125.956  0.00  0.00    +0.000 OA
ATOM     19  C   UNL     1      -6.723   4.174 125.486  0.00  0.00    +0.000 C 
ATOM     20  C   UNL     1      -6.288   3.675 123.737  0.00  0.00    +0.000 C 
ATOM     21  C   UNL     1      -6.850   2.478 122.991  0.00  0.00    +0.000 C 
ATOM     22  C   UNL     1      -8.225   2.913 123.215  0.00  0.00    +0.000 C 
ATOM     23  O   UNL     1      -8.865   3.369 122.276  0.00  0.00    +0.000 OA
ENDBRANCH  14  16
ENDBRANCH   2  14
TORSDOF 4
ENDMDL
MODEL 5
REMARK VINA RESULT:      -8.0      1.161      2.278
REMARK  Name = Nitisinone
REMARK  4 active torsions:
REMARK  status: ('A' for Active; 'I' for Inactive)
REMARK    1  A    between atoms: N_2  and  C_4
REMARK    2  A    between atoms: C_5  and  C_14
REMARK    3  A    between atoms: C_8  and  C_10
REMARK    4  A    between atoms: C_14  and  C_16
REMARK                            x       y       z     vdW  Elec       q    Type
REMARK                         _______ _______ _______ _____ _____    ______ ____
ROOT
ATOM      1  C   UNL     1      -7.296  -2.236 125.321  0.00  0.00    +0.000 A 
ATOM      2  C   UNL     1      -7.495  -0.982 124.263  0.00  0.00    +0.000 A 
ATOM      3  C   UNL     1      -6.894  -1.089 123.009  0.00  0.00    +0.000 A 
ATOM      4  C   UNL     1      -5.915  -2.055 122.871  0.00  0.00    +0.000 A 
ATOM      5  C   UNL     1      -5.538  -2.896 123.955  0.00  0.00    +0.000 A 
ATOM      6  C   UNL     1      -6.185  -2.959 125.167  0.00  0.00    +0.000 A 
ENDROOT
BRANCH   5   7
ATOM      7  C   UNL     1      -4.488  -3.940 123.850  0.00  0.00    +0.000 C 
ATOM      8  F   UNL     1      -3.416  -3.458 123.186  0.00  0.00    +0.000 F 
ATOM      9  F   UNL     1      -4.102  -4.396 125.055  0.00  0.00    +0.000 F 
ATOM     10  F   UNL     1      -4.919  -5.024 123.142  0.00  0.00    +0.000 F 
ENDBRANCH   5   7
BRANCH   1  12
ATOM     11  O   UNL     1      -7.484  -2.213 127.910  0.00  0.00    +0.000 OA
ATOM     12  N   UNL     1      -7.898  -2.841 126.919  0.00  0.00    +0.000 N 
ATOM     13  O   UNL     1      -8.796  -3.688 127.087  0.00  0.00    +0.000 OA
ENDBRANCH   1  12
BRANCH   2  14
ATOM     14  C   UNL     1      -8.445   0.539 124.179  0.00  0.00    +0.000 C 
ATOM     15  O   UNL     1      -9.150   0.779 123.192  0.00  0.00    +0.000 OA
BRANCH  14  16
ATOM     16  C   UNL     1      -8.529   1.627 125.361  0.00  0.00    +0.000 C 
ATOM     17  C   UNL     1      -7.307   1.336 126.154  0.00  0.00    +0.000 C 
ATOM     18  O   UNL     1      -7.131   1.003 127.344  0.00  0.00    +0.000 OA
ATOM     19  C   UNL     1      -6.274   1.166 125.219  0.00  0.00    +0.000 C 
ATOM     20  C   UNL     1      -6.527   2.712 124.197  0.00  0.00    +0.000 C 
ATOM     21  C   UNL     1      -7.812   3.106 123.489  0.00  0.00    +0.000 C 
ATOM     22  C   UNL     1      -8.586   3.014 124.724  0.00  0.00    +0.000 C 
ATOM     23  O   UNL     1      -8.968   4.044 125.264  0.00  0.00    +0.000 OA
ENDBRANCH  14  16
ENDBRANCH   2  14
TORSDOF 4
ENDMDL
MODEL 6
REMARK VINA RESULT:      -8.0     10.069     11.865
REMARK  Name = Nitisinone
REMARK  4 active torsions:
REMARK  status: ('A' for Active; 'I' for Inactive)
REMARK    1  A    between atoms: N_2  and  C_4
REMARK    2  A    between atoms: C_5  and  C_14
REMARK    3  A    between atoms: C_8  and  C_10
REMARK    4  A    between atoms: C_14  and  C_16
REMARK                            x       y       z     vdW  Elec       q    Type
REMARK                         _______ _______ _______ _____ _____    ______ ____
ROOT
ATOM      1  C   UNL     1     -11.019   6.861 128.401  0.00  0.00    +0.000 A 
ATOM      2  C   UNL     1     -10.987   5.944 129.777  0.00  0.00    +0.000 A 
ATOM      3  C   UNL     1     -11.914   6.240 130.775  0.00  0.00    +0.000 A 
ATOM      4  C   UNL     1     -12.547   7.465 130.690  0.00  0.00    +0.000 A 
ATOM      5  C   UNL     1     -12.265   8.381 129.638  0.00  0.00    +0.000 A 
ATOM      6  C   UNL     1     -11.487   8.103 128.539  0.00  0.00    +0.000 A 
ENDROOT
BRANCH   5   7
ATOM      7  C   UNL     1     -12.918   9.708 129.515  0.00  0.00    +0.000 C 
ATOM      8  F   UNL     1     -12.002  10.654 129.222  0.00  0.00    +0.000 F 
ATOM      9  F   UNL     1     -13.885   9.713 128.579  0.00  0.00    +0.000 F 
ATOM     10  F   UNL     1     -13.505  10.096 130.684  0.00  0.00    +0.000 F 
ENDBRANCH   5   7
BRANCH   1  12
ATOM     11  O   UNL     1      -9.466   6.049 126.486  0.00  0.00    +0.000 OA
ATOM     12  N   UNL     1     -10.312   6.927 126.735  0.00  0.00    +0.000 N 
ATOM     13  O   UNL     1     -10.718   7.641 125.798  0.00  0.00    +0.000 OA
ENDBRANCH   1  12
BRANCH   2  14
ATOM     14  C   UNL     1     -10.145   4.473 130.365  0.00  0.00    +0.000 C 
ATOM     15  O   UNL     1     -10.790   3.458 130.651  0.00  0.00    +0.000 OA
BRANCH  14  16
ATOM     16  C   UNL     1      -8.547   4.322 130.481  0.00  0.00    +0.000 C 
ATOM     17  C   UNL     1      -8.116   5.707 130.803  0.00  0.00    +0.000 C 
ATOM     18  O   UNL     1      -7.353   6.510 130.227  0.00  0.00    +0.000 OA
ATOM     19  C   UNL     1      -9.005   6.166 131.787  0.00  0.00    +0.000 C 
ATOM     20  C   UNL     1      -8.917   4.728 132.978  0.00  0.00    +0.000 C 
ATOM     21  C   UNL     1      -9.217   3.277 132.641  0.00  0.00    +0.000 C 
ATOM     22  C   UNL     1      -8.247   3.273 131.549  0.00  0.00    +0.000 C 
ATOM     23  O   UNL     1      -7.193   2.667 131.693  0.00  0.00    +0.000 OA
ENDBRANCH  14  16
ENDBRANCH   2  14
TORSDOF 4
ENDMDL
MODEL 7
REMARK VINA RESULT:      -7.9      4.318      6.296
REMARK  Name = Nitisinone
REMARK  4 active torsions:
REMARK  status: ('A' for Active; 'I' for Inactive)
REMARK    1  A    between atoms: N_2  and  C_4
REMARK    2  A    between atoms: C_5  and  C_14
REMARK    3  A    between atoms: C_8  and  C_10
REMARK    4  A    between atoms: C_14  and  C_16
REMARK                            x       y       z     vdW  Elec       q    Type
REMARK                         _______ _______ _______ _____ _____    ______ ____
ROOT
ATOM      1  C   UNL     1      -5.428   3.508 125.614  0.00  0.00    +0.000 A 
ATOM      2  C   UNL     1      -6.033   2.118 126.275  0.00  0.00    +0.000 A 
ATOM      3  C   UNL     1      -5.316   1.529 127.316  0.00  0.00    +0.000 A 
ATOM      4  C   UNL     1      -4.010   1.948 127.485  0.00  0.00    +0.000 A 
ATOM      5  C   UNL     1      -3.425   2.929 126.636  0.00  0.00    +0.000 A 
ATOM      6  C   UNL     1      -4.105   3.664 125.694  0.00  0.00    +0.000 A 
ENDROOT
BRANCH   5   7
ATOM      7  C   UNL     1      -2.025   3.401 126.780  0.00  0.00    +0.000 C 
ATOM      8  F   UNL     1      -1.521   3.741 125.575  0.00  0.00    +0.000 F 
ATOM      9  F   UNL     1      -1.926   4.447 127.620  0.00  0.00    +0.000 F 
ATOM     10  F   UNL     1      -1.208   2.426 127.273  0.00  0.00    +0.000 F 
ENDBRANCH   5   7
BRANCH   1  12
ATOM     11  O   UNL     1      -6.304   5.873 124.997  0.00  0.00    +0.000 OA
ATOM     12  N   UNL     1      -5.877   4.832 124.463  0.00  0.00    +0.000 N 
ATOM     13  O   UNL     1      -5.636   4.849 123.241  0.00  0.00    +0.000 OA
ENDBRANCH   1  12
BRANCH   2  14
ATOM     14  C   UNL     1      -7.526   1.131 126.142  0.00  0.00    +0.000 C 
ATOM     15  O   UNL     1      -8.563   1.491 126.712  0.00  0.00    +0.000 OA
BRANCH  14  16
ATOM     16  C   UNL     1      -7.666  -0.194 125.240  0.00  0.00    +0.000 C 
ATOM     17  C   UNL     1      -9.135  -0.408 125.208  0.00  0.00    +0.000 C 
ATOM     18  O   UNL     1      -9.859  -1.357 125.572  0.00  0.00    +0.000 OA
ATOM     19  C   UNL     1      -9.702   0.854 124.968  0.00  0.00    +0.000 C 
ATOM     20  C   UNL     1      -8.677   1.376 123.494  0.00  0.00    +0.000 C 
ATOM     21  C   UNL     1      -7.162   1.470 123.455  0.00  0.00    +0.000 C 
ATOM     22  C   UNL     1      -7.010   0.083 123.889  0.00  0.00    +0.000 C 
ATOM     23  O   UNL     1      -6.639  -0.756 123.078  0.00  0.00    +0.000 OA
ENDBRANCH  14  16
ENDBRANCH   2  14
TORSDOF 4
ENDMDL
MODEL 8
REMARK VINA RESULT:      -7.9      3.912      6.296
REMARK  Name = Nitisinone
REMARK  4 active torsions:
REMARK  status: ('A' for Active; 'I' for Inactive)
REMARK    1  A    between atoms: N_2  and  C_4
REMARK    2  A    between atoms: C_5  and  C_14
REMARK    3  A    between atoms: C_8  and  C_10
REMARK    4  A    between atoms: C_14  and  C_16
REMARK                            x       y       z     vdW  Elec       q    Type
REMARK                         _______ _______ _______ _____ _____    ______ ____
ROOT
ATOM      1  C   UNL     1      -7.801   1.860 123.892  0.00  0.00    +0.000 A 
ATOM      2  C   UNL     1      -7.461   0.581 124.883  0.00  0.00    +0.000 A 
ATOM      3  C   UNL     1      -6.608   0.806 125.963  0.00  0.00    +0.000 A 
ATOM      4  C   UNL     1      -5.857   1.965 125.929  0.00  0.00    +0.000 A 
ATOM      5  C   UNL     1      -5.946   2.882 124.844  0.00  0.00    +0.000 A 
ATOM      6  C   UNL     1      -6.868   2.812 123.827  0.00  0.00    +0.000 A 
ENDROOT
BRANCH   5   7
ATOM      7  C   UNL     1      -5.152   4.134 124.767  0.00  0.00    +0.000 C 
ATOM      8  F   UNL     1      -4.948   4.478 123.478  0.00  0.00    +0.000 F 
ATOM      9  F   UNL     1      -5.746   5.152 125.416  0.00  0.00    +0.000 F 
ATOM     10  F   UNL     1      -3.914   3.985 125.322  0.00  0.00    +0.000 F 
ENDBRANCH   5   7
BRANCH   1  12
ATOM     11  O   UNL     1      -9.849   1.563 122.324  0.00  0.00    +0.000 OA
ATOM     12  N   UNL     1      -8.892   2.333 122.525  0.00  0.00    +0.000 N 
ATOM     13  O   UNL     1      -8.863   3.416 121.910  0.00  0.00    +0.000 OA
ENDBRANCH   1  12
BRANCH   2  14
ATOM     14  C   UNL     1      -8.011  -1.115 125.089  0.00  0.00    +0.000 C 
ATOM     15  O   UNL     1      -9.195  -1.358 125.349  0.00  0.00    +0.000 OA
BRANCH  14  16
ATOM     16  C   UNL     1      -7.078  -2.408 124.873  0.00  0.00    +0.000 C 
ATOM     17  C   UNL     1      -8.064  -3.462 124.525  0.00  0.00    +0.000 C 
ATOM     18  O   UNL     1      -8.354  -4.556 125.051  0.00  0.00    +0.000 OA
ATOM     19  C   UNL     1      -8.941  -2.876 123.599  0.00  0.00    +0.000 C 
ATOM     20  C   UNL     1      -7.694  -2.159 122.404  0.00  0.00    +0.000 C 
ATOM     21  C   UNL     1      -6.584  -1.185 122.759  0.00  0.00    +0.000 C 
ATOM     22  C   UNL     1      -6.055  -2.077 123.788  0.00  0.00    +0.000 C 
ATOM     23  O   UNL     1      -5.005  -2.670 123.578  0.00  0.00    +0.000 OA
ENDBRANCH  14  16
ENDBRANCH   2  14
TORSDOF 4
ENDMDL
MODEL 9
REMARK VINA RESULT:      -7.9      1.612      2.006
REMARK  Name = Nitisinone
REMARK  4 active torsions:
REMARK  status: ('A' for Active; 'I' for Inactive)
REMARK    1  A    between atoms: N_2  and  C_4
REMARK    2  A    between atoms: C_5  and  C_14
REMARK    3  A    between atoms: C_8  and  C_10
REMARK    4  A    between atoms: C_14  and  C_16
REMARK                            x       y       z     vdW  Elec       q    Type
REMARK                         _______ _______ _______ _____ _____    ______ ____
ROOT
ATOM      1  C   UNL     1      -6.172  -1.555 125.656  0.00  0.00    +0.000 A 
ATOM      2  C   UNL     1      -6.542  -0.507 124.432  0.00  0.00    +0.000 A 
ATOM      3  C   UNL     1      -6.630  -1.025 123.140  0.00  0.00    +0.000 A 
ATOM      4  C   UNL     1      -6.079  -2.274 122.934  0.00  0.00    +0.000 A 
ATOM      5  C   UNL     1      -5.449  -2.997 123.986  0.00  0.00    +0.000 A 
ATOM      6  C   UNL     1      -5.459  -2.628 125.310  0.00  0.00    +0.000 A 
ENDROOT
BRANCH   5   7
ATOM      7  C   UNL     1      -4.840  -4.338 123.804  0.00  0.00    +0.000 C 
ATOM      8  F   UNL     1      -5.752  -5.302 124.049  0.00  0.00    +0.000 F 
ATOM      9  F   UNL     1      -4.334  -4.502 122.568  0.00  0.00    +0.000 F 
ATOM     10  F   UNL     1      -3.814  -4.553 124.677  0.00  0.00    +0.000 F 
ENDBRANCH   5   7
BRANCH   1  12
ATOM     11  O   UNL     1      -5.502  -0.684 128.009  0.00  0.00    +0.000 OA
ATOM     12  N   UNL     1      -6.090  -1.636 127.464  0.00  0.00    +0.000 N 
ATOM     13  O   UNL     1      -6.704  -2.444 128.186  0.00  0.00    +0.000 OA
ENDBRANCH   1  12
BRANCH   2  14
ATOM     14  C   UNL     1      -7.043   1.208 124.265  0.00  0.00    +0.000 C 
ATOM     15  O   UNL     1      -6.948   1.781 123.174  0.00  0.00    +0.000 OA
BRANCH  14  16
ATOM     16  C   UNL     1      -7.710   2.080 125.441  0.00  0.00    +0.000 C 
ATOM     17  C   UNL     1      -8.323   3.210 124.696  0.00  0.00    +0.000 C 
ATOM     18  O   UNL     1      -8.159   4.446 124.750  0.00  0.00    +0.000 OA
ATOM     19  C   UNL     1      -8.964   2.635 123.587  0.00  0.00    +0.000 C 
ATOM     20  C   UNL     1      -9.934   1.291 124.454  0.00  0.00    +0.000 C 
ATOM     21  C   UNL     1      -9.346   0.204 125.338  0.00  0.00    +0.000 C 
ATOM     22  C   UNL     1      -8.687   1.183 126.198  0.00  0.00    +0.000 C 
ATOM     23  O   UNL     1      -9.132   1.383 127.322  0.00  0.00    +0.000 OA
ENDBRANCH  14  16
ENDBRANCH   2  14
TORSDOF 4
ENDMDL
