MODEL 1
REMARK VINA RESULT:      -7.9      0.000      0.000
REMARK  Name = Nitrazepam
REMARK  2 active torsions:
REMARK  status: ('A' for Active; 'I' for Inactive)
REMARK    1  A    between atoms: N_2  and  C_4
REMARK    2  A    between atoms: C_13  and  C_14
REMARK                            x       y       z     vdW  Elec       q    Type
REMARK                         _______ _______ _______ _____ _____    ______ ____
ROOT
ATOM      1  C   UNL     1      -8.532  -0.289 123.976  0.00  0.00    +0.000 A 
ATOM      2  C   UNL     1      -7.834   0.753 123.363  0.00  0.00    +0.000 A 
ATOM      3  C   UNL     1      -7.582   1.928 124.087  0.00  0.00    +0.000 A 
ATOM      4  C   UNL     1      -8.058   2.055 125.406  0.00  0.00    +0.000 A 
ATOM      5  N   UNL     1      -7.851   3.185 126.210  0.00  0.00    +0.000 N 
ATOM      6  C   UNL     1      -6.722   3.963 126.241  0.00  0.00    +0.000 C 
ATOM      7  O   UNL     1      -6.642   4.871 127.075  0.00  0.00    +0.000 OA
ATOM      8  C   UNL     1      -5.570   3.571 125.334  0.00  0.00    +0.000 C 
ATOM      9  N   UNL     1      -5.939   3.766 123.935  0.00  0.00    +0.000 NA
ATOM     10  C   UNL     1      -6.849   3.026 123.401  0.00  0.00    +0.000 C 
ATOM     11  C   UNL     1      -8.795   1.009 125.983  0.00  0.00    +0.000 A 
ATOM     12  C   UNL     1      -9.020  -0.174 125.278  0.00  0.00    +0.000 A 
ATOM     13  H   UNL     1      -8.488   3.382 126.972  0.00  0.00    +0.000 HD
ENDROOT
BRANCH  10  14
ATOM     14  C   UNL     1      -7.191   3.328 121.985  0.00  0.00    +0.000 A 
ATOM     15  C   UNL     1      -6.163   3.601 121.078  0.00  0.00    +0.000 A 
ATOM     16  C   UNL     1      -6.477   4.128 119.826  0.00  0.00    +0.000 A 
ATOM     17  C   UNL     1      -7.811   4.287 119.449  0.00  0.00    +0.000 A 
ATOM     18  C   UNL     1      -8.834   3.891 120.311  0.00  0.00    +0.000 A 
ATOM     19  C   UNL     1      -8.530   3.455 121.602  0.00  0.00    +0.000 A 
ENDBRANCH  10  14
BRANCH   1  21
ATOM     20  O   UNL     1      -7.801  -1.904 122.512  0.00  0.00    +0.000 OA
ATOM     21  N   UNL     1      -8.722  -1.538 123.253  0.00  0.00    +0.000 N 
ATOM     22  O   UNL     1      -9.784  -2.144 123.441  0.00  0.00    +0.000 OA
ENDBRANCH   1  21
TORSDOF 2
ENDMDL
MODEL 2
REMARK VINA RESULT:      -7.8      1.515      4.683
REMARK  Name = Nitrazepam
REMARK  2 active torsions:
REMARK  status: ('A' for Active; 'I' for Inactive)
REMARK    1  A    between atoms: N_2  and  C_4
REMARK    2  A    between atoms: C_13  and  C_14
REMARK                            x       y       z     vdW  Elec       q    Type
REMARK                         _______ _______ _______ _____ _____    ______ ____
ROOT
ATOM      1  C   UNL     1      -6.275   3.876 125.289  0.00  0.00    +0.000 A 
ATOM      2  C   UNL     1      -7.089   3.835 124.155  0.00  0.00    +0.000 A 
ATOM      3  C   UNL     1      -7.642   2.610 123.753  0.00  0.00    +0.000 A 
ATOM      4  C   UNL     1      -7.350   1.438 124.476  0.00  0.00    +0.000 A 
ATOM      5  N   UNL     1      -7.860   0.171 124.156  0.00  0.00    +0.000 N 
ATOM      6  C   UNL     1      -9.114  -0.100 123.673  0.00  0.00    +0.000 C 
ATOM      7  O   UNL     1      -9.461  -1.277 123.531  0.00  0.00    +0.000 OA
ATOM      8  C   UNL     1     -10.061   1.069 123.470  0.00  0.00    +0.000 C 
ATOM      9  N   UNL     1      -9.583   1.924 122.388  0.00  0.00    +0.000 NA
ATOM     10  C   UNL     1      -8.493   2.597 122.533  0.00  0.00    +0.000 C 
ATOM     11  C   UNL     1      -6.494   1.499 125.586  0.00  0.00    +0.000 A 
ATOM     12  C   UNL     1      -5.966   2.720 126.009  0.00  0.00    +0.000 A 
ATOM     13  H   UNL     1      -7.362  -0.660 124.452  0.00  0.00    +0.000 HD
ENDROOT
BRANCH  10  14
ATOM     14  C   UNL     1      -8.060   3.404 121.360  0.00  0.00    +0.000 A 
ATOM     15  C   UNL     1      -9.012   3.802 120.417  0.00  0.00    +0.000 A 
ATOM     16  C   UNL     1      -8.589   4.333 119.199  0.00  0.00    +0.000 A 
ATOM     17  C   UNL     1      -7.231   4.555 118.969  0.00  0.00    +0.000 A 
ATOM     18  C   UNL     1      -6.295   4.276 119.965  0.00  0.00    +0.000 A 
ATOM     19  C   UNL     1      -6.701   3.653 121.147  0.00  0.00    +0.000 A 
ENDBRANCH  10  14
BRANCH   1  21
ATOM     20  O   UNL     1      -5.108   5.155 126.801  0.00  0.00    +0.000 OA
ATOM     21  N   UNL     1      -5.767   5.158 125.753  0.00  0.00    +0.000 N 
ATOM     22  O   UNL     1      -6.023   6.152 125.062  0.00  0.00    +0.000 OA
ENDBRANCH   1  21
TORSDOF 2
ENDMDL
MODEL 3
REMARK VINA RESULT:      -7.4      2.890      4.933
REMARK  Name = Nitrazepam
REMARK  2 active torsions:
REMARK  status: ('A' for Active; 'I' for Inactive)
REMARK    1  A    between atoms: N_2  and  C_4
REMARK    2  A    between atoms: C_13  and  C_14
REMARK                            x       y       z     vdW  Elec       q    Type
REMARK                         _______ _______ _______ _____ _____    ______ ____
ROOT
ATOM      1  C   UNL     1      -6.995   4.151 120.227  0.00  0.00    +0.000 A 
ATOM      2  C   UNL     1      -7.614   3.557 121.328  0.00  0.00    +0.000 A 
ATOM      3  C   UNL     1      -6.940   3.526 122.558  0.00  0.00    +0.000 A 
ATOM      4  C   UNL     1      -5.644   4.066 122.661  0.00  0.00    +0.000 A 
ATOM      5  N   UNL     1      -4.895   4.088 123.847  0.00  0.00    +0.000 N 
ATOM      6  C   UNL     1      -5.385   4.285 125.112  0.00  0.00    +0.000 C 
ATOM      7  O   UNL     1      -4.592   4.380 126.055  0.00  0.00    +0.000 OA
ATOM      8  C   UNL     1      -6.877   4.517 125.263  0.00  0.00    +0.000 C 
ATOM      9  N   UNL     1      -7.614   3.303 124.924  0.00  0.00    +0.000 NA
ATOM     10  C   UNL     1      -7.620   2.873 123.708  0.00  0.00    +0.000 C 
ATOM     11  C   UNL     1      -5.028   4.618 121.528  0.00  0.00    +0.000 A 
ATOM     12  C   UNL     1      -5.706   4.680 120.310  0.00  0.00    +0.000 A 
ATOM     13  H   UNL     1      -3.885   4.141 123.801  0.00  0.00    +0.000 HD
ENDROOT
BRANCH  10  14
ATOM     14  C   UNL     1      -8.358   1.603 123.467  0.00  0.00    +0.000 A 
ATOM     15  C   UNL     1      -7.687   0.386 123.608  0.00  0.00    +0.000 A 
ATOM     16  C   UNL     1      -8.286  -0.784 123.144  0.00  0.00    +0.000 A 
ATOM     17  C   UNL     1      -9.585  -0.749 122.636  0.00  0.00    +0.000 A 
ATOM     18  C   UNL     1     -10.299   0.450 122.617  0.00  0.00    +0.000 A 
ATOM     19  C   UNL     1      -9.671   1.640 122.987  0.00  0.00    +0.000 A 
ENDBRANCH  10  14
BRANCH   1  21
ATOM     20  O   UNL     1      -7.053   4.353 117.937  0.00  0.00    +0.000 OA
ATOM     21  N   UNL     1      -7.726   4.255 118.972  0.00  0.00    +0.000 N 
ATOM     22  O   UNL     1      -8.961   4.229 119.033  0.00  0.00    +0.000 OA
ENDBRANCH   1  21
TORSDOF 2
ENDMDL
MODEL 4
REMARK VINA RESULT:      -7.4      2.952      5.813
REMARK  Name = Nitrazepam
REMARK  2 active torsions:
REMARK  status: ('A' for Active; 'I' for Inactive)
REMARK    1  A    between atoms: N_2  and  C_4
REMARK    2  A    between atoms: C_13  and  C_14
REMARK                            x       y       z     vdW  Elec       q    Type
REMARK                         _______ _______ _______ _____ _____    ______ ____
ROOT
ATOM      1  C   UNL     1      -6.371   4.434 120.708  0.00  0.00    +0.000 A 
ATOM      2  C   UNL     1      -6.025   3.873 121.938  0.00  0.00    +0.000 A 
ATOM      3  C   UNL     1      -6.963   3.082 122.618  0.00  0.00    +0.000 A 
ATOM      4  C   UNL     1      -8.245   2.887 122.069  0.00  0.00    +0.000 A 
ATOM      5  N   UNL     1      -9.245   2.109 122.669  0.00  0.00    +0.000 N 
ATOM      6  C   UNL     1      -9.057   0.945 123.369  0.00  0.00    +0.000 C 
ATOM      7  O   UNL     1     -10.045   0.311 123.757  0.00  0.00    +0.000 OA
ATOM      8  C   UNL     1      -7.638   0.425 123.507  0.00  0.00    +0.000 C 
ATOM      9  N   UNL     1      -6.851   1.322 124.348  0.00  0.00    +0.000 NA
ATOM     10  C   UNL     1      -6.570   2.510 123.933  0.00  0.00    +0.000 C 
ATOM     11  C   UNL     1      -8.581   3.499 120.852  0.00  0.00    +0.000 A 
ATOM     12  C   UNL     1      -7.641   4.260 120.157  0.00  0.00    +0.000 A 
ATOM     13  H   UNL     1     -10.218   2.285 122.449  0.00  0.00    +0.000 HD
ENDROOT
BRANCH  10  14
ATOM     14  C   UNL     1      -5.803   3.368 124.877  0.00  0.00    +0.000 A 
ATOM     15  C   UNL     1      -4.813   2.789 125.675  0.00  0.00    +0.000 A 
ATOM     16  C   UNL     1      -4.270   3.520 126.731  0.00  0.00    +0.000 A 
ATOM     17  C   UNL     1      -4.643   4.851 126.923  0.00  0.00    +0.000 A 
ATOM     18  C   UNL     1      -5.537   5.463 126.044  0.00  0.00    +0.000 A 
ATOM     19  C   UNL     1      -6.158   4.710 125.046  0.00  0.00    +0.000 A 
ENDBRANCH  10  14
BRANCH   1  21
ATOM     20  O   UNL     1      -5.400   5.093 118.730  0.00  0.00    +0.000 OA
ATOM     21  N   UNL     1      -5.372   5.188 119.965  0.00  0.00    +0.000 N 
ATOM     22  O   UNL     1      -4.576   5.872 120.620  0.00  0.00    +0.000 OA
ENDBRANCH   1  21
TORSDOF 2
ENDMDL
MODEL 5
REMARK VINA RESULT:      -7.1      2.798      4.948
REMARK  Name = Nitrazepam
REMARK  2 active torsions:
REMARK  status: ('A' for Active; 'I' for Inactive)
REMARK    1  A    between atoms: N_2  and  C_4
REMARK    2  A    between atoms: C_13  and  C_14
REMARK                            x       y       z     vdW  Elec       q    Type
REMARK                         _______ _______ _______ _____ _____    ______ ____
ROOT
ATOM      1  C   UNL     1      -6.219   3.804 121.936  0.00  0.00    +0.000 A 
ATOM      2  C   UNL     1      -6.974   2.791 122.531  0.00  0.00    +0.000 A 
ATOM      3  C   UNL     1      -6.787   2.509 123.892  0.00  0.00    +0.000 A 
ATOM      4  C   UNL     1      -5.828   3.225 124.632  0.00  0.00    +0.000 A 
ATOM      5  N   UNL     1      -5.575   3.020 125.996  0.00  0.00    +0.000 N 
ATOM      6  C   UNL     1      -6.505   2.718 126.957  0.00  0.00    +0.000 C 
ATOM      7  O   UNL     1      -6.151   2.664 128.140  0.00  0.00    +0.000 OA
ATOM      8  C   UNL     1      -7.955   2.604 126.525  0.00  0.00    +0.000 C 
ATOM      9  N   UNL     1      -8.136   1.439 125.664  0.00  0.00    +0.000 NA
ATOM     10  C   UNL     1      -7.595   1.414 124.493  0.00  0.00    +0.000 C 
ATOM     11  C   UNL     1      -5.052   4.208 123.999  0.00  0.00    +0.000 A 
ATOM     12  C   UNL     1      -5.256   4.515 122.653  0.00  0.00    +0.000 A 
ATOM     13  H   UNL     1      -4.674   3.275 126.384  0.00  0.00    +0.000 HD
ENDROOT
BRANCH  10  14
ATOM     14  C   UNL     1      -7.795   0.167 123.706  0.00  0.00    +0.000 A 
ATOM     15  C   UNL     1      -9.088  -0.200 123.325  0.00  0.00    +0.000 A 
ATOM     16  C   UNL     1      -9.315  -1.477 122.815  0.00  0.00    +0.000 A 
ATOM     17  C   UNL     1      -8.243  -2.342 122.596  0.00  0.00    +0.000 A 
ATOM     18  C   UNL     1      -6.938  -1.922 122.858  0.00  0.00    +0.000 A 
ATOM     19  C   UNL     1      -6.712  -0.683 123.461  0.00  0.00    +0.000 A 
ENDBRANCH  10  14
BRANCH   1  21
ATOM     20  O   UNL     1      -5.521   4.628 119.906  0.00  0.00    +0.000 OA
ATOM     21  N   UNL     1      -6.469   4.152 120.545  0.00  0.00    +0.000 N 
ATOM     22  O   UNL     1      -7.605   3.938 120.103  0.00  0.00    +0.000 OA
ENDBRANCH   1  21
TORSDOF 2
ENDMDL
MODEL 6
REMARK VINA RESULT:      -7.0      5.597      8.058
REMARK  Name = Nitrazepam
REMARK  2 active torsions:
REMARK  status: ('A' for Active; 'I' for Inactive)
REMARK    1  A    between atoms: N_2  and  C_4
REMARK    2  A    between atoms: C_13  and  C_14
REMARK                            x       y       z     vdW  Elec       q    Type
REMARK                         _______ _______ _______ _____ _____    ______ ____
ROOT
ATOM      1  C   UNL     1      -8.165   4.035 127.987  0.00  0.00    +0.000 A 
ATOM      2  C   UNL     1      -8.780   5.090 128.662  0.00  0.00    +0.000 A 
ATOM      3  C   UNL     1      -9.114   4.935 130.016  0.00  0.00    +0.000 A 
ATOM      4  C   UNL     1      -8.853   3.715 130.667  0.00  0.00    +0.000 A 
ATOM      5  N   UNL     1      -9.144   3.467 132.016  0.00  0.00    +0.000 N 
ATOM      6  C   UNL     1      -9.039   4.365 133.047  0.00  0.00    +0.000 C 
ATOM      7  O   UNL     1      -9.234   3.977 134.204  0.00  0.00    +0.000 OA
ATOM      8  C   UNL     1      -8.549   5.763 132.717  0.00  0.00    +0.000 C 
ATOM      9  N   UNL     1      -9.538   6.467 131.906  0.00  0.00    +0.000 NA
ATOM     10  C   UNL     1      -9.782   6.073 130.703  0.00  0.00    +0.000 C 
ATOM     11  C   UNL     1      -8.274   2.654 129.953  0.00  0.00    +0.000 A 
ATOM     12  C   UNL     1      -7.911   2.815 128.615  0.00  0.00    +0.000 A 
ATOM     13  H   UNL     1      -9.281   2.515 132.334  0.00  0.00    +0.000 HD
ENDROOT
BRANCH  10  14
ATOM     14  C   UNL     1     -10.838   6.822 129.970  0.00  0.00    +0.000 A 
ATOM     15  C   UNL     1     -12.131   6.296 129.911  0.00  0.00    +0.000 A 
ATOM     16  C   UNL     1     -13.056   6.849 129.026  0.00  0.00    +0.000 A 
ATOM     17  C   UNL     1     -12.719   7.980 128.282  0.00  0.00    +0.000 A 
ATOM     18  C   UNL     1     -11.468   8.578 128.442  0.00  0.00    +0.000 A 
ATOM     19  C   UNL     1     -10.504   7.974 129.250  0.00  0.00    +0.000 A 
ENDBRANCH  10  14
BRANCH   1  21
ATOM     20  O   UNL     1      -8.439   3.691 125.730  0.00  0.00    +0.000 OA
ATOM     21  N   UNL     1      -7.745   4.224 126.606  0.00  0.00    +0.000 N 
ATOM     22  O   UNL     1      -6.734   4.909 126.411  0.00  0.00    +0.000 OA
ENDBRANCH   1  21
TORSDOF 2
ENDMDL
MODEL 7
REMARK VINA RESULT:      -6.8      4.584      6.538
REMARK  Name = Nitrazepam
REMARK  2 active torsions:
REMARK  status: ('A' for Active; 'I' for Inactive)
REMARK    1  A    between atoms: N_2  and  C_4
REMARK    2  A    between atoms: C_13  and  C_14
REMARK                            x       y       z     vdW  Elec       q    Type
REMARK                         _______ _______ _______ _____ _____    ______ ____
ROOT
ATOM      1  C   UNL     1      -7.869   1.257 127.239  0.00  0.00    +0.000 A 
ATOM      2  C   UNL     1      -8.230   0.001 126.749  0.00  0.00    +0.000 A 
ATOM      3  C   UNL     1      -7.759  -1.149 127.400  0.00  0.00    +0.000 A 
ATOM      4  C   UNL     1      -6.909  -1.025 128.515  0.00  0.00    +0.000 A 
ATOM      5  N   UNL     1      -6.394  -2.113 129.234  0.00  0.00    +0.000 N 
ATOM      6  C   UNL     1      -7.046  -3.288 129.505  0.00  0.00    +0.000 C 
ATOM      7  O   UNL     1      -6.503  -4.121 130.238  0.00  0.00    +0.000 OA
ATOM      8  C   UNL     1      -8.468  -3.440 128.998  0.00  0.00    +0.000 C 
ATOM      9  N   UNL     1      -8.480  -3.507 127.539  0.00  0.00    +0.000 NA
ATOM     10  C   UNL     1      -8.149  -2.473 126.845  0.00  0.00    +0.000 C 
ATOM     11  C   UNL     1      -6.526   0.250 128.960  0.00  0.00    +0.000 A 
ATOM     12  C   UNL     1      -7.018   1.397 128.336  0.00  0.00    +0.000 A 
ATOM     13  H   UNL     1      -5.539  -2.004 129.766  0.00  0.00    +0.000 HD
ENDROOT
BRANCH  10  14
ATOM     14  C   UNL     1      -8.146  -2.650 125.367  0.00  0.00    +0.000 A 
ATOM     15  C   UNL     1      -6.988  -2.346 124.646  0.00  0.00    +0.000 A 
ATOM     16  C   UNL     1      -7.049  -2.264 123.256  0.00  0.00    +0.000 A 
ATOM     17  C   UNL     1      -8.232  -2.583 122.589  0.00  0.00    +0.000 A 
ATOM     18  C   UNL     1      -9.349  -3.011 123.308  0.00  0.00    +0.000 A 
ATOM     19  C   UNL     1      -9.326  -3.000 124.704  0.00  0.00    +0.000 A 
ENDBRANCH  10  14
BRANCH   1  21
ATOM     20  O   UNL     1      -9.002   2.298 125.530  0.00  0.00    +0.000 OA
ATOM     21  N   UNL     1      -8.423   2.450 126.613  0.00  0.00    +0.000 N 
ATOM     22  O   UNL     1      -8.282   3.521 127.215  0.00  0.00    +0.000 OA
ENDBRANCH   1  21
TORSDOF 2
ENDMDL
MODEL 8
REMARK VINA RESULT:      -6.8      7.266      9.123
REMARK  Name = Nitrazepam
REMARK  2 active torsions:
REMARK  status: ('A' for Active; 'I' for Inactive)
REMARK    1  A    between atoms: N_2  and  C_4
REMARK    2  A    between atoms: C_13  and  C_14
REMARK                            x       y       z     vdW  Elec       q    Type
REMARK                         _______ _______ _______ _____ _____    ______ ____
ROOT
ATOM      1  C   UNL     1      -6.307   5.440 130.272  0.00  0.00    +0.000 A 
ATOM      2  C   UNL     1      -7.322   4.503 130.073  0.00  0.00    +0.000 A 
ATOM      3  C   UNL     1      -8.600   4.758 130.593  0.00  0.00    +0.000 A 
ATOM      4  C   UNL     1      -8.836   5.934 131.329  0.00  0.00    +0.000 A 
ATOM      5  N   UNL     1     -10.078   6.278 131.881  0.00  0.00    +0.000 N 
ATOM      6  C   UNL     1     -11.308   6.044 131.321  0.00  0.00    +0.000 C 
ATOM      7  O   UNL     1     -12.316   6.494 131.876  0.00  0.00    +0.000 OA
ATOM      8  C   UNL     1     -11.348   5.359 129.968  0.00  0.00    +0.000 C 
ATOM      9  N   UNL     1     -10.888   3.978 130.086  0.00  0.00    +0.000 NA
ATOM     10  C   UNL     1      -9.657   3.733 130.377  0.00  0.00    +0.000 C 
ATOM     11  C   UNL     1      -7.786   6.838 131.552  0.00  0.00    +0.000 A 
ATOM     12  C   UNL     1      -6.522   6.605 131.010  0.00  0.00    +0.000 A 
ATOM     13  H   UNL     1     -10.119   6.908 132.674  0.00  0.00    +0.000 HD
ENDROOT
BRANCH  10  14
ATOM     14  C   UNL     1      -9.291   2.298 130.523  0.00  0.00    +0.000 A 
ATOM     15  C   UNL     1      -9.582   1.638 131.719  0.00  0.00    +0.000 A 
ATOM     16  C   UNL     1      -9.025   0.383 131.962  0.00  0.00    +0.000 A 
ATOM     17  C   UNL     1      -8.267  -0.247 130.975  0.00  0.00    +0.000 A 
ATOM     18  C   UNL     1      -8.088   0.362 129.732  0.00  0.00    +0.000 A 
ATOM     19  C   UNL     1      -8.558   1.659 129.517  0.00  0.00    +0.000 A 
ENDBRANCH  10  14
BRANCH   1  21
ATOM     20  O   UNL     1      -4.155   4.634 130.353  0.00  0.00    +0.000 OA
ATOM     21  N   UNL     1      -5.003   5.215 129.664  0.00  0.00    +0.000 N 
ATOM     22  O   UNL     1      -4.844   5.613 128.504  0.00  0.00    +0.000 OA
ENDBRANCH   1  21
TORSDOF 2
ENDMDL
MODEL 9
REMARK VINA RESULT:      -6.7      7.221      9.451
REMARK  Name = Nitrazepam
REMARK  2 active torsions:
REMARK  status: ('A' for Active; 'I' for Inactive)
REMARK    1  A    between atoms: N_2  and  C_4
REMARK    2  A    between atoms: C_13  and  C_14
REMARK                            x       y       z     vdW  Elec       q    Type
REMARK                         _______ _______ _______ _____ _____    ______ ____
ROOT
ATOM      1  C   UNL     1      -7.730   0.126 132.170  0.00  0.00    +0.000 A 
ATOM      2  C   UNL     1      -7.763  -1.023 131.378  0.00  0.00    +0.000 A 
ATOM      3  C   UNL     1      -6.619  -1.832 131.297  0.00  0.00    +0.000 A 
ATOM      4  C   UNL     1      -5.450  -1.463 131.988  0.00  0.00    +0.000 A 
ATOM      5  N   UNL     1      -4.263  -2.209 131.974  0.00  0.00    +0.000 N 
ATOM      6  C   UNL     1      -4.164  -3.577 131.959  0.00  0.00    +0.000 C 
ATOM      7  O   UNL     1      -3.047  -4.099 132.050  0.00  0.00    +0.000 OA
ATOM      8  C   UNL     1      -5.452  -4.378 131.972  0.00  0.00    +0.000 C 
ATOM      9  N   UNL     1      -6.176  -4.191 130.718  0.00  0.00    +0.000 NA
ATOM     10  C   UNL     1      -6.681  -3.040 130.432  0.00  0.00    +0.000 C 
ATOM     11  C   UNL     1      -5.430  -0.280 132.742  0.00  0.00    +0.000 A 
ATOM     12  C   UNL     1      -6.575   0.511 132.852  0.00  0.00    +0.000 A 
ATOM     13  H   UNL     1      -3.379  -1.751 132.165  0.00  0.00    +0.000 HD
ENDROOT
BRANCH  10  14
ATOM     14  C   UNL     1      -7.360  -2.933 129.112  0.00  0.00    +0.000 A 
ATOM     15  C   UNL     1      -8.535  -3.656 128.888  0.00  0.00    +0.000 A 
ATOM     16  C   UNL     1      -9.036  -3.764 127.592  0.00  0.00    +0.000 A 
ATOM     17  C   UNL     1      -8.423  -3.072 126.547  0.00  0.00    +0.000 A 
ATOM     18  C   UNL     1      -7.326  -2.247 126.800  0.00  0.00    +0.000 A 
ATOM     19  C   UNL     1      -6.760  -2.212 128.075  0.00  0.00    +0.000 A 
ENDBRANCH  10  14
BRANCH   1  21
ATOM     20  O   UNL     1      -9.968   0.486 131.782  0.00  0.00    +0.000 OA
ATOM     21  N   UNL     1      -8.940   0.921 132.319  0.00  0.00    +0.000 N 
ATOM     22  O   UNL     1      -8.854   1.965 132.976  0.00  0.00    +0.000 OA
ENDBRANCH   1  21
TORSDOF 2
ENDMDL
