MODEL 1
REMARK VINA RESULT:      -6.5      0.000      0.000
REMARK  Name = Nitrofurantoin
REMARK  3 active torsions:
REMARK  status: ('A' for Active; 'I' for Inactive)
REMARK    1  A    between atoms: N_2  and  C_4
REMARK    2  A    between atoms: C_7  and  C_9
REMARK    3  A    between atoms: N_10  and  N_11
REMARK                            x       y       z     vdW  Elec       q    Type
REMARK                         _______ _______ _______ _____ _____    ______ ____
ROOT
ATOM      1  C   UNL     1      -9.390   6.933 130.735  0.00  0.00    +0.000 C 
ATOM      2  N   UNL     1      -9.673   7.258 129.503  0.00  0.00    +0.000 NA
ENDROOT
BRANCH   2   3
ATOM      3  N   UNL     1     -10.989   7.433 129.151  0.00  0.00    +0.000 N 
ATOM      4  C   UNL     1     -11.511   8.745 128.833  0.00  0.00    +0.000 C 
ATOM      5  C   UNL     1     -12.963   8.402 128.558  0.00  0.00    +0.000 C 
ATOM      6  O   UNL     1     -13.830   9.188 128.208  0.00  0.00    +0.000 OA
ATOM      7  N   UNL     1     -13.155   7.073 128.763  0.00  0.00    +0.000 N 
ATOM      8  C   UNL     1     -12.005   6.469 129.168  0.00  0.00    +0.000 C 
ATOM      9  O   UNL     1     -11.913   5.289 129.485  0.00  0.00    +0.000 OA
ATOM     10  H   UNL     1     -14.038   6.603 128.656  0.00  0.00    +0.000 HD
ENDBRANCH   2   3
BRANCH   1  14
ATOM     11  C   UNL     1      -5.807   7.042 131.070  0.00  0.00    +0.000 A 
ATOM     12  C   UNL     1      -6.055   6.215 132.134  0.00  0.00    +0.000 A 
ATOM     13  C   UNL     1      -7.457   6.066 132.172  0.00  0.00    +0.000 A 
ATOM     14  C   UNL     1      -7.994   6.788 131.118  0.00  0.00    +0.000 A 
ATOM     15  O   UNL     1      -6.963   7.414 130.428  0.00  0.00    +0.000 OA
BRANCH  11  17
ATOM     16  O   UNL     1      -3.644   7.624 131.420  0.00  0.00    +0.000 OA
ATOM     17  N   UNL     1      -4.547   7.508 130.576  0.00  0.00    +0.000 N 
ATOM     18  O   UNL     1      -4.475   7.836 129.387  0.00  0.00    +0.000 OA
ENDBRANCH  11  17
ENDBRANCH   1  14
TORSDOF 3
ENDMDL
MODEL 2
REMARK VINA RESULT:      -6.3      3.504      4.382
REMARK  Name = Nitrofurantoin
REMARK  3 active torsions:
REMARK  status: ('A' for Active; 'I' for Inactive)
REMARK    1  A    between atoms: N_2  and  C_4
REMARK    2  A    between atoms: C_7  and  C_9
REMARK    3  A    between atoms: N_10  and  N_11
REMARK                            x       y       z     vdW  Elec       q    Type
REMARK                         _______ _______ _______ _____ _____    ______ ____
ROOT
ATOM      1  C   UNL     1     -10.109   6.356 131.531  0.00  0.00    +0.000 C 
ATOM      2  N   UNL     1     -10.969   6.192 130.563  0.00  0.00    +0.000 NA
ENDROOT
BRANCH   2   3
ATOM      3  N   UNL     1     -11.388   7.292 129.857  0.00  0.00    +0.000 N 
ATOM      4  C   UNL     1     -12.566   8.034 130.255  0.00  0.00    +0.000 C 
ATOM      5  C   UNL     1     -12.607   9.088 129.164  0.00  0.00    +0.000 C 
ATOM      6  O   UNL     1     -13.420   9.995 129.076  0.00  0.00    +0.000 OA
ATOM      7  N   UNL     1     -11.590   8.867 128.291  0.00  0.00    +0.000 N 
ATOM      8  C   UNL     1     -10.869   7.769 128.646  0.00  0.00    +0.000 C 
ATOM      9  O   UNL     1      -9.939   7.307 127.997  0.00  0.00    +0.000 OA
ATOM     10  H   UNL     1     -11.411   9.426 127.474  0.00  0.00    +0.000 HD
ENDBRANCH   2   3
BRANCH   1  14
ATOM     11  C   UNL     1      -9.188   3.073 132.686  0.00  0.00    +0.000 A 
ATOM     12  C   UNL     1      -8.755   3.770 133.784  0.00  0.00    +0.000 A 
ATOM     13  C   UNL     1      -9.027   5.123 133.497  0.00  0.00    +0.000 A 
ATOM     14  C   UNL     1      -9.633   5.185 132.252  0.00  0.00    +0.000 A 
ATOM     15  O   UNL     1      -9.727   3.900 131.731  0.00  0.00    +0.000 OA
BRANCH  11  17
ATOM     16  O   UNL     1     -10.184   1.174 131.951  0.00  0.00    +0.000 OA
ATOM     17  N   UNL     1      -9.161   1.660 132.458  0.00  0.00    +0.000 N 
ATOM     18  O   UNL     1      -8.176   1.027 132.853  0.00  0.00    +0.000 OA
ENDBRANCH  11  17
ENDBRANCH   1  14
TORSDOF 3
ENDMDL
MODEL 3
REMARK VINA RESULT:      -6.2      1.805      2.387
REMARK  Name = Nitrofurantoin
REMARK  3 active torsions:
REMARK  status: ('A' for Active; 'I' for Inactive)
REMARK    1  A    between atoms: N_2  and  C_4
REMARK    2  A    between atoms: C_7  and  C_9
REMARK    3  A    between atoms: N_10  and  N_11
REMARK                            x       y       z     vdW  Elec       q    Type
REMARK                         _______ _______ _______ _____ _____    ______ ____
ROOT
ATOM      1  C   UNL     1      -7.857   6.899 131.214  0.00  0.00    +0.000 C 
ATOM      2  N   UNL     1      -8.522   7.022 130.098  0.00  0.00    +0.000 NA
ENDROOT
BRANCH   2   3
ATOM      3  N   UNL     1      -9.875   7.252 130.155  0.00  0.00    +0.000 N 
ATOM      4  C   UNL     1     -10.690   6.667 131.198  0.00  0.00    +0.000 C 
ATOM      5  C   UNL     1     -12.059   7.184 130.797  0.00  0.00    +0.000 C 
ATOM      6  O   UNL     1     -13.103   6.987 131.400  0.00  0.00    +0.000 OA
ATOM      7  N   UNL     1     -11.947   7.906 129.652  0.00  0.00    +0.000 N 
ATOM      8  C   UNL     1     -10.660   7.927 129.211  0.00  0.00    +0.000 C 
ATOM      9  O   UNL     1     -10.290   8.451 128.167  0.00  0.00    +0.000 OA
ATOM     10  H   UNL     1     -12.718   8.346 129.179  0.00  0.00    +0.000 HD
ENDBRANCH   2   3
BRANCH   1  14
ATOM     11  C   UNL     1      -4.376   6.651 130.331  0.00  0.00    +0.000 A 
ATOM     12  C   UNL     1      -4.259   6.205 131.621  0.00  0.00    +0.000 A 
ATOM     13  C   UNL     1      -5.565   6.250 132.151  0.00  0.00    +0.000 A 
ATOM     14  C   UNL     1      -6.418   6.698 131.155  0.00  0.00    +0.000 A 
ATOM     15  O   UNL     1      -5.675   6.964 130.010  0.00  0.00    +0.000 OA
BRANCH  11  17
ATOM     16  O   UNL     1      -3.748   7.029 128.186  0.00  0.00    +0.000 OA
ATOM     17  N   UNL     1      -3.354   6.793 129.339  0.00  0.00    +0.000 N 
ATOM     18  O   UNL     1      -2.184   6.589 129.678  0.00  0.00    +0.000 OA
ENDBRANCH  11  17
ENDBRANCH   1  14
TORSDOF 3
ENDMDL
MODEL 4
REMARK VINA RESULT:      -6.1      9.913     10.634
REMARK  Name = Nitrofurantoin
REMARK  3 active torsions:
REMARK  status: ('A' for Active; 'I' for Inactive)
REMARK    1  A    between atoms: N_2  and  C_4
REMARK    2  A    between atoms: C_7  and  C_9
REMARK    3  A    between atoms: N_10  and  N_11
REMARK                            x       y       z     vdW  Elec       q    Type
REMARK                         _______ _______ _______ _____ _____    ______ ____
ROOT
ATOM      1  C   UNL     1      -7.166   1.030 123.849  0.00  0.00    +0.000 C 
ATOM      2  N   UNL     1      -6.964   0.041 123.023  0.00  0.00    +0.000 NA
ENDROOT
BRANCH   2   3
ATOM      3  N   UNL     1      -7.552  -1.172 123.287  0.00  0.00    +0.000 N 
ATOM      4  C   UNL     1      -8.929  -1.432 122.925  0.00  0.00    +0.000 C 
ATOM      5  C   UNL     1      -9.087  -2.847 123.448  0.00  0.00    +0.000 C 
ATOM      6  O   UNL     1     -10.090  -3.538 123.352  0.00  0.00    +0.000 OA
ATOM      7  N   UNL     1      -7.932  -3.233 124.049  0.00  0.00    +0.000 N 
ATOM      8  C   UNL     1      -7.006  -2.237 124.016  0.00  0.00    +0.000 C 
ATOM      9  O   UNL     1      -5.901  -2.295 124.542  0.00  0.00    +0.000 OA
ATOM     10  H   UNL     1      -7.789  -4.129 124.485  0.00  0.00    +0.000 HD
ENDBRANCH   2   3
BRANCH   1  14
ATOM     11  C   UNL     1      -5.740   3.984 122.366  0.00  0.00    +0.000 A 
ATOM     12  C   UNL     1      -5.688   4.403 123.669  0.00  0.00    +0.000 A 
ATOM     13  C   UNL     1      -6.239   3.347 124.423  0.00  0.00    +0.000 A 
ATOM     14  C   UNL     1      -6.578   2.326 123.548  0.00  0.00    +0.000 A 
ATOM     15  O   UNL     1      -6.278   2.725 122.251  0.00  0.00    +0.000 OA
BRANCH  11  17
ATOM     16  O   UNL     1      -4.479   5.583 121.371  0.00  0.00    +0.000 OA
ATOM     17  N   UNL     1      -5.298   4.669 121.189  0.00  0.00    +0.000 N 
ATOM     18  O   UNL     1      -5.817   4.363 120.110  0.00  0.00    +0.000 OA
ENDBRANCH  11  17
ENDBRANCH   1  14
TORSDOF 3
ENDMDL
MODEL 5
REMARK VINA RESULT:      -6.0      4.189      7.291
REMARK  Name = Nitrofurantoin
REMARK  3 active torsions:
REMARK  status: ('A' for Active; 'I' for Inactive)
REMARK    1  A    between atoms: N_2  and  C_4
REMARK    2  A    between atoms: C_7  and  C_9
REMARK    3  A    between atoms: N_10  and  N_11
REMARK                            x       y       z     vdW  Elec       q    Type
REMARK                         _______ _______ _______ _____ _____    ______ ____
ROOT
ATOM      1  C   UNL     1     -10.201   4.690 130.795  0.00  0.00    +0.000 C 
ATOM      2  N   UNL     1     -10.459   3.413 130.734  0.00  0.00    +0.000 NA
ENDROOT
BRANCH   2   3
ATOM      3  N   UNL     1      -9.505   2.523 131.162  0.00  0.00    +0.000 N 
ATOM      4  C   UNL     1      -9.178   2.392 132.567  0.00  0.00    +0.000 C 
ATOM      5  C   UNL     1      -8.083   1.345 132.496  0.00  0.00    +0.000 C 
ATOM      6  O   UNL     1      -7.494   0.861 133.451  0.00  0.00    +0.000 OA
ATOM      7  N   UNL     1      -7.854   1.024 131.196  0.00  0.00    +0.000 N 
ATOM      8  C   UNL     1      -8.653   1.747 130.365  0.00  0.00    +0.000 C 
ATOM      9  O   UNL     1      -8.607   1.702 129.142  0.00  0.00    +0.000 OA
ATOM     10  H   UNL     1      -7.166   0.358 130.888  0.00  0.00    +0.000 HD
ENDBRANCH   2   3
BRANCH   1  14
ATOM     11  C   UNL     1     -12.549   6.789 129.051  0.00  0.00    +0.000 A 
ATOM     12  C   UNL     1     -12.861   7.198 130.321  0.00  0.00    +0.000 A 
ATOM     13  C   UNL     1     -12.025   6.447 131.171  0.00  0.00    +0.000 A 
ATOM     14  C   UNL     1     -11.227   5.634 130.381  0.00  0.00    +0.000 A 
ATOM     15  O   UNL     1     -11.560   5.836 129.046  0.00  0.00    +0.000 OA
BRANCH  11  17
ATOM     16  O   UNL     1     -12.651   6.688 126.789  0.00  0.00    +0.000 OA
ATOM     17  N   UNL     1     -13.095   7.241 127.807  0.00  0.00    +0.000 N 
ATOM     18  O   UNL     1     -13.887   8.189 127.831  0.00  0.00    +0.000 OA
ENDBRANCH  11  17
ENDBRANCH   1  14
TORSDOF 3
ENDMDL
MODEL 6
REMARK VINA RESULT:      -6.0      5.178      6.142
REMARK  Name = Nitrofurantoin
REMARK  3 active torsions:
REMARK  status: ('A' for Active; 'I' for Inactive)
REMARK    1  A    between atoms: N_2  and  C_4
REMARK    2  A    between atoms: C_7  and  C_9
REMARK    3  A    between atoms: N_10  and  N_11
REMARK                            x       y       z     vdW  Elec       q    Type
REMARK                         _______ _______ _______ _____ _____    ______ ____
ROOT
ATOM      1  C   UNL     1      -4.576   4.865 126.823  0.00  0.00    +0.000 C 
ATOM      2  N   UNL     1      -5.649   5.402 126.311  0.00  0.00    +0.000 NA
ENDROOT
BRANCH   2   3
ATOM      3  N   UNL     1      -6.389   4.675 125.411  0.00  0.00    +0.000 N 
ATOM      4  C   UNL     1      -5.751   3.924 124.351  0.00  0.00    +0.000 C 
ATOM      5  C   UNL     1      -6.969   3.355 123.648  0.00  0.00    +0.000 C 
ATOM      6  O   UNL     1      -6.954   2.606 122.683  0.00  0.00    +0.000 OA
ATOM      7  N   UNL     1      -8.093   3.812 124.260  0.00  0.00    +0.000 N 
ATOM      8  C   UNL     1      -7.785   4.646 125.290  0.00  0.00    +0.000 C 
ATOM      9  O   UNL     1      -8.608   5.247 125.968  0.00  0.00    +0.000 OA
ATOM     10  H   UNL     1      -9.030   3.584 123.972  0.00  0.00    +0.000 HD
ENDBRANCH   2   3
BRANCH   1  14
ATOM     11  C   UNL     1      -3.370   7.108 129.368  0.00  0.00    +0.000 A 
ATOM     12  C   UNL     1      -2.193   6.440 129.154  0.00  0.00    +0.000 A 
ATOM     13  C   UNL     1      -2.485   5.477 128.166  0.00  0.00    +0.000 A 
ATOM     14  C   UNL     1      -3.816   5.619 127.808  0.00  0.00    +0.000 A 
ATOM     15  O   UNL     1      -4.383   6.635 128.568  0.00  0.00    +0.000 OA
BRANCH  11  17
ATOM     16  O   UNL     1      -3.998   9.255 129.734  0.00  0.00    +0.000 OA
ATOM     17  N   UNL     1      -3.631   8.195 130.263  0.00  0.00    +0.000 N 
ATOM     18  O   UNL     1      -3.394   8.027 131.464  0.00  0.00    +0.000 OA
ENDBRANCH  11  17
ENDBRANCH   1  14
TORSDOF 3
ENDMDL
MODEL 7
REMARK VINA RESULT:      -5.9      1.972      7.240
REMARK  Name = Nitrofurantoin
REMARK  3 active torsions:
REMARK  status: ('A' for Active; 'I' for Inactive)
REMARK    1  A    between atoms: N_2  and  C_4
REMARK    2  A    between atoms: C_7  and  C_9
REMARK    3  A    between atoms: N_10  and  N_11
REMARK                            x       y       z     vdW  Elec       q    Type
REMARK                         _______ _______ _______ _____ _____    ______ ____
ROOT
ATOM      1  C   UNL     1      -6.577   6.886 131.038  0.00  0.00    +0.000 C 
ATOM      2  N   UNL     1      -5.906   6.320 130.073  0.00  0.00    +0.000 NA
ENDROOT
BRANCH   2   3
ATOM      3  N   UNL     1      -4.536   6.414 130.075  0.00  0.00    +0.000 N 
ATOM      4  C   UNL     1      -3.794   6.500 131.315  0.00  0.00    +0.000 C 
ATOM      5  C   UNL     1      -2.379   6.617 130.779  0.00  0.00    +0.000 C 
ATOM      6  O   UNL     1      -1.362   6.684 131.453  0.00  0.00    +0.000 OA
ATOM      7  N   UNL     1      -2.416   6.638 129.421  0.00  0.00    +0.000 N 
ATOM      8  C   UNL     1      -3.696   6.569 128.965  0.00  0.00    +0.000 C 
ATOM      9  O   UNL     1      -4.018   6.634 127.785  0.00  0.00    +0.000 OA
ATOM     10  H   UNL     1      -1.604   6.720 128.832  0.00  0.00    +0.000 HD
ENDBRANCH   2   3
BRANCH   1  14
ATOM     11  C   UNL     1     -10.118   6.891 130.385  0.00  0.00    +0.000 A 
ATOM     12  C   UNL     1     -10.172   6.309 131.624  0.00  0.00    +0.000 A 
ATOM     13  C   UNL     1      -8.831   6.207 132.047  0.00  0.00    +0.000 A 
ATOM     14  C   UNL     1      -8.026   6.751 131.058  0.00  0.00    +0.000 A 
ATOM     15  O   UNL     1      -8.828   7.173 130.005  0.00  0.00    +0.000 OA
BRANCH  11  17
ATOM     16  O   UNL     1     -11.826   8.265 129.809  0.00  0.00    +0.000 OA
ATOM     17  N   UNL     1     -11.199   7.236 129.512  0.00  0.00    +0.000 N 
ATOM     18  O   UNL     1     -11.478   6.455 128.596  0.00  0.00    +0.000 OA
ENDBRANCH  11  17
ENDBRANCH   1  14
TORSDOF 3
ENDMDL
MODEL 8
REMARK VINA RESULT:      -5.9      9.314     10.024
REMARK  Name = Nitrofurantoin
REMARK  3 active torsions:
REMARK  status: ('A' for Active; 'I' for Inactive)
REMARK    1  A    between atoms: N_2  and  C_4
REMARK    2  A    between atoms: C_7  and  C_9
REMARK    3  A    between atoms: N_10  and  N_11
REMARK                            x       y       z     vdW  Elec       q    Type
REMARK                         _______ _______ _______ _____ _____    ______ ____
ROOT
ATOM      1  C   UNL     1      -8.372  -1.207 125.435  0.00  0.00    +0.000 C 
ATOM      2  N   UNL     1      -9.356  -0.365 125.273  0.00  0.00    +0.000 NA
ENDROOT
BRANCH   2   3
ATOM      3  N   UNL     1      -9.299   0.526 124.229  0.00  0.00    +0.000 N 
ATOM      4  C   UNL     1      -8.718   1.841 124.397  0.00  0.00    +0.000 C 
ATOM      5  C   UNL     1      -8.931   2.413 123.008  0.00  0.00    +0.000 C 
ATOM      6  O   UNL     1      -8.573   3.516 122.626  0.00  0.00    +0.000 OA
ATOM      7  N   UNL     1      -9.590   1.502 122.245  0.00  0.00    +0.000 N 
ATOM      8  C   UNL     1      -9.871   0.378 122.959  0.00  0.00    +0.000 C 
ATOM      9  O   UNL     1     -10.514  -0.574 122.533  0.00  0.00    +0.000 OA
ATOM     10  H   UNL     1      -9.857   1.650 121.286  0.00  0.00    +0.000 HD
ENDBRANCH   2   3
BRANCH   1  14
ATOM     11  C   UNL     1      -8.068  -3.126 128.465  0.00  0.00    +0.000 A 
ATOM     12  C   UNL     1      -8.934  -3.966 127.815  0.00  0.00    +0.000 A 
ATOM     13  C   UNL     1      -9.189  -3.350 126.573  0.00  0.00    +0.000 A 
ATOM     14  C   UNL     1      -8.451  -2.178 126.515  0.00  0.00    +0.000 A 
ATOM     15  O   UNL     1      -7.752  -2.026 127.706  0.00  0.00    +0.000 OA
BRANCH  11  17
ATOM     16  O   UNL     1      -7.814  -2.443 130.612  0.00  0.00    +0.000 OA
ATOM     17  N   UNL     1      -7.477  -3.281 129.760  0.00  0.00    +0.000 N 
ATOM     18  O   UNL     1      -6.627  -4.165 129.909  0.00  0.00    +0.000 OA
ENDBRANCH  11  17
ENDBRANCH   1  14
TORSDOF 3
ENDMDL
MODEL 9
REMARK VINA RESULT:      -5.8      9.596     10.534
REMARK  Name = Nitrofurantoin
REMARK  3 active torsions:
REMARK  status: ('A' for Active; 'I' for Inactive)
REMARK    1  A    between atoms: N_2  and  C_4
REMARK    2  A    between atoms: C_7  and  C_9
REMARK    3  A    between atoms: N_10  and  N_11
REMARK                            x       y       z     vdW  Elec       q    Type
REMARK                         _______ _______ _______ _____ _____    ______ ____
ROOT
ATOM      1  C   UNL     1      -7.267   2.462 123.318  0.00  0.00    +0.000 C 
ATOM      2  N   UNL     1      -7.241   1.159 123.246  0.00  0.00    +0.000 NA
ENDROOT
BRANCH   2   3
ATOM      3  N   UNL     1      -7.775   0.429 124.279  0.00  0.00    +0.000 N 
ATOM      4  C   UNL     1      -7.054   0.252 125.522  0.00  0.00    +0.000 C 
ATOM      5  C   UNL     1      -8.030  -0.628 126.281  0.00  0.00    +0.000 C 
ATOM      6  O   UNL     1      -7.888  -1.033 127.425  0.00  0.00    +0.000 OA
ATOM      7  N   UNL     1      -9.098  -0.901 125.486  0.00  0.00    +0.000 N 
ATOM      8  C   UNL     1      -8.956  -0.326 124.261  0.00  0.00    +0.000 C 
ATOM      9  O   UNL     1      -9.741  -0.465 123.332  0.00  0.00    +0.000 OA
ATOM     10  H   UNL     1      -9.878  -1.475 125.759  0.00  0.00    +0.000 HD
ENDBRANCH   2   3
BRANCH   1  14
ATOM     11  C   UNL     1      -6.664   4.243 120.248  0.00  0.00    +0.000 A 
ATOM     12  C   UNL     1      -5.436   4.457 120.816  0.00  0.00    +0.000 A 
ATOM     13  C   UNL     1      -5.492   3.825 122.075  0.00  0.00    +0.000 A 
ATOM     14  C   UNL     1      -6.740   3.236 122.205  0.00  0.00    +0.000 A 
ATOM     15  O   UNL     1      -7.486   3.504 121.064  0.00  0.00    +0.000 OA
BRANCH  11  17
ATOM     16  O   UNL     1      -6.317   5.257 118.251  0.00  0.00    +0.000 OA
ATOM     17  N   UNL     1      -7.139   4.660 118.963  0.00  0.00    +0.000 N 
ATOM     18  O   UNL     1      -8.331   4.475 118.698  0.00  0.00    +0.000 OA
ENDBRANCH  11  17
ENDBRANCH   1  14
TORSDOF 3
ENDMDL
