MODEL 1
REMARK VINA RESULT:      -6.3      0.000      0.000
REMARK  Name = Nitrofural
REMARK  3 active torsions:
REMARK  status: ('A' for Active; 'I' for Inactive)
REMARK    1  A    between atoms: N_4  and  N_5
REMARK    2  A    between atoms: C_6  and  C_7
REMARK    3  A    between atoms: C_10  and  N_12
REMARK                            x       y       z     vdW  Elec       q    Type
REMARK                         _______ _______ _______ _____ _____    ______ ____
ROOT
ATOM      1  N   UNL     1     -10.326   6.258 131.774  0.00  0.00    +0.000 NA
ATOM      2  C   UNL     1     -11.434   6.305 131.096  0.00  0.00    +0.000 C 
ENDROOT
BRANCH   1   6
ATOM      3  N   UNL     1      -9.159   4.135 134.430  0.00  0.00    +0.000 N 
ATOM      4  C   UNL     1      -9.117   4.836 133.262  0.00  0.00    +0.000 C 
ATOM      5  O   UNL     1      -8.091   4.791 132.582  0.00  0.00    +0.000 OA
ATOM      6  N   UNL     1     -10.266   5.545 132.956  0.00  0.00    +0.000 N 
ATOM      7  H   UNL     1      -8.319   3.616 134.662  0.00  0.00    +0.000 HD
ATOM      8  H   UNL     1      -9.934   4.085 135.069  0.00  0.00    +0.000 HD
ATOM      9  H   UNL     1     -11.056   5.529 133.588  0.00  0.00    +0.000 HD
ENDBRANCH   1   6
BRANCH   2  10
ATOM     10  C   UNL     1     -11.462   7.030 129.832  0.00  0.00    +0.000 A 
ATOM     11  C   UNL     1     -12.152   8.188 129.507  0.00  0.00    +0.000 A 
ATOM     12  C   UNL     1     -11.896   8.482 128.151  0.00  0.00    +0.000 A 
ATOM     13  C   UNL     1     -11.065   7.482 127.707  0.00  0.00    +0.000 A 
ATOM     14  O   UNL     1     -10.750   6.602 128.718  0.00  0.00    +0.000 OA
BRANCH  13  15
ATOM     15  N   UNL     1     -10.529   7.275 126.389  0.00  0.00    +0.000 N 
ATOM     16  O   UNL     1     -10.879   8.039 125.482  0.00  0.00    +0.000 OA
ATOM     17  O   UNL     1      -9.740   6.325 126.268  0.00  0.00    +0.000 OA
ENDBRANCH  13  15
ENDBRANCH   2  10
TORSDOF 3
ENDMDL
MODEL 2
REMARK VINA RESULT:      -5.5      3.971      4.371
REMARK  Name = Nitrofural
REMARK  3 active torsions:
REMARK  status: ('A' for Active; 'I' for Inactive)
REMARK    1  A    between atoms: N_4  and  N_5
REMARK    2  A    between atoms: C_6  and  C_7
REMARK    3  A    between atoms: C_10  and  N_12
REMARK                            x       y       z     vdW  Elec       q    Type
REMARK                         _______ _______ _______ _____ _____    ______ ____
ROOT
ATOM      1  N   UNL     1      -6.479   7.324 130.673  0.00  0.00    +0.000 NA
ATOM      2  C   UNL     1      -7.449   6.679 131.250  0.00  0.00    +0.000 C 
ENDROOT
BRANCH   1   6
ATOM      3  N   UNL     1      -2.916   6.867 130.537  0.00  0.00    +0.000 N 
ATOM      4  C   UNL     1      -4.171   7.148 130.088  0.00  0.00    +0.000 C 
ATOM      5  O   UNL     1      -4.324   7.429 128.899  0.00  0.00    +0.000 OA
ATOM      6  N   UNL     1      -5.169   7.088 131.046  0.00  0.00    +0.000 N 
ATOM      7  H   UNL     1      -2.179   6.913 129.842  0.00  0.00    +0.000 HD
ATOM      8  H   UNL     1      -2.659   6.620 131.478  0.00  0.00    +0.000 HD
ATOM      9  H   UNL     1      -4.941   6.859 132.004  0.00  0.00    +0.000 HD
ENDBRANCH   1   6
BRANCH   2  10
ATOM     10  C   UNL     1      -8.818   6.918 130.812  0.00  0.00    +0.000 A 
ATOM     11  C   UNL     1      -9.999   6.402 131.324  0.00  0.00    +0.000 A 
ATOM     12  C   UNL     1     -11.065   6.892 130.540  0.00  0.00    +0.000 A 
ATOM     13  C   UNL     1     -10.483   7.681 129.578  0.00  0.00    +0.000 A 
ATOM     14  O   UNL     1      -9.117   7.748 129.739  0.00  0.00    +0.000 OA
BRANCH  13  15
ATOM     15  N   UNL     1     -11.109   8.391 128.496  0.00  0.00    +0.000 N 
ATOM     16  O   UNL     1     -10.611   8.309 127.368  0.00  0.00    +0.000 OA
ATOM     17  O   UNL     1     -12.121   9.045 128.791  0.00  0.00    +0.000 OA
ENDBRANCH  13  15
ENDBRANCH   2  10
TORSDOF 3
ENDMDL
MODEL 3
REMARK VINA RESULT:      -5.5      7.712     10.575
REMARK  Name = Nitrofural
REMARK  3 active torsions:
REMARK  status: ('A' for Active; 'I' for Inactive)
REMARK    1  A    between atoms: N_4  and  N_5
REMARK    2  A    between atoms: C_6  and  C_7
REMARK    3  A    between atoms: C_10  and  N_12
REMARK                            x       y       z     vdW  Elec       q    Type
REMARK                         _______ _______ _______ _____ _____    ______ ____
ROOT
ATOM      1  N   UNL     1      -5.599   3.906 121.432  0.00  0.00    +0.000 NA
ATOM      2  C   UNL     1      -6.544   3.685 122.297  0.00  0.00    +0.000 C 
ENDROOT
BRANCH   1   6
ATOM      3  N   UNL     1      -5.825   5.742 118.349  0.00  0.00    +0.000 N 
ATOM      4  C   UNL     1      -5.434   5.455 119.623  0.00  0.00    +0.000 C 
ATOM      5  O   UNL     1      -4.702   6.252 120.211  0.00  0.00    +0.000 OA
ATOM      6  N   UNL     1      -5.916   4.262 120.135  0.00  0.00    +0.000 N 
ATOM      7  H   UNL     1      -5.473   6.613 117.967  0.00  0.00    +0.000 HD
ATOM      8  H   UNL     1      -6.422   5.180 117.767  0.00  0.00    +0.000 HD
ATOM      9  H   UNL     1      -6.504   3.667 119.567  0.00  0.00    +0.000 HD
ENDBRANCH   1   6
BRANCH   2  10
ATOM     10  C   UNL     1      -6.184   3.348 123.669  0.00  0.00    +0.000 A 
ATOM     11  C   UNL     1      -6.539   2.235 124.415  0.00  0.00    +0.000 A 
ATOM     12  C   UNL     1      -5.982   2.378 125.704  0.00  0.00    +0.000 A 
ATOM     13  C   UNL     1      -5.318   3.581 125.688  0.00  0.00    +0.000 A 
ATOM     14  O   UNL     1      -5.390   4.180 124.450  0.00  0.00    +0.000 OA
BRANCH  13  15
ATOM     15  N   UNL     1      -4.608   4.232 126.755  0.00  0.00    +0.000 N 
ATOM     16  O   UNL     1      -3.809   3.568 127.425  0.00  0.00    +0.000 OA
ATOM     17  O   UNL     1      -4.862   5.435 126.919  0.00  0.00    +0.000 OA
ENDBRANCH  13  15
ENDBRANCH   2  10
TORSDOF 3
ENDMDL
MODEL 4
REMARK VINA RESULT:      -5.4      7.099     10.225
REMARK  Name = Nitrofural
REMARK  3 active torsions:
REMARK  status: ('A' for Active; 'I' for Inactive)
REMARK    1  A    between atoms: N_4  and  N_5
REMARK    2  A    between atoms: C_6  and  C_7
REMARK    3  A    between atoms: C_10  and  N_12
REMARK                            x       y       z     vdW  Elec       q    Type
REMARK                         _______ _______ _______ _____ _____    ______ ____
ROOT
ATOM      1  N   UNL     1      -6.367   3.996 121.124  0.00  0.00    +0.000 NA
ATOM      2  C   UNL     1      -7.428   3.462 121.653  0.00  0.00    +0.000 C 
ENDROOT
BRANCH   1   6
ATOM      3  N   UNL     1      -5.704   5.839 118.110  0.00  0.00    +0.000 N 
ATOM      4  C   UNL     1      -5.604   5.485 119.423  0.00  0.00    +0.000 C 
ATOM      5  O   UNL     1      -4.852   6.132 120.153  0.00  0.00    +0.000 OA
ATOM      6  N   UNL     1      -6.379   4.404 119.804  0.00  0.00    +0.000 N 
ATOM      7  H   UNL     1      -5.136   6.629 117.823  0.00  0.00    +0.000 HD
ATOM      8  H   UNL     1      -6.282   5.398 117.415  0.00  0.00    +0.000 HD
ATOM      9  H   UNL     1      -6.957   3.928 119.125  0.00  0.00    +0.000 HD
ENDBRANCH   1   6
BRANCH   2  10
ATOM     10  C   UNL     1      -7.403   3.075 123.058  0.00  0.00    +0.000 A 
ATOM     11  C   UNL     1      -6.986   1.881 123.625  0.00  0.00    +0.000 A 
ATOM     12  C   UNL     1      -7.191   1.965 125.019  0.00  0.00    +0.000 A 
ATOM     13  C   UNL     1      -7.733   3.209 125.237  0.00  0.00    +0.000 A 
ATOM     14  O   UNL     1      -7.840   3.925 124.066  0.00  0.00    +0.000 OA
BRANCH  13  15
ATOM     15  N   UNL     1      -8.169   3.796 126.475  0.00  0.00    +0.000 N 
ATOM     16  O   UNL     1      -8.393   5.011 126.506  0.00  0.00    +0.000 OA
ATOM     17  O   UNL     1      -8.287   3.016 127.433  0.00  0.00    +0.000 OA
ENDBRANCH  13  15
ENDBRANCH   2  10
TORSDOF 3
ENDMDL
MODEL 5
REMARK VINA RESULT:      -5.4      3.451      5.539
REMARK  Name = Nitrofural
REMARK  3 active torsions:
REMARK  status: ('A' for Active; 'I' for Inactive)
REMARK    1  A    between atoms: N_4  and  N_5
REMARK    2  A    between atoms: C_6  and  C_7
REMARK    3  A    between atoms: C_10  and  N_12
REMARK                            x       y       z     vdW  Elec       q    Type
REMARK                         _______ _______ _______ _____ _____    ______ ____
ROOT
ATOM      1  N   UNL     1     -11.755   8.411 129.200  0.00  0.00    +0.000 NA
ATOM      2  C   UNL     1     -10.532   8.180 128.822  0.00  0.00    +0.000 C 
ENDROOT
BRANCH   1   6
ATOM      3  N   UNL     1     -13.887  11.279 128.812  0.00  0.00    +0.000 N 
ATOM      4  C   UNL     1     -13.184  10.306 129.456  0.00  0.00    +0.000 C 
ATOM      5  O   UNL     1     -13.230  10.259 130.686  0.00  0.00    +0.000 OA
ATOM      6  N   UNL     1     -12.470   9.450 128.635  0.00  0.00    +0.000 N 
ATOM      7  H   UNL     1     -14.410  11.912 129.408  0.00  0.00    +0.000 HD
ATOM      8  H   UNL     1     -13.937  11.421 127.817  0.00  0.00    +0.000 HD
ATOM      9  H   UNL     1     -12.486   9.578 127.632  0.00  0.00    +0.000 HD
ENDBRANCH   1   6
BRANCH   2  10
ATOM     10  C   UNL     1      -9.811   7.055 129.404  0.00  0.00    +0.000 A 
ATOM     11  C   UNL     1      -9.271   6.930 130.675  0.00  0.00    +0.000 A 
ATOM     12  C   UNL     1      -8.633   5.674 130.756  0.00  0.00    +0.000 A 
ATOM     13  C   UNL     1      -8.807   5.091 129.525  0.00  0.00    +0.000 A 
ATOM     14  O   UNL     1      -9.554   5.891 128.689  0.00  0.00    +0.000 OA
BRANCH  13  15
ATOM     15  N   UNL     1      -8.323   3.823 129.052  0.00  0.00    +0.000 N 
ATOM     16  O   UNL     1      -7.126   3.718 128.761  0.00  0.00    +0.000 OA
ATOM     17  O   UNL     1      -9.167   2.917 128.972  0.00  0.00    +0.000 OA
ENDBRANCH  13  15
ENDBRANCH   2  10
TORSDOF 3
ENDMDL
MODEL 6
REMARK VINA RESULT:      -5.3      3.998      6.220
REMARK  Name = Nitrofural
REMARK  3 active torsions:
REMARK  status: ('A' for Active; 'I' for Inactive)
REMARK    1  A    between atoms: N_4  and  N_5
REMARK    2  A    between atoms: C_6  and  C_7
REMARK    3  A    between atoms: C_10  and  N_12
REMARK                            x       y       z     vdW  Elec       q    Type
REMARK                         _______ _______ _______ _____ _____    ______ ____
ROOT
ATOM      1  N   UNL     1      -9.410   7.457 129.869  0.00  0.00    +0.000 NA
ATOM      2  C   UNL     1      -8.975   6.914 130.968  0.00  0.00    +0.000 C 
ENDROOT
BRANCH   1   6
ATOM      3  N   UNL     1     -12.559   8.411 128.422  0.00  0.00    +0.000 N 
ATOM      4  C   UNL     1     -11.208   8.264 128.523  0.00  0.00    +0.000 C 
ATOM      5  O   UNL     1     -10.497   8.700 127.617  0.00  0.00    +0.000 OA
ATOM      6  N   UNL     1     -10.767   7.620 129.666  0.00  0.00    +0.000 N 
ATOM      7  H   UNL     1     -12.890   8.878 127.585  0.00  0.00    +0.000 HD
ATOM      8  H   UNL     1     -13.245   8.105 129.091  0.00  0.00    +0.000 HD
ATOM      9  H   UNL     1     -11.433   7.285 130.350  0.00  0.00    +0.000 HD
ENDBRANCH   1   6
BRANCH   2  10
ATOM     10  C   UNL     1      -7.538   6.789 131.176  0.00  0.00    +0.000 A 
ATOM     11  C   UNL     1      -6.856   6.046 132.127  0.00  0.00    +0.000 A 
ATOM     12  C   UNL     1      -5.475   6.279 131.956  0.00  0.00    +0.000 A 
ATOM     13  C   UNL     1      -5.377   7.163 130.909  0.00  0.00    +0.000 A 
ATOM     14  O   UNL     1      -6.615   7.465 130.386  0.00  0.00    +0.000 OA
BRANCH  13  15
ATOM     15  N   UNL     1      -4.199   7.763 130.344  0.00  0.00    +0.000 N 
ATOM     16  O   UNL     1      -4.124   7.876 129.116  0.00  0.00    +0.000 OA
ATOM     17  O   UNL     1      -3.335   8.127 131.156  0.00  0.00    +0.000 OA
ENDBRANCH  13  15
ENDBRANCH   2  10
TORSDOF 3
ENDMDL
MODEL 7
REMARK VINA RESULT:      -5.3      4.745      5.891
REMARK  Name = Nitrofural
REMARK  3 active torsions:
REMARK  status: ('A' for Active; 'I' for Inactive)
REMARK    1  A    between atoms: N_4  and  N_5
REMARK    2  A    between atoms: C_6  and  C_7
REMARK    3  A    between atoms: C_10  and  N_12
REMARK                            x       y       z     vdW  Elec       q    Type
REMARK                         _______ _______ _______ _____ _____    ______ ____
ROOT
ATOM      1  N   UNL     1      -5.122   7.415 129.944  0.00  0.00    +0.000 NA
ATOM      2  C   UNL     1      -5.567   6.569 130.825  0.00  0.00    +0.000 C 
ENDROOT
BRANCH   1   6
ATOM      3  N   UNL     1      -2.072   6.886 128.116  0.00  0.00    +0.000 N 
ATOM      4  C   UNL     1      -3.412   6.881 128.367  0.00  0.00    +0.000 C 
ATOM      5  O   UNL     1      -4.171   6.422 127.513  0.00  0.00    +0.000 OA
ATOM      6  N   UNL     1      -3.786   7.410 129.590  0.00  0.00    +0.000 N 
ATOM      7  H   UNL     1      -1.791   6.503 127.220  0.00  0.00    +0.000 HD
ATOM      8  H   UNL     1      -1.351   7.226 128.729  0.00  0.00    +0.000 HD
ATOM      9  H   UNL     1      -3.086   7.776 130.221  0.00  0.00    +0.000 HD
ENDBRANCH   1   6
BRANCH   2  10
ATOM     10  C   UNL     1      -6.987   6.568 131.153  0.00  0.00    +0.000 A 
ATOM     11  C   UNL     1      -7.622   6.061 132.276  0.00  0.00    +0.000 A 
ATOM     12  C   UNL     1      -9.010   6.258 132.119  0.00  0.00    +0.000 A 
ATOM     13  C   UNL     1      -9.160   6.871 130.899  0.00  0.00    +0.000 A 
ATOM     14  O   UNL     1      -7.943   7.109 130.301  0.00  0.00    +0.000 OA
BRANCH  13  15
ATOM     15  N   UNL     1     -10.371   7.262 130.230  0.00  0.00    +0.000 N 
ATOM     16  O   UNL     1     -10.289   7.998 129.240  0.00  0.00    +0.000 OA
ATOM     17  O   UNL     1     -11.424   6.818 130.713  0.00  0.00    +0.000 OA
ENDBRANCH  13  15
ENDBRANCH   2  10
TORSDOF 3
ENDMDL
MODEL 8
REMARK VINA RESULT:      -5.2      3.291      3.626
REMARK  Name = Nitrofural
REMARK  3 active torsions:
REMARK  status: ('A' for Active; 'I' for Inactive)
REMARK    1  A    between atoms: N_4  and  N_5
REMARK    2  A    between atoms: C_6  and  C_7
REMARK    3  A    between atoms: C_10  and  N_12
REMARK                            x       y       z     vdW  Elec       q    Type
REMARK                         _______ _______ _______ _____ _____    ______ ____
ROOT
ATOM      1  N   UNL     1     -10.307   3.579 129.959  0.00  0.00    +0.000 NA
ATOM      2  C   UNL     1     -10.237   4.678 130.650  0.00  0.00    +0.000 C 
ENDROOT
BRANCH   1   6
ATOM      3  N   UNL     1      -7.869   0.991 129.433  0.00  0.00    +0.000 N 
ATOM      4  C   UNL     1      -8.710   2.016 129.120  0.00  0.00    +0.000 C 
ATOM      5  O   UNL     1      -8.789   2.379 127.946  0.00  0.00    +0.000 OA
ATOM      6  N   UNL     1      -9.406   2.557 130.188  0.00  0.00    +0.000 N 
ATOM      7  H   UNL     1      -7.353   0.592 128.655  0.00  0.00    +0.000 HD
ATOM      8  H   UNL     1      -7.718   0.599 130.347  0.00  0.00    +0.000 HD
ATOM      9  H   UNL     1      -9.262   2.197 131.122  0.00  0.00    +0.000 HD
ENDBRANCH   1   6
BRANCH   2  10
ATOM     10  C   UNL     1     -11.223   5.726 130.418  0.00  0.00    +0.000 A 
ATOM     11  C   UNL     1     -11.957   6.452 131.342  0.00  0.00    +0.000 A 
ATOM     12  C   UNL     1     -12.813   7.322 130.634  0.00  0.00    +0.000 A 
ATOM     13  C   UNL     1     -12.566   7.081 129.304  0.00  0.00    +0.000 A 
ATOM     14  O   UNL     1     -11.574   6.140 129.138  0.00  0.00    +0.000 OA
BRANCH  13  15
ATOM     15  N   UNL     1     -13.192   7.667 128.151  0.00  0.00    +0.000 N 
ATOM     16  O   UNL     1     -13.669   8.803 128.250  0.00  0.00    +0.000 OA
ATOM     17  O   UNL     1     -13.204   6.967 127.126  0.00  0.00    +0.000 OA
ENDBRANCH  13  15
ENDBRANCH   2  10
TORSDOF 3
ENDMDL
MODEL 9
REMARK VINA RESULT:      -5.2      7.431      8.533
REMARK  Name = Nitrofural
REMARK  3 active torsions:
REMARK  status: ('A' for Active; 'I' for Inactive)
REMARK    1  A    between atoms: N_4  and  N_5
REMARK    2  A    between atoms: C_6  and  C_7
REMARK    3  A    between atoms: C_10  and  N_12
REMARK                            x       y       z     vdW  Elec       q    Type
REMARK                         _______ _______ _______ _____ _____    ______ ____
ROOT
ATOM      1  N   UNL     1      -5.626   4.144 125.391  0.00  0.00    +0.000 NA
ATOM      2  C   UNL     1      -5.862   3.195 124.535  0.00  0.00    +0.000 C 
ENDROOT
BRANCH   1   6
ATOM      3  N   UNL     1      -4.615   4.404 128.831  0.00  0.00    +0.000 N 
ATOM      4  C   UNL     1      -4.845   4.803 127.548  0.00  0.00    +0.000 C 
ATOM      5  O   UNL     1      -4.562   5.958 127.229  0.00  0.00    +0.000 OA
ATOM      6  N   UNL     1      -5.391   3.839 126.718  0.00  0.00    +0.000 N 
ATOM      7  H   UNL     1      -4.218   5.106 129.446  0.00  0.00    +0.000 HD
ATOM      8  H   UNL     1      -4.796   3.492 129.214  0.00  0.00    +0.000 HD
ATOM      9  H   UNL     1      -5.601   2.918 127.079  0.00  0.00    +0.000 HD
ENDBRANCH   1   6
BRANCH   2  10
ATOM     10  C   UNL     1      -6.069   3.539 123.134  0.00  0.00    +0.000 A 
ATOM     11  C   UNL     1      -6.951   2.982 122.220  0.00  0.00    +0.000 A 
ATOM     12  C   UNL     1      -6.754   3.621 120.978  0.00  0.00    +0.000 A 
ATOM     13  C   UNL     1      -5.752   4.537 121.189  0.00  0.00    +0.000 A 
ATOM     14  O   UNL     1      -5.339   4.539 122.502  0.00  0.00    +0.000 OA
BRANCH  13  15
ATOM     15  N   UNL     1      -5.134   5.429 120.246  0.00  0.00    +0.000 N 
ATOM     16  O   UNL     1      -4.349   6.285 120.669  0.00  0.00    +0.000 OA
ATOM     17  O   UNL     1      -5.447   5.262 119.057  0.00  0.00    +0.000 OA
ENDBRANCH  13  15
ENDBRANCH   2  10
TORSDOF 3
ENDMDL
