MODEL 1
REMARK VINA RESULT:      -3.8      0.000      0.000
REMARK  Name = Nitroprusside
REMARK  6 active torsions:
REMARK  status: ('A' for Active; 'I' for Inactive)
REMARK    1  A    between atoms: N_2  and  FE_3
REMARK    2  A    between atoms: FE_3  and  C_4
REMARK    3  A    between atoms: FE_3  and  C_6
REMARK    4  A    between atoms: FE_3  and  C_8
REMARK    5  A    between atoms: FE_3  and  C_10
REMARK    6  A    between atoms: FE_3  and  C_12
REMARK                            x       y       z     vdW  Elec       q    Type
REMARK                         _______ _______ _______ _____ _____    ______ ____
ROOT
ATOM      1 FE   UNL     1      -7.924   0.823 124.302  0.00  0.00    +0.000 Fe
ENDROOT
BRANCH   1   3
ATOM      2  O   UNL     1      -8.980   3.385 124.959  0.00  0.00    +0.000 OA
ATOM      3  N   UNL     1      -8.899   2.237 125.383  0.00  0.00    +0.000 NA
ENDBRANCH   1   3
BRANCH   1   4
ATOM      4  C   UNL     1      -7.279   2.284 122.969  0.00  0.00    +0.000 C 
ATOM      5  N   UNL     1      -6.888   3.169 122.161  0.00  0.00    +0.000 NA
ENDBRANCH   1   4
BRANCH   1   6
ATOM      6  C   UNL     1      -6.217   1.121 125.454  0.00  0.00    +0.000 C 
ATOM      7  N   UNL     1      -5.183   1.302 126.153  0.00  0.00    +0.000 NA
ENDBRANCH   1   6
BRANCH   1   8
ATOM      8  C   UNL     1      -6.924  -0.628 123.196  0.00  0.00    +0.000 C 
ATOM      9  N   UNL     1      -6.318  -1.507 122.525  0.00  0.00    +0.000 NA
ENDBRANCH   1   8
BRANCH   1  10
ATOM     10  C   UNL     1      -8.567  -0.639 125.635  0.00  0.00    +0.000 C 
ATOM     11  N   UNL     1      -8.957  -1.525 126.443  0.00  0.00    +0.000 NA
ENDBRANCH   1  10
BRANCH   1  12
ATOM     12  C   UNL     1      -9.630   0.525 123.151  0.00  0.00    +0.000 C 
ATOM     13  N   UNL     1     -10.664   0.345 122.453  0.00  0.00    +0.000 NA
ENDBRANCH   1  12
TORSDOF 6
ENDMDL
MODEL 2
REMARK VINA RESULT:      -3.8      0.005      4.366
REMARK  Name = Nitroprusside
REMARK  6 active torsions:
REMARK  status: ('A' for Active; 'I' for Inactive)
REMARK    1  A    between atoms: N_2  and  FE_3
REMARK    2  A    between atoms: FE_3  and  C_4
REMARK    3  A    between atoms: FE_3  and  C_6
REMARK    4  A    between atoms: FE_3  and  C_8
REMARK    5  A    between atoms: FE_3  and  C_10
REMARK    6  A    between atoms: FE_3  and  C_12
REMARK                            x       y       z     vdW  Elec       q    Type
REMARK                         _______ _______ _______ _____ _____    ______ ____
ROOT
ATOM      1 FE   UNL     1      -7.921   0.826 124.306  0.00  0.00    +0.000 Fe
ENDROOT
BRANCH   1   3
ATOM      2  O   UNL     1      -8.978   3.389 124.960  0.00  0.00    +0.000 OA
ATOM      3  N   UNL     1      -8.895   2.242 125.386  0.00  0.00    +0.000 NA
ENDBRANCH   1   3
BRANCH   1   4
ATOM      4  C   UNL     1      -8.565  -0.635 125.639  0.00  0.00    +0.000 C 
ATOM      5  N   UNL     1      -8.956  -1.521 126.447  0.00  0.00    +0.000 NA
ENDBRANCH   1   4
BRANCH   1   6
ATOM      6  C   UNL     1      -9.628   0.530 123.155  0.00  0.00    +0.000 C 
ATOM      7  N   UNL     1     -10.663   0.350 122.458  0.00  0.00    +0.000 NA
ENDBRANCH   1   6
BRANCH   1   8
ATOM      8  C   UNL     1      -6.922  -0.625 123.199  0.00  0.00    +0.000 C 
ATOM      9  N   UNL     1      -6.318  -1.504 122.527  0.00  0.00    +0.000 NA
ENDBRANCH   1   8
BRANCH   1  10
ATOM     10  C   UNL     1      -7.276   2.286 122.973  0.00  0.00    +0.000 C 
ATOM     11  N   UNL     1      -6.885   3.172 122.164  0.00  0.00    +0.000 NA
ENDBRANCH   1  10
BRANCH   1  12
ATOM     12  C   UNL     1      -6.214   1.122 125.457  0.00  0.00    +0.000 C 
ATOM     13  N   UNL     1      -5.179   1.302 126.154  0.00  0.00    +0.000 NA
ENDBRANCH   1  12
TORSDOF 6
ENDMDL
MODEL 3
REMARK VINA RESULT:      -3.8      0.016      3.084
REMARK  Name = Nitroprusside
REMARK  6 active torsions:
REMARK  status: ('A' for Active; 'I' for Inactive)
REMARK    1  A    between atoms: N_2  and  FE_3
REMARK    2  A    between atoms: FE_3  and  C_4
REMARK    3  A    between atoms: FE_3  and  C_6
REMARK    4  A    between atoms: FE_3  and  C_8
REMARK    5  A    between atoms: FE_3  and  C_10
REMARK    6  A    between atoms: FE_3  and  C_12
REMARK                            x       y       z     vdW  Elec       q    Type
REMARK                         _______ _______ _______ _____ _____    ______ ____
ROOT
ATOM      1 FE   UNL     1      -7.932   0.822 124.296  0.00  0.00    +0.000 Fe
ENDROOT
BRANCH   1   3
ATOM      2  O   UNL     1      -8.959   3.392 124.970  0.00  0.00    +0.000 OA
ATOM      3  N   UNL     1      -8.917   2.234 125.371  0.00  0.00    +0.000 NA
ENDBRANCH   1   3
BRANCH   1   4
ATOM      4  C   UNL     1      -6.229   1.130 125.449  0.00  0.00    +0.000 C 
ATOM      5  N   UNL     1      -5.196   1.317 126.149  0.00  0.00    +0.000 NA
ENDBRANCH   1   4
BRANCH   1   6
ATOM      6  C   UNL     1      -8.572  -0.640 125.632  0.00  0.00    +0.000 C 
ATOM      7  N   UNL     1      -8.960  -1.526 126.441  0.00  0.00    +0.000 NA
ENDBRANCH   1   6
BRANCH   1   8
ATOM      8  C   UNL     1      -6.925  -0.626 123.194  0.00  0.00    +0.000 C 
ATOM      9  N   UNL     1      -6.314  -1.504 122.526  0.00  0.00    +0.000 NA
ENDBRANCH   1   8
BRANCH   1  10
ATOM     10  C   UNL     1      -9.636   0.513 123.143  0.00  0.00    +0.000 C 
ATOM     11  N   UNL     1     -10.668   0.325 122.443  0.00  0.00    +0.000 NA
ENDBRANCH   1  10
BRANCH   1  12
ATOM     12  C   UNL     1      -7.293   2.283 122.962  0.00  0.00    +0.000 C 
ATOM     13  N   UNL     1      -6.905   3.169 122.153  0.00  0.00    +0.000 NA
ENDBRANCH   1  12
TORSDOF 6
ENDMDL
MODEL 4
REMARK VINA RESULT:      -3.8      0.037      3.100
REMARK  Name = Nitroprusside
REMARK  6 active torsions:
REMARK  status: ('A' for Active; 'I' for Inactive)
REMARK    1  A    between atoms: N_2  and  FE_3
REMARK    2  A    between atoms: FE_3  and  C_4
REMARK    3  A    between atoms: FE_3  and  C_6
REMARK    4  A    between atoms: FE_3  and  C_8
REMARK    5  A    between atoms: FE_3  and  C_10
REMARK    6  A    between atoms: FE_3  and  C_12
REMARK                            x       y       z     vdW  Elec       q    Type
REMARK                         _______ _______ _______ _____ _____    ______ ____
ROOT
ATOM      1 FE   UNL     1      -7.935   0.849 124.297  0.00  0.00    +0.000 Fe
ENDROOT
BRANCH   1   3
ATOM      2  O   UNL     1      -8.956   3.423 124.965  0.00  0.00    +0.000 OA
ATOM      3  N   UNL     1      -8.917   2.266 125.369  0.00  0.00    +0.000 NA
ENDBRANCH   1   3
BRANCH   1   4
ATOM      4  C   UNL     1      -9.641   0.532 123.152  0.00  0.00    +0.000 C 
ATOM      5  N   UNL     1     -10.676   0.340 122.457  0.00  0.00    +0.000 NA
ENDBRANCH   1   4
BRANCH   1   6
ATOM      6  C   UNL     1      -7.303   2.306 122.953  0.00  0.00    +0.000 C 
ATOM      7  N   UNL     1      -6.919   3.188 122.138  0.00  0.00    +0.000 NA
ENDBRANCH   1   6
BRANCH   1   8
ATOM      8  C   UNL     1      -6.928  -0.602 123.199  0.00  0.00    +0.000 C 
ATOM      9  N   UNL     1      -6.318  -1.482 122.534  0.00  0.00    +0.000 NA
ENDBRANCH   1   8
BRANCH   1  10
ATOM     10  C   UNL     1      -6.228   1.166 125.442  0.00  0.00    +0.000 C 
ATOM     11  N   UNL     1      -5.193   1.358 126.137  0.00  0.00    +0.000 NA
ENDBRANCH   1  10
BRANCH   1  12
ATOM     12  C   UNL     1      -8.567  -0.606 125.642  0.00  0.00    +0.000 C 
ATOM     13  N   UNL     1      -8.951  -1.488 126.457  0.00  0.00    +0.000 NA
ENDBRANCH   1  12
TORSDOF 6
ENDMDL
MODEL 5
REMARK VINA RESULT:      -3.8      2.960      4.823
REMARK  Name = Nitroprusside
REMARK  6 active torsions:
REMARK  status: ('A' for Active; 'I' for Inactive)
REMARK    1  A    between atoms: N_2  and  FE_3
REMARK    2  A    between atoms: FE_3  and  C_4
REMARK    3  A    between atoms: FE_3  and  C_6
REMARK    4  A    between atoms: FE_3  and  C_8
REMARK    5  A    between atoms: FE_3  and  C_10
REMARK    6  A    between atoms: FE_3  and  C_12
REMARK                            x       y       z     vdW  Elec       q    Type
REMARK                         _______ _______ _______ _____ _____    ______ ____
ROOT
ATOM      1 FE   UNL     1      -6.967   3.800 125.725  0.00  0.00    +0.000 Fe
ENDROOT
BRANCH   1   3
ATOM      2  O   UNL     1      -9.092   5.645 126.163  0.00  0.00    +0.000 OA
ATOM      3  N   UNL     1      -8.027   5.524 125.568  0.00  0.00    +0.000 NA
ENDBRANCH   1   3
BRANCH   1   4
ATOM      4  C   UNL     1      -8.457   2.788 124.685  0.00  0.00    +0.000 C 
ATOM      5  N   UNL     1      -9.361   2.174 124.055  0.00  0.00    +0.000 NA
ENDBRANCH   1   4
BRANCH   1   6
ATOM      6  C   UNL     1      -6.006   4.229 123.930  0.00  0.00    +0.000 C 
ATOM      7  N   UNL     1      -5.424   4.488 122.842  0.00  0.00    +0.000 NA
ENDBRANCH   1   6
BRANCH   1   8
ATOM      8  C   UNL     1      -5.879   2.034 125.886  0.00  0.00    +0.000 C 
ATOM      9  N   UNL     1      -5.220   0.964 125.984  0.00  0.00    +0.000 NA
ENDBRANCH   1   8
BRANCH   1  10
ATOM     10  C   UNL     1      -5.476   4.812 126.764  0.00  0.00    +0.000 C 
ATOM     11  N   UNL     1      -4.572   5.426 127.394  0.00  0.00    +0.000 NA
ENDBRANCH   1  10
BRANCH   1  12
ATOM     12  C   UNL     1      -7.927   3.372 127.519  0.00  0.00    +0.000 C 
ATOM     13  N   UNL     1      -8.510   3.113 128.607  0.00  0.00    +0.000 NA
ENDBRANCH   1  12
TORSDOF 6
ENDMDL
MODEL 6
REMARK VINA RESULT:      -3.7      2.933      4.475
REMARK  Name = Nitroprusside
REMARK  6 active torsions:
REMARK  status: ('A' for Active; 'I' for Inactive)
REMARK    1  A    between atoms: N_2  and  FE_3
REMARK    2  A    between atoms: FE_3  and  C_4
REMARK    3  A    between atoms: FE_3  and  C_6
REMARK    4  A    between atoms: FE_3  and  C_8
REMARK    5  A    between atoms: FE_3  and  C_10
REMARK    6  A    between atoms: FE_3  and  C_12
REMARK                            x       y       z     vdW  Elec       q    Type
REMARK                         _______ _______ _______ _____ _____    ______ ____
ROOT
ATOM      1 FE   UNL     1      -6.994   3.757 125.694  0.00  0.00    +0.000 Fe
ENDROOT
BRANCH   1   3
ATOM      2  O   UNL     1      -9.044   5.653 126.255  0.00  0.00    +0.000 OA
ATOM      3  N   UNL     1      -8.064   5.474 125.539  0.00  0.00    +0.000 NA
ENDBRANCH   1   3
BRANCH   1   4
ATOM      4  C   UNL     1      -5.521   4.770 126.758  0.00  0.00    +0.000 C 
ATOM      5  N   UNL     1      -4.628   5.384 127.402  0.00  0.00    +0.000 NA
ENDBRANCH   1   4
BRANCH   1   6
ATOM      6  C   UNL     1      -7.972   3.309 127.475  0.00  0.00    +0.000 C 
ATOM      7  N   UNL     1      -8.564   3.038 128.555  0.00  0.00    +0.000 NA
ENDBRANCH   1   6
BRANCH   1   8
ATOM      8  C   UNL     1      -5.898   1.996 125.853  0.00  0.00    +0.000 C 
ATOM      9  N   UNL     1      -5.234   0.928 125.950  0.00  0.00    +0.000 NA
ENDBRANCH   1   8
BRANCH   1  10
ATOM     10  C   UNL     1      -8.467   2.743 124.632  0.00  0.00    +0.000 C 
ATOM     11  N   UNL     1      -9.360   2.128 123.987  0.00  0.00    +0.000 NA
ENDBRANCH   1  10
BRANCH   1  12
ATOM     12  C   UNL     1      -6.017   4.205 123.914  0.00  0.00    +0.000 C 
ATOM     13  N   UNL     1      -5.424   4.476 122.835  0.00  0.00    +0.000 NA
ENDBRANCH   1  12
TORSDOF 6
ENDMDL
MODEL 7
REMARK VINA RESULT:      -3.6      2.054      2.966
REMARK  Name = Nitroprusside
REMARK  6 active torsions:
REMARK  status: ('A' for Active; 'I' for Inactive)
REMARK    1  A    between atoms: N_2  and  FE_3
REMARK    2  A    between atoms: FE_3  and  C_4
REMARK    3  A    between atoms: FE_3  and  C_6
REMARK    4  A    between atoms: FE_3  and  C_8
REMARK    5  A    between atoms: FE_3  and  C_10
REMARK    6  A    between atoms: FE_3  and  C_12
REMARK                            x       y       z     vdW  Elec       q    Type
REMARK                         _______ _______ _______ _____ _____    ______ ____
ROOT
ATOM      1 FE   UNL     1      -7.545   2.233 125.033  0.00  0.00    +0.000 Fe
ENDROOT
BRANCH   1   3
ATOM      2  O   UNL     1      -9.044   1.758 127.407  0.00  0.00    +0.000 OA
ATOM      3  N   UNL     1      -7.936   1.577 126.913  0.00  0.00    +0.000 NA
ENDBRANCH   1   3
BRANCH   1   4
ATOM      4  C   UNL     1      -8.238   4.125 125.547  0.00  0.00    +0.000 C 
ATOM      5  N   UNL     1      -8.658   5.273 125.859  0.00  0.00    +0.000 NA
ENDBRANCH   1   4
BRANCH   1   6
ATOM      6  C   UNL     1      -5.625   2.776 125.622  0.00  0.00    +0.000 C 
ATOM      7  N   UNL     1      -4.461   3.105 125.980  0.00  0.00    +0.000 NA
ENDBRANCH   1   6
BRANCH   1   8
ATOM      8  C   UNL     1      -7.143   2.904 123.105  0.00  0.00    +0.000 C 
ATOM      9  N   UNL     1      -6.899   3.310 121.937  0.00  0.00    +0.000 NA
ENDBRANCH   1   8
BRANCH   1  10
ATOM     10  C   UNL     1      -6.851   0.341 124.518  0.00  0.00    +0.000 C 
ATOM     11  N   UNL     1      -6.430  -0.806 124.205  0.00  0.00    +0.000 NA
ENDBRANCH   1  10
BRANCH   1  12
ATOM     12  C   UNL     1      -9.464   1.690 124.444  0.00  0.00    +0.000 C 
ATOM     13  N   UNL     1     -10.628   1.361 124.086  0.00  0.00    +0.000 NA
ENDBRANCH   1  12
TORSDOF 6
ENDMDL
MODEL 8
REMARK VINA RESULT:      -3.6      1.837      1.866
REMARK  Name = Nitroprusside
REMARK  6 active torsions:
REMARK  status: ('A' for Active; 'I' for Inactive)
REMARK    1  A    between atoms: N_2  and  FE_3
REMARK    2  A    between atoms: FE_3  and  C_4
REMARK    3  A    between atoms: FE_3  and  C_6
REMARK    4  A    between atoms: FE_3  and  C_8
REMARK    5  A    between atoms: FE_3  and  C_10
REMARK    6  A    between atoms: FE_3  and  C_12
REMARK                            x       y       z     vdW  Elec       q    Type
REMARK                         _______ _______ _______ _____ _____    ______ ____
ROOT
ATOM      1 FE   UNL     1      -7.942   2.294 124.714  0.00  0.00    +0.000 Fe
ENDROOT
BRANCH   1   3
ATOM      2  O   UNL     1      -8.491   4.551 126.362  0.00  0.00    +0.000 OA
ATOM      3  N   UNL     1      -8.738   4.080 125.257  0.00  0.00    +0.000 NA
ENDBRANCH   1   3
BRANCH   1   4
ATOM      4  C   UNL     1      -7.699   2.991 122.770  0.00  0.00    +0.000 C 
ATOM      5  N   UNL     1      -7.552   3.415 121.592  0.00  0.00    +0.000 NA
ENDBRANCH   1   4
BRANCH   1   6
ATOM      6  C   UNL     1      -6.044   2.992 125.202  0.00  0.00    +0.000 C 
ATOM      7  N   UNL     1      -4.893   3.414 125.498  0.00  0.00    +0.000 NA
ENDBRANCH   1   6
BRANCH   1   8
ATOM      8  C   UNL     1      -7.127   0.462 124.159  0.00  0.00    +0.000 C 
ATOM      9  N   UNL     1      -6.633  -0.648 123.823  0.00  0.00    +0.000 NA
ENDBRANCH   1   8
BRANCH   1  10
ATOM     10  C   UNL     1      -8.185   1.595 126.659  0.00  0.00    +0.000 C 
ATOM     11  N   UNL     1      -8.331   1.172 127.838  0.00  0.00    +0.000 NA
ENDBRANCH   1  10
BRANCH   1  12
ATOM     12  C   UNL     1      -9.840   1.596 124.227  0.00  0.00    +0.000 C 
ATOM     13  N   UNL     1     -10.990   1.174 123.931  0.00  0.00    +0.000 NA
ENDBRANCH   1  12
TORSDOF 6
ENDMDL
MODEL 9
REMARK VINA RESULT:      -3.6      2.055      4.634
REMARK  Name = Nitroprusside
REMARK  6 active torsions:
REMARK  status: ('A' for Active; 'I' for Inactive)
REMARK    1  A    between atoms: N_2  and  FE_3
REMARK    2  A    between atoms: FE_3  and  C_4
REMARK    3  A    between atoms: FE_3  and  C_6
REMARK    4  A    between atoms: FE_3  and  C_8
REMARK    5  A    between atoms: FE_3  and  C_10
REMARK    6  A    between atoms: FE_3  and  C_12
REMARK                            x       y       z     vdW  Elec       q    Type
REMARK                         _______ _______ _______ _____ _____    ______ ____
ROOT
ATOM      1 FE   UNL     1      -7.537   2.243 125.033  0.00  0.00    +0.000 Fe
ENDROOT
BRANCH   1   3
ATOM      2  O   UNL     1      -8.896   2.027 127.526  0.00  0.00    +0.000 OA
ATOM      3  N   UNL     1      -7.928   1.588 126.913  0.00  0.00    +0.000 NA
ENDBRANCH   1   3
BRANCH   1   4
ATOM      4  C   UNL     1      -6.838   0.353 124.519  0.00  0.00    +0.000 C 
ATOM      5  N   UNL     1      -6.414  -0.793 124.208  0.00  0.00    +0.000 NA
ENDBRANCH   1   4
BRANCH   1   6
ATOM      6  C   UNL     1      -9.455   1.694 124.443  0.00  0.00    +0.000 C 
ATOM      7  N   UNL     1     -10.617   1.361 124.085  0.00  0.00    +0.000 NA
ENDBRANCH   1   6
BRANCH   1   8
ATOM      8  C   UNL     1      -7.136   2.915 123.105  0.00  0.00    +0.000 C 
ATOM      9  N   UNL     1      -6.893   3.323 121.937  0.00  0.00    +0.000 NA
ENDBRANCH   1   8
BRANCH   1  10
ATOM     10  C   UNL     1      -8.236   4.134 125.545  0.00  0.00    +0.000 C 
ATOM     11  N   UNL     1      -8.660   5.280 125.857  0.00  0.00    +0.000 NA
ENDBRANCH   1  10
BRANCH   1  12
ATOM     12  C   UNL     1      -5.619   2.792 125.623  0.00  0.00    +0.000 C 
ATOM     13  N   UNL     1      -4.457   3.125 125.981  0.00  0.00    +0.000 NA
ENDBRANCH   1  12
TORSDOF 6
ENDMDL
