MODEL 1
REMARK VINA RESULT:      -7.1      0.000      0.000
REMARK  Name = Nitrendipine
REMARK  11 active torsions:
REMARK  status: ('A' for Active; 'I' for Inactive)
REMARK    1  A    between atoms: C_1  and  C_2
REMARK    2  A    between atoms: C_2  and  O_3
REMARK    3  A    between atoms: O_3  and  C_4
REMARK    4  A    between atoms: C_4  and  C_6
REMARK    5  A    between atoms: C_7  and  C_8
REMARK    6  A    between atoms: C_10  and  C_11
REMARK    7  A    between atoms: C_12  and  C_23
REMARK    8  A    between atoms: C_13  and  C_14
REMARK    9  A    between atoms: C_16  and  N_20
REMARK   10  A    between atoms: C_23  and  O_25
REMARK   11  A    between atoms: O_25  and  C_26
REMARK                            x       y       z     vdW  Elec       q    Type
REMARK                         _______ _______ _______ _____ _____    ______ ____
ROOT
ATOM      1  C   UNL     1      -7.012  -2.009 124.866  0.00  0.00    +0.000 C 
ATOM      2  C   UNL     1      -8.212  -2.544 125.188  0.00  0.00    +0.000 C 
ATOM      3  C   UNL     1      -9.219  -3.119 124.229  0.00  0.00    +0.000 C 
ATOM      4  N   UNL     1      -8.571  -2.642 126.527  0.00  0.00    +0.000 N 
ATOM      5  C   UNL     1      -7.669  -2.580 127.582  0.00  0.00    +0.000 C 
ATOM      6  C   UNL     1      -8.160  -3.164 128.884  0.00  0.00    +0.000 C 
ATOM      7  C   UNL     1      -6.440  -2.034 127.390  0.00  0.00    +0.000 C 
ATOM      8  C   UNL     1      -6.103  -1.467 125.995  0.00  0.00    +0.000 C 
ATOM      9  H   UNL     1      -9.488  -3.034 126.729  0.00  0.00    +0.000 HD
ENDROOT
BRANCH   8  10
ATOM     10  C   UNL     1      -6.206   0.065 126.014  0.00  0.00    +0.000 A 
ATOM     11  C   UNL     1      -7.443   0.677 125.795  0.00  0.00    +0.000 A 
ATOM     12  C   UNL     1      -7.517   2.073 125.702  0.00  0.00    +0.000 A 
ATOM     13  C   UNL     1      -6.397   2.876 125.960  0.00  0.00    +0.000 A 
ATOM     14  C   UNL     1      -5.168   2.272 126.209  0.00  0.00    +0.000 A 
ATOM     15  C   UNL     1      -5.070   0.880 126.214  0.00  0.00    +0.000 A 
BRANCH  12  16
ATOM     16  N   UNL     1      -8.749   2.692 125.206  0.00  0.00    +0.000 N 
ATOM     17  O   UNL     1      -9.680   1.943 124.878  0.00  0.00    +0.000 OA
ATOM     18  O   UNL     1      -8.770   3.927 125.100  0.00  0.00    +0.000 OA
ENDBRANCH  12  16
ENDBRANCH   8  10
BRANCH   1  19
ATOM     19  C   UNL     1      -6.449  -1.991 123.485  0.00  0.00    +0.000 C 
ATOM     20  O   UNL     1      -6.484  -0.986 122.781  0.00  0.00    +0.000 OA
BRANCH  19  21
ATOM     21  O   UNL     1      -5.913  -3.185 123.106  0.00  0.00    +0.000 OA
BRANCH  21  23
ATOM     22  C   UNL     1      -4.186  -4.838 123.563  0.00  0.00    +0.000 C 
ATOM     23  C   UNL     1      -4.509  -3.357 123.391  0.00  0.00    +0.000 C 
ENDBRANCH  21  23
ENDBRANCH  19  21
ENDBRANCH   1  19
BRANCH   7  24
ATOM     24  C   UNL     1      -5.452  -1.978 128.521  0.00  0.00    +0.000 C 
ATOM     25  O   UNL     1      -5.416  -1.079 129.355  0.00  0.00    +0.000 OA
BRANCH  24  26
ATOM     26  O   UNL     1      -4.590  -3.030 128.543  0.00  0.00    +0.000 OA
ATOM     27  C   UNL     1      -4.458  -3.633 129.847  0.00  0.00    +0.000 C 
ENDBRANCH  24  26
ENDBRANCH   7  24
TORSDOF 7
ENDMDL
MODEL 2
REMARK VINA RESULT:      -6.7      1.613      2.015
REMARK  Name = Nitrendipine
REMARK  11 active torsions:
REMARK  status: ('A' for Active; 'I' for Inactive)
REMARK    1  A    between atoms: C_1  and  C_2
REMARK    2  A    between atoms: C_2  and  O_3
REMARK    3  A    between atoms: O_3  and  C_4
REMARK    4  A    between atoms: C_4  and  C_6
REMARK    5  A    between atoms: C_7  and  C_8
REMARK    6  A    between atoms: C_10  and  C_11
REMARK    7  A    between atoms: C_12  and  C_23
REMARK    8  A    between atoms: C_13  and  C_14
REMARK    9  A    between atoms: C_16  and  N_20
REMARK   10  A    between atoms: C_23  and  O_25
REMARK   11  A    between atoms: O_25  and  C_26
REMARK                            x       y       z     vdW  Elec       q    Type
REMARK                         _______ _______ _______ _____ _____    ______ ____
ROOT
ATOM      1  C   UNL     1      -7.166  -2.055 124.868  0.00  0.00    +0.000 C 
ATOM      2  C   UNL     1      -8.345  -2.685 125.077  0.00  0.00    +0.000 C 
ATOM      3  C   UNL     1      -9.239  -3.280 124.023  0.00  0.00    +0.000 C 
ATOM      4  N   UNL     1      -8.788  -2.874 126.381  0.00  0.00    +0.000 N 
ATOM      5  C   UNL     1      -7.969  -2.804 127.501  0.00  0.00    +0.000 C 
ATOM      6  C   UNL     1      -8.506  -3.485 128.737  0.00  0.00    +0.000 C 
ATOM      7  C   UNL     1      -6.771  -2.167 127.424  0.00  0.00    +0.000 C 
ATOM      8  C   UNL     1      -6.380  -1.509 126.084  0.00  0.00    +0.000 C 
ATOM      9  H   UNL     1      -9.686  -3.337 126.498  0.00  0.00    +0.000 HD
ENDROOT
BRANCH   8  10
ATOM     10  C   UNL     1      -6.592   0.009 126.165  0.00  0.00    +0.000 A 
ATOM     11  C   UNL     1      -5.511   0.870 125.957  0.00  0.00    +0.000 A 
ATOM     12  C   UNL     1      -5.679   2.248 126.140  0.00  0.00    +0.000 A 
ATOM     13  C   UNL     1      -6.945   2.796 126.393  0.00  0.00    +0.000 A 
ATOM     14  C   UNL     1      -8.032   1.945 126.571  0.00  0.00    +0.000 A 
ATOM     15  C   UNL     1      -7.852   0.565 126.479  0.00  0.00    +0.000 A 
BRANCH  12  16
ATOM     16  N   UNL     1      -4.497   3.113 126.190  0.00  0.00    +0.000 N 
ATOM     17  O   UNL     1      -3.407   2.586 126.454  0.00  0.00    +0.000 OA
ATOM     18  O   UNL     1      -4.665   4.328 126.011  0.00  0.00    +0.000 OA
ENDBRANCH  12  16
ENDBRANCH   8  10
BRANCH   1  19
ATOM     19  C   UNL     1      -6.511  -1.930 123.535  0.00  0.00    +0.000 C 
ATOM     20  O   UNL     1      -6.522  -0.880 122.900  0.00  0.00    +0.000 OA
BRANCH  19  21
ATOM     21  O   UNL     1      -5.921  -3.084 123.114  0.00  0.00    +0.000 OA
BRANCH  21  23
ATOM     22  C   UNL     1      -4.205  -4.760 123.524  0.00  0.00    +0.000 C 
ATOM     23  C   UNL     1      -4.554  -3.275 123.532  0.00  0.00    +0.000 C 
ENDBRANCH  21  23
ENDBRANCH  19  21
ENDBRANCH   1  19
BRANCH   7  24
ATOM     24  C   UNL     1      -5.872  -2.100 128.626  0.00  0.00    +0.000 C 
ATOM     25  O   UNL     1      -5.965  -1.249 129.504  0.00  0.00    +0.000 OA
BRANCH  24  26
ATOM     26  O   UNL     1      -4.933  -3.084 128.657  0.00  0.00    +0.000 OA
ATOM     27  C   UNL     1      -4.875  -3.777 129.921  0.00  0.00    +0.000 C 
ENDBRANCH  24  26
ENDBRANCH   7  24
TORSDOF 7
ENDMDL
MODEL 3
REMARK VINA RESULT:      -6.6      2.202      5.104
REMARK  Name = Nitrendipine
REMARK  11 active torsions:
REMARK  status: ('A' for Active; 'I' for Inactive)
REMARK    1  A    between atoms: C_1  and  C_2
REMARK    2  A    between atoms: C_2  and  O_3
REMARK    3  A    between atoms: O_3  and  C_4
REMARK    4  A    between atoms: C_4  and  C_6
REMARK    5  A    between atoms: C_7  and  C_8
REMARK    6  A    between atoms: C_10  and  C_11
REMARK    7  A    between atoms: C_12  and  C_23
REMARK    8  A    between atoms: C_13  and  C_14
REMARK    9  A    between atoms: C_16  and  N_20
REMARK   10  A    between atoms: C_23  and  O_25
REMARK   11  A    between atoms: O_25  and  C_26
REMARK                            x       y       z     vdW  Elec       q    Type
REMARK                         _______ _______ _______ _____ _____    ______ ____
ROOT
ATOM      1  C   UNL     1      -7.075   0.300 127.313  0.00  0.00    +0.000 C 
ATOM      2  C   UNL     1      -5.789   0.689 127.476  0.00  0.00    +0.000 C 
ATOM      3  C   UNL     1      -5.194   2.005 127.055  0.00  0.00    +0.000 C 
ATOM      4  N   UNL     1      -4.908  -0.156 128.140  0.00  0.00    +0.000 N 
ATOM      5  C   UNL     1      -5.302  -1.197 128.971  0.00  0.00    +0.000 C 
ATOM      6  C   UNL     1      -4.253  -1.679 129.943  0.00  0.00    +0.000 C 
ATOM      7  C   UNL     1      -6.563  -1.696 128.879  0.00  0.00    +0.000 C 
ATOM      8  C   UNL     1      -7.508  -1.097 127.817  0.00  0.00    +0.000 C 
ATOM      9  H   UNL     1      -3.945   0.163 128.228  0.00  0.00    +0.000 HD
ENDROOT
BRANCH   8  10
ATOM     10  C   UNL     1      -7.607  -2.044 126.611  0.00  0.00    +0.000 A 
ATOM     11  C   UNL     1      -6.547  -2.118 125.703  0.00  0.00    +0.000 A 
ATOM     12  C   UNL     1      -6.681  -2.896 124.546  0.00  0.00    +0.000 A 
ATOM     13  C   UNL     1      -7.805  -3.710 124.348  0.00  0.00    +0.000 A 
ATOM     14  C   UNL     1      -8.851  -3.662 125.264  0.00  0.00    +0.000 A 
ATOM     15  C   UNL     1      -8.761  -2.821 126.374  0.00  0.00    +0.000 A 
BRANCH  12  16
ATOM     16  N   UNL     1      -5.692  -2.759 123.474  0.00  0.00    +0.000 N 
ATOM     17  O   UNL     1      -6.003  -2.081 122.484  0.00  0.00    +0.000 OA
ATOM     18  O   UNL     1      -4.620  -3.369 123.599  0.00  0.00    +0.000 OA
ENDBRANCH  12  16
ENDBRANCH   8  10
BRANCH   1  19
ATOM     19  C   UNL     1      -8.148   1.177 126.761  0.00  0.00    +0.000 C 
ATOM     20  O   UNL     1      -8.900   1.821 127.487  0.00  0.00    +0.000 OA
BRANCH  19  21
ATOM     21  O   UNL     1      -8.198   1.175 125.400  0.00  0.00    +0.000 OA
BRANCH  21  23
ATOM     22  C   UNL     1      -9.016  -0.145 123.526  0.00  0.00    +0.000 C 
ATOM     23  C   UNL     1      -9.377   0.578 124.819  0.00  0.00    +0.000 C 
ENDBRANCH  21  23
ENDBRANCH  19  21
ENDBRANCH   1  19
BRANCH   7  24
ATOM     24  C   UNL     1      -7.003  -2.810 129.785  0.00  0.00    +0.000 C 
ATOM     25  O   UNL     1      -6.804  -3.999 129.555  0.00  0.00    +0.000 OA
BRANCH  24  26
ATOM     26  O   UNL     1      -7.648  -2.380 130.902  0.00  0.00    +0.000 OA
ATOM     27  C   UNL     1      -7.102  -2.924 132.122  0.00  0.00    +0.000 C 
ENDBRANCH  24  26
ENDBRANCH   7  24
TORSDOF 7
ENDMDL
MODEL 4
REMARK VINA RESULT:      -6.4      2.790      4.683
REMARK  Name = Nitrendipine
REMARK  11 active torsions:
REMARK  status: ('A' for Active; 'I' for Inactive)
REMARK    1  A    between atoms: C_1  and  C_2
REMARK    2  A    between atoms: C_2  and  O_3
REMARK    3  A    between atoms: O_3  and  C_4
REMARK    4  A    between atoms: C_4  and  C_6
REMARK    5  A    between atoms: C_7  and  C_8
REMARK    6  A    between atoms: C_10  and  C_11
REMARK    7  A    between atoms: C_12  and  C_23
REMARK    8  A    between atoms: C_13  and  C_14
REMARK    9  A    between atoms: C_16  and  N_20
REMARK   10  A    between atoms: C_23  and  O_25
REMARK   11  A    between atoms: O_25  and  C_26
REMARK                            x       y       z     vdW  Elec       q    Type
REMARK                         _______ _______ _______ _____ _____    ______ ____
ROOT
ATOM      1  C   UNL     1      -7.973   0.960 123.618  0.00  0.00    +0.000 C 
ATOM      2  C   UNL     1      -9.101   0.267 123.339  0.00  0.00    +0.000 C 
ATOM      3  C   UNL     1     -10.297   0.775 122.580  0.00  0.00    +0.000 C 
ATOM      4  N   UNL     1      -9.188  -1.066 123.724  0.00  0.00    +0.000 N 
ATOM      5  C   UNL     1      -8.092  -1.858 124.044  0.00  0.00    +0.000 C 
ATOM      6  C   UNL     1      -8.331  -3.347 123.974  0.00  0.00    +0.000 C 
ATOM      7  C   UNL     1      -6.910  -1.276 124.374  0.00  0.00    +0.000 C 
ATOM      8  C   UNL     1      -6.841   0.265 124.412  0.00  0.00    +0.000 C 
ATOM      9  H   UNL     1     -10.058  -1.549 123.512  0.00  0.00    +0.000 HD
ENDROOT
BRANCH   8  10
ATOM     10  C   UNL     1      -6.891   0.755 125.867  0.00  0.00    +0.000 A 
ATOM     11  C   UNL     1      -5.735   1.270 126.461  0.00  0.00    +0.000 A 
ATOM     12  C   UNL     1      -5.751   1.613 127.819  0.00  0.00    +0.000 A 
ATOM     13  C   UNL     1      -6.940   1.579 128.561  0.00  0.00    +0.000 A 
ATOM     14  C   UNL     1      -8.101   1.096 127.965  0.00  0.00    +0.000 A 
ATOM     15  C   UNL     1      -8.070   0.668 126.638  0.00  0.00    +0.000 A 
BRANCH  12  16
ATOM     16  N   UNL     1      -4.484   1.890 128.501  0.00  0.00    +0.000 N 
ATOM     17  O   UNL     1      -4.337   1.447 129.649  0.00  0.00    +0.000 OA
ATOM     18  O   UNL     1      -3.652   2.592 127.908  0.00  0.00    +0.000 OA
ENDBRANCH  12  16
ENDBRANCH   8  10
BRANCH   1  19
ATOM     19  C   UNL     1      -7.697   2.339 123.123  0.00  0.00    +0.000 C 
ATOM     20  O   UNL     1      -8.384   3.300 123.459  0.00  0.00    +0.000 OA
BRANCH  19  21
ATOM     21  O   UNL     1      -6.632   2.406 122.278  0.00  0.00    +0.000 OA
BRANCH  21  23
ATOM     22  C   UNL     1      -5.134   3.719 120.879  0.00  0.00    +0.000 C 
ATOM     23  C   UNL     1      -6.070   3.720 122.083  0.00  0.00    +0.000 C 
ENDBRANCH  21  23
ENDBRANCH  19  21
ENDBRANCH   1  19
BRANCH   7  24
ATOM     24  C   UNL     1      -5.715  -2.125 124.704  0.00  0.00    +0.000 C 
ATOM     25  O   UNL     1      -5.403  -2.453 125.845  0.00  0.00    +0.000 OA
BRANCH  24  26
ATOM     26  O   UNL     1      -5.000  -2.506 123.612  0.00  0.00    +0.000 OA
ATOM     27  C   UNL     1      -4.600  -3.892 123.647  0.00  0.00    +0.000 C 
ENDBRANCH  24  26
ENDBRANCH   7  24
TORSDOF 7
ENDMDL
MODEL 5
REMARK VINA RESULT:      -6.3      1.853      4.878
REMARK  Name = Nitrendipine
REMARK  11 active torsions:
REMARK  status: ('A' for Active; 'I' for Inactive)
REMARK    1  A    between atoms: C_1  and  C_2
REMARK    2  A    between atoms: C_2  and  O_3
REMARK    3  A    between atoms: O_3  and  C_4
REMARK    4  A    between atoms: C_4  and  C_6
REMARK    5  A    between atoms: C_7  and  C_8
REMARK    6  A    between atoms: C_10  and  C_11
REMARK    7  A    between atoms: C_12  and  C_23
REMARK    8  A    between atoms: C_13  and  C_14
REMARK    9  A    between atoms: C_16  and  N_20
REMARK   10  A    between atoms: C_23  and  O_25
REMARK   11  A    between atoms: O_25  and  C_26
REMARK                            x       y       z     vdW  Elec       q    Type
REMARK                         _______ _______ _______ _____ _____    ______ ____
ROOT
ATOM      1  C   UNL     1      -6.617  -1.331 127.888  0.00  0.00    +0.000 C 
ATOM      2  C   UNL     1      -5.594  -2.194 127.687  0.00  0.00    +0.000 C 
ATOM      3  C   UNL     1      -4.732  -2.819 128.751  0.00  0.00    +0.000 C 
ATOM      4  N   UNL     1      -5.309  -2.615 126.394  0.00  0.00    +0.000 N 
ATOM      5  C   UNL     1      -6.197  -2.523 125.330  0.00  0.00    +0.000 C 
ATOM      6  C   UNL     1      -5.902  -3.433 124.163  0.00  0.00    +0.000 C 
ATOM      7  C   UNL     1      -7.249  -1.666 125.400  0.00  0.00    +0.000 C 
ATOM      8  C   UNL     1      -7.397  -0.793 126.664  0.00  0.00    +0.000 C 
ATOM      9  H   UNL     1      -4.522  -3.251 126.281  0.00  0.00    +0.000 HD
ENDROOT
BRANCH   8  10
ATOM     10  C   UNL     1      -6.922   0.637 126.371  0.00  0.00    +0.000 A 
ATOM     11  C   UNL     1      -7.853   1.610 125.993  0.00  0.00    +0.000 A 
ATOM     12  C   UNL     1      -7.408   2.884 125.618  0.00  0.00    +0.000 A 
ATOM     13  C   UNL     1      -6.059   3.246 125.745  0.00  0.00    +0.000 A 
ATOM     14  C   UNL     1      -5.132   2.290 126.149  0.00  0.00    +0.000 A 
ATOM     15  C   UNL     1      -5.557   0.993 126.438  0.00  0.00    +0.000 A 
BRANCH  12  16
ATOM     16  N   UNL     1      -8.344   3.806 124.969  0.00  0.00    +0.000 N 
ATOM     17  O   UNL     1      -8.692   3.551 123.807  0.00  0.00    +0.000 OA
ATOM     18  O   UNL     1      -8.695   4.811 125.604  0.00  0.00    +0.000 OA
ENDBRANCH  12  16
ENDBRANCH   8  10
BRANCH   1  19
ATOM     19  C   UNL     1      -7.119  -0.929 129.233  0.00  0.00    +0.000 C 
ATOM     20  O   UNL     1      -7.975  -1.577 129.828  0.00  0.00    +0.000 OA
BRANCH  19  21
ATOM     21  O   UNL     1      -6.539   0.208 129.708  0.00  0.00    +0.000 OA
BRANCH  21  23
ATOM     22  C   UNL     1      -6.856   2.617 129.568  0.00  0.00    +0.000 C 
ATOM     23  C   UNL     1      -7.444   1.286 130.024  0.00  0.00    +0.000 C 
ENDBRANCH  21  23
ENDBRANCH  19  21
ENDBRANCH   1  19
BRANCH   7  24
ATOM     24  C   UNL     1      -8.225  -1.572 124.261  0.00  0.00    +0.000 C 
ATOM     25  O   UNL     1      -8.021  -0.928 123.237  0.00  0.00    +0.000 OA
BRANCH  24  26
ATOM     26  O   UNL     1      -9.370  -2.276 124.466  0.00  0.00    +0.000 OA
ATOM     27  C   UNL     1      -9.564  -3.341 123.512  0.00  0.00    +0.000 C 
ENDBRANCH  24  26
ENDBRANCH   7  24
TORSDOF 7
ENDMDL
MODEL 6
REMARK VINA RESULT:      -6.3      1.188      2.083
REMARK  Name = Nitrendipine
REMARK  11 active torsions:
REMARK  status: ('A' for Active; 'I' for Inactive)
REMARK    1  A    between atoms: C_1  and  C_2
REMARK    2  A    between atoms: C_2  and  O_3
REMARK    3  A    between atoms: O_3  and  C_4
REMARK    4  A    between atoms: C_4  and  C_6
REMARK    5  A    between atoms: C_7  and  C_8
REMARK    6  A    between atoms: C_10  and  C_11
REMARK    7  A    between atoms: C_12  and  C_23
REMARK    8  A    between atoms: C_13  and  C_14
REMARK    9  A    between atoms: C_16  and  N_20
REMARK   10  A    between atoms: C_23  and  O_25
REMARK   11  A    between atoms: O_25  and  C_26
REMARK                            x       y       z     vdW  Elec       q    Type
REMARK                         _______ _______ _______ _____ _____    ______ ____
ROOT
ATOM      1  C   UNL     1      -6.629  -2.292 125.700  0.00  0.00    +0.000 C 
ATOM      2  C   UNL     1      -7.793  -2.834 126.127  0.00  0.00    +0.000 C 
ATOM      3  C   UNL     1      -8.739  -3.673 125.311  0.00  0.00    +0.000 C 
ATOM      4  N   UNL     1      -8.166  -2.672 127.455  0.00  0.00    +0.000 N 
ATOM      5  C   UNL     1      -7.290  -2.321 128.474  0.00  0.00    +0.000 C 
ATOM      6  C   UNL     1      -7.759  -2.650 129.871  0.00  0.00    +0.000 C 
ATOM      7  C   UNL     1      -6.100  -1.738 128.173  0.00  0.00    +0.000 C 
ATOM      8  C   UNL     1      -5.781  -1.457 126.689  0.00  0.00    +0.000 C 
ATOM      9  H   UNL     1      -9.056  -3.079 127.735  0.00  0.00    +0.000 HD
ENDROOT
BRANCH   8  10
ATOM     10  C   UNL     1      -5.995   0.032 126.382  0.00  0.00    +0.000 A 
ATOM     11  C   UNL     1      -7.289   0.515 126.167  0.00  0.00    +0.000 A 
ATOM     12  C   UNL     1      -7.474   1.847 125.778  0.00  0.00    +0.000 A 
ATOM     13  C   UNL     1      -6.398   2.744 125.731  0.00  0.00    +0.000 A 
ATOM     14  C   UNL     1      -5.110   2.276 125.973  0.00  0.00    +0.000 A 
ATOM     15  C   UNL     1      -4.909   0.929 126.274  0.00  0.00    +0.000 A 
BRANCH  12  16
ATOM     16  N   UNL     1      -8.790   2.274 125.293  0.00  0.00    +0.000 N 
ATOM     17  O   UNL     1      -8.911   3.447 124.912  0.00  0.00    +0.000 OA
ATOM     18  O   UNL     1      -9.714   1.450 125.337  0.00  0.00    +0.000 OA
ENDBRANCH  12  16
ENDBRANCH   8  10
BRANCH   1  19
ATOM     19  C   UNL     1      -6.045  -2.526 124.348  0.00  0.00    +0.000 C 
ATOM     20  O   UNL     1      -5.357  -3.512 124.098  0.00  0.00    +0.000 OA
BRANCH  19  21
ATOM     21  O   UNL     1      -6.350  -1.547 123.452  0.00  0.00    +0.000 OA
BRANCH  21  23
ATOM     22  C   UNL     1      -8.662  -0.953 122.977  0.00  0.00    +0.000 C 
ATOM     23  C   UNL     1      -7.471  -1.821 122.585  0.00  0.00    +0.000 C 
ENDBRANCH  21  23
ENDBRANCH  19  21
ENDBRANCH   1  19
BRANCH   7  24
ATOM     24  C   UNL     1      -5.139  -1.371 129.267  0.00  0.00    +0.000 C 
ATOM     25  O   UNL     1      -4.191  -2.071 129.609  0.00  0.00    +0.000 OA
BRANCH  24  26
ATOM     26  O   UNL     1      -5.413  -0.174 129.853  0.00  0.00    +0.000 OA
ATOM     27  C   UNL     1      -4.247   0.660 130.019  0.00  0.00    +0.000 C 
ENDBRANCH  24  26
ENDBRANCH   7  24
TORSDOF 7
ENDMDL
MODEL 7
REMARK VINA RESULT:      -6.2      5.824      8.665
REMARK  Name = Nitrendipine
REMARK  11 active torsions:
REMARK  status: ('A' for Active; 'I' for Inactive)
REMARK    1  A    between atoms: C_1  and  C_2
REMARK    2  A    between atoms: C_2  and  O_3
REMARK    3  A    between atoms: O_3  and  C_4
REMARK    4  A    between atoms: C_4  and  C_6
REMARK    5  A    between atoms: C_7  and  C_8
REMARK    6  A    between atoms: C_10  and  C_11
REMARK    7  A    between atoms: C_12  and  C_23
REMARK    8  A    between atoms: C_13  and  C_14
REMARK    9  A    between atoms: C_16  and  N_20
REMARK   10  A    between atoms: C_23  and  O_25
REMARK   11  A    between atoms: O_25  and  C_26
REMARK                            x       y       z     vdW  Elec       q    Type
REMARK                         _______ _______ _______ _____ _____    ______ ____
ROOT
ATOM      1  C   UNL     1      -9.774   5.680 130.018  0.00  0.00    +0.000 C 
ATOM      2  C   UNL     1     -10.592   5.416 131.064  0.00  0.00    +0.000 C 
ATOM      3  C   UNL     1     -11.738   6.268 131.538  0.00  0.00    +0.000 C 
ATOM      4  N   UNL     1     -10.430   4.227 131.765  0.00  0.00    +0.000 N 
ATOM      5  C   UNL     1      -9.750   3.119 131.274  0.00  0.00    +0.000 C 
ATOM      6  C   UNL     1     -10.078   1.810 131.951  0.00  0.00    +0.000 C 
ATOM      7  C   UNL     1      -8.875   3.263 130.245  0.00  0.00    +0.000 C 
ATOM      8  C   UNL     1      -8.645   4.679 129.676  0.00  0.00    +0.000 C 
ATOM      9  H   UNL     1     -11.052   4.072 132.555  0.00  0.00    +0.000 HD
ENDROOT
BRANCH   8  10
ATOM     10  C   UNL     1      -7.315   5.242 130.198  0.00  0.00    +0.000 A 
ATOM     11  C   UNL     1      -6.123   4.915 129.546  0.00  0.00    +0.000 A 
ATOM     12  C   UNL     1      -4.902   5.337 130.086  0.00  0.00    +0.000 A 
ATOM     13  C   UNL     1      -4.858   6.196 131.193  0.00  0.00    +0.000 A 
ATOM     14  C   UNL     1      -6.044   6.550 131.828  0.00  0.00    +0.000 A 
ATOM     15  C   UNL     1      -7.259   6.060 131.348  0.00  0.00    +0.000 A 
BRANCH  12  16
ATOM     16  N   UNL     1      -3.655   4.771 129.563  0.00  0.00    +0.000 N 
ATOM     17  O   UNL     1      -3.695   4.211 128.458  0.00  0.00    +0.000 OA
ATOM     18  O   UNL     1      -2.645   4.846 130.277  0.00  0.00    +0.000 OA
ENDBRANCH  12  16
ENDBRANCH   8  10
BRANCH   1  19
ATOM     19  C   UNL     1      -9.946   6.839 129.096  0.00  0.00    +0.000 C 
ATOM     20  O   UNL     1      -9.475   7.944 129.345  0.00  0.00    +0.000 OA
BRANCH  19  21
ATOM     21  O   UNL     1     -10.670   6.538 127.981  0.00  0.00    +0.000 OA
BRANCH  21  23
ATOM     22  C   UNL     1     -12.487   7.099 126.463  0.00  0.00    +0.000 C 
ATOM     23  C   UNL     1     -11.972   7.153 127.898  0.00  0.00    +0.000 C 
ENDBRANCH  21  23
ENDBRANCH  19  21
ENDBRANCH   1  19
BRANCH   7  24
ATOM     24  C   UNL     1      -8.149   2.067 129.697  0.00  0.00    +0.000 C 
ATOM     25  O   UNL     1      -7.161   1.566 130.224  0.00  0.00    +0.000 OA
BRANCH  24  26
ATOM     26  O   UNL     1      -8.693   1.579 128.550  0.00  0.00    +0.000 OA
ATOM     27  C   UNL     1      -7.889   0.555 127.928  0.00  0.00    +0.000 C 
ENDBRANCH  24  26
ENDBRANCH   7  24
TORSDOF 7
ENDMDL
MODEL 8
REMARK VINA RESULT:      -6.2      3.069      6.268
REMARK  Name = Nitrendipine
REMARK  11 active torsions:
REMARK  status: ('A' for Active; 'I' for Inactive)
REMARK    1  A    between atoms: C_1  and  C_2
REMARK    2  A    between atoms: C_2  and  O_3
REMARK    3  A    between atoms: O_3  and  C_4
REMARK    4  A    between atoms: C_4  and  C_6
REMARK    5  A    between atoms: C_7  and  C_8
REMARK    6  A    between atoms: C_10  and  C_11
REMARK    7  A    between atoms: C_12  and  C_23
REMARK    8  A    between atoms: C_13  and  C_14
REMARK    9  A    between atoms: C_16  and  N_20
REMARK   10  A    between atoms: C_23  and  O_25
REMARK   11  A    between atoms: O_25  and  C_26
REMARK                            x       y       z     vdW  Elec       q    Type
REMARK                         _______ _______ _______ _____ _____    ______ ____
ROOT
ATOM      1  C   UNL     1      -6.493  -2.204 130.880  0.00  0.00    +0.000 C 
ATOM      2  C   UNL     1      -7.238  -2.167 132.009  0.00  0.00    +0.000 C 
ATOM      3  C   UNL     1      -7.029  -3.000 133.244  0.00  0.00    +0.000 C 
ATOM      4  N   UNL     1      -8.274  -1.246 132.104  0.00  0.00    +0.000 N 
ATOM      5  C   UNL     1      -8.391  -0.118 131.303  0.00  0.00    +0.000 C 
ATOM      6  C   UNL     1      -9.280   0.973 131.850  0.00  0.00    +0.000 C 
ATOM      7  C   UNL     1      -7.715  -0.050 130.126  0.00  0.00    +0.000 C 
ATOM      8  C   UNL     1      -6.859  -1.264 129.707  0.00  0.00    +0.000 C 
ATOM      9  H   UNL     1      -8.823  -1.259 132.961  0.00  0.00    +0.000 HD
ENDROOT
BRANCH   8  10
ATOM     10  C   UNL     1      -7.597  -2.080 128.636  0.00  0.00    +0.000 A 
ATOM     11  C   UNL     1      -7.511  -1.697 127.294  0.00  0.00    +0.000 A 
ATOM     12  C   UNL     1      -8.273  -2.373 126.332  0.00  0.00    +0.000 A 
ATOM     13  C   UNL     1      -9.015  -3.514 126.667  0.00  0.00    +0.000 A 
ATOM     14  C   UNL     1      -9.080  -3.918 127.997  0.00  0.00    +0.000 A 
ATOM     15  C   UNL     1      -8.395  -3.195 128.974  0.00  0.00    +0.000 A 
BRANCH  12  16
ATOM     16  N   UNL     1      -8.392  -1.805 124.987  0.00  0.00    +0.000 N 
ATOM     17  O   UNL     1      -9.405  -1.139 124.729  0.00  0.00    +0.000 OA
ATOM     18  O   UNL     1      -7.495  -2.064 124.171  0.00  0.00    +0.000 OA
ENDBRANCH  12  16
ENDBRANCH   8  10
BRANCH   1  19
ATOM     19  C   UNL     1      -5.264  -3.032 130.718  0.00  0.00    +0.000 C 
ATOM     20  O   UNL     1      -5.316  -4.244 130.526  0.00  0.00    +0.000 OA
BRANCH  19  21
ATOM     21  O   UNL     1      -4.112  -2.311 130.809  0.00  0.00    +0.000 OA
BRANCH  21  23
ATOM     22  C   UNL     1      -3.540  -0.800 132.629  0.00  0.00    +0.000 C 
ATOM     23  C   UNL     1      -3.523  -2.239 132.124  0.00  0.00    +0.000 C 
ENDBRANCH  21  23
ENDBRANCH  19  21
ENDBRANCH   1  19
BRANCH   7  24
ATOM     24  C   UNL     1      -7.822   1.173 129.261  0.00  0.00    +0.000 C 
ATOM     25  O   UNL     1      -8.680   1.328 128.397  0.00  0.00    +0.000 OA
BRANCH  24  26
ATOM     26  O   UNL     1      -6.873   2.110 129.525  0.00  0.00    +0.000 OA
ATOM     27  C   UNL     1      -7.406   3.447 129.637  0.00  0.00    +0.000 C 
ENDBRANCH  24  26
ENDBRANCH   7  24
TORSDOF 7
ENDMDL
MODEL 9
REMARK VINA RESULT:      -6.1      2.360      5.138
REMARK  Name = Nitrendipine
REMARK  11 active torsions:
REMARK  status: ('A' for Active; 'I' for Inactive)
REMARK    1  A    between atoms: C_1  and  C_2
REMARK    2  A    between atoms: C_2  and  O_3
REMARK    3  A    between atoms: O_3  and  C_4
REMARK    4  A    between atoms: C_4  and  C_6
REMARK    5  A    between atoms: C_7  and  C_8
REMARK    6  A    between atoms: C_10  and  C_11
REMARK    7  A    between atoms: C_12  and  C_23
REMARK    8  A    between atoms: C_13  and  C_14
REMARK    9  A    between atoms: C_16  and  N_20
REMARK   10  A    between atoms: C_23  and  O_25
REMARK   11  A    between atoms: O_25  and  C_26
REMARK                            x       y       z     vdW  Elec       q    Type
REMARK                         _______ _______ _______ _____ _____    ______ ____
ROOT
ATOM      1  C   UNL     1      -6.457   1.946 127.106  0.00  0.00    +0.000 C 
ATOM      2  C   UNL     1      -5.180   2.196 127.477  0.00  0.00    +0.000 C 
ATOM      3  C   UNL     1      -4.386   3.435 127.165  0.00  0.00    +0.000 C 
ATOM      4  N   UNL     1      -4.514   1.271 128.271  0.00  0.00    +0.000 N 
ATOM      5  C   UNL     1      -5.147   0.289 129.022  0.00  0.00    +0.000 C 
ATOM      6  C   UNL     1      -4.327  -0.290 130.150  0.00  0.00    +0.000 C 
ATOM      7  C   UNL     1      -6.423  -0.073 128.725  0.00  0.00    +0.000 C 
ATOM      8  C   UNL     1      -7.114   0.609 127.526  0.00  0.00    +0.000 C 
ATOM      9  H   UNL     1      -3.550   1.485 128.516  0.00  0.00    +0.000 HD
ENDROOT
BRANCH   8  10
ATOM     10  C   UNL     1      -7.118  -0.336 126.317  0.00  0.00    +0.000 A 
ATOM     11  C   UNL     1      -8.300  -0.986 125.951  0.00  0.00    +0.000 A 
ATOM     12  C   UNL     1      -8.279  -1.932 124.919  0.00  0.00    +0.000 A 
ATOM     13  C   UNL     1      -7.124  -2.142 124.153  0.00  0.00    +0.000 A 
ATOM     14  C   UNL     1      -5.951  -1.475 124.493  0.00  0.00    +0.000 A 
ATOM     15  C   UNL     1      -5.943  -0.598 125.577  0.00  0.00    +0.000 A 
BRANCH  12  16
ATOM     16  N   UNL     1      -9.442  -2.801 124.721  0.00  0.00    +0.000 N 
ATOM     17  O   UNL     1      -9.736  -3.116 123.560  0.00  0.00    +0.000 OA
ATOM     18  O   UNL     1     -10.091  -3.130 125.725  0.00  0.00    +0.000 OA
ENDBRANCH  12  16
ENDBRANCH   8  10
BRANCH   1  19
ATOM     19  C   UNL     1      -7.326   2.925 126.391  0.00  0.00    +0.000 C 
ATOM     20  O   UNL     1      -8.101   3.665 126.990  0.00  0.00    +0.000 OA
BRANCH  19  21
ATOM     21  O   UNL     1      -7.167   2.900 125.039  0.00  0.00    +0.000 OA
BRANCH  21  23
ATOM     22  C   UNL     1      -9.224   2.055 124.049  0.00  0.00    +0.000 C 
ATOM     23  C   UNL     1      -8.328   3.271 124.267  0.00  0.00    +0.000 C 
ENDBRANCH  21  23
ENDBRANCH  19  21
ENDBRANCH   1  19
BRANCH   7  24
ATOM     24  C   UNL     1      -7.121  -1.122 129.543  0.00  0.00    +0.000 C 
ATOM     25  O   UNL     1      -7.827  -0.874 130.516  0.00  0.00    +0.000 OA
BRANCH  24  26
ATOM     26  O   UNL     1      -6.903  -2.390 129.102  0.00  0.00    +0.000 OA
ATOM     27  C   UNL     1      -8.115  -3.159 128.953  0.00  0.00    +0.000 C 
ENDBRANCH  24  26
ENDBRANCH   7  24
TORSDOF 7
ENDMDL
