MODEL 1
REMARK VINA RESULT:      -5.4      0.000      0.000
REMARK  Name = Nitroglycerin
REMARK  8 active torsions:
REMARK  status: ('A' for Active; 'I' for Inactive)
REMARK    1  A    between atoms: N_2  and  O_4
REMARK    2  A    between atoms: O_4  and  C_5
REMARK    3  A    between atoms: C_5  and  C_6
REMARK    4  A    between atoms: C_6  and  C_7
REMARK    5  A    between atoms: C_6  and  O_12
REMARK    6  A    between atoms: C_7  and  O_8
REMARK    7  A    between atoms: O_8  and  N_9
REMARK    8  A    between atoms: O_12  and  N_13
REMARK                            x       y       z     vdW  Elec       q    Type
REMARK                         _______ _______ _______ _____ _____    ______ ____
ROOT
ATOM      1  C   UNL     1     -12.323   8.051 129.344  0.00  0.00    +0.000 C 
ENDROOT
BRANCH   1   2
ATOM      2  C   UNL     1     -10.809   8.135 128.977  0.00  0.00    +0.000 C 
BRANCH   2   3
ATOM      3  O   UNL     1     -10.679   8.441 127.590  0.00  0.00    +0.000 OA
BRANCH   3   5
ATOM      4  O   UNL     1      -9.836   6.503 126.980  0.00  0.00    +0.000 OA
ATOM      5  N   UNL     1     -10.725   7.317 126.737  0.00  0.00    +0.000 N 
ATOM      6  O   UNL     1     -11.620   7.291 125.894  0.00  0.00    +0.000 OA
ENDBRANCH   3   5
ENDBRANCH   2   3
ENDBRANCH   1   2
BRANCH   1   7
ATOM      7  C   UNL     1     -12.598   6.741 130.122  0.00  0.00    +0.000 C 
BRANCH   7   8
ATOM      8  O   UNL     1     -11.938   5.663 129.471  0.00  0.00    +0.000 OA
BRANCH   8   9
ATOM      9  N   UNL     1     -11.275   4.790 130.356  0.00  0.00    +0.000 N 
ATOM     10  O   UNL     1     -11.358   3.584 130.119  0.00  0.00    +0.000 OA
ATOM     11  O   UNL     1     -10.706   5.385 131.265  0.00  0.00    +0.000 OA
ENDBRANCH   8   9
ENDBRANCH   7   8
ENDBRANCH   1   7
BRANCH   1  12
ATOM     12  O   UNL     1     -12.639   9.215 130.120  0.00  0.00    +0.000 OA
BRANCH  12  13
ATOM     13  N   UNL     1     -13.380  10.214 129.429  0.00  0.00    +0.000 N 
ATOM     14  O   UNL     1     -13.841   9.914 128.326  0.00  0.00    +0.000 OA
ATOM     15  O   UNL     1     -13.473  11.261 130.060  0.00  0.00    +0.000 OA
ENDBRANCH  12  13
ENDBRANCH   1  12
TORSDOF 8
ENDMDL
MODEL 2
REMARK VINA RESULT:      -5.3      1.296      5.068
REMARK  Name = Nitroglycerin
REMARK  8 active torsions:
REMARK  status: ('A' for Active; 'I' for Inactive)
REMARK    1  A    between atoms: N_2  and  O_4
REMARK    2  A    between atoms: O_4  and  C_5
REMARK    3  A    between atoms: C_5  and  C_6
REMARK    4  A    between atoms: C_6  and  C_7
REMARK    5  A    between atoms: C_6  and  O_12
REMARK    6  A    between atoms: C_7  and  O_8
REMARK    7  A    between atoms: O_8  and  N_9
REMARK    8  A    between atoms: O_12  and  N_13
REMARK                            x       y       z     vdW  Elec       q    Type
REMARK                         _______ _______ _______ _____ _____    ______ ____
ROOT
ATOM      1  C   UNL     1     -11.639   7.582 128.417  0.00  0.00    +0.000 C 
ENDROOT
BRANCH   1   2
ATOM      2  C   UNL     1     -10.661   7.531 129.632  0.00  0.00    +0.000 C 
BRANCH   2   3
ATOM      3  O   UNL     1     -10.851   6.306 130.336  0.00  0.00    +0.000 OA
BRANCH   3   5
ATOM      4  O   UNL     1     -12.257   6.799 131.954  0.00  0.00    +0.000 OA
ATOM      5  N   UNL     1     -11.100   6.458 131.718  0.00  0.00    +0.000 N 
ATOM      6  O   UNL     1     -10.164   6.231 132.483  0.00  0.00    +0.000 OA
ENDBRANCH   3   5
ENDBRANCH   2   3
ENDBRANCH   1   2
BRANCH   1   7
ATOM      7  C   UNL     1     -12.973   8.238 128.851  0.00  0.00    +0.000 C 
BRANCH   7   8
ATOM      8  O   UNL     1     -12.712   9.207 129.859  0.00  0.00    +0.000 OA
BRANCH   8   9
ATOM      9  N   UNL     1     -13.320  10.454 129.614  0.00  0.00    +0.000 N 
ATOM     10  O   UNL     1     -13.218  11.309 130.495  0.00  0.00    +0.000 OA
ATOM     11  O   UNL     1     -13.887  10.495 128.527  0.00  0.00    +0.000 OA
ENDBRANCH   8   9
ENDBRANCH   7   8
ENDBRANCH   1   7
BRANCH   1  12
ATOM     12  O   UNL     1     -10.988   8.323 127.376  0.00  0.00    +0.000 OA
BRANCH  12  13
ATOM     13  N   UNL     1     -10.583   7.550 126.253  0.00  0.00    +0.000 N 
ATOM     14  O   UNL     1     -10.019   6.478 126.479  0.00  0.00    +0.000 OA
ATOM     15  O   UNL     1     -10.880   8.070 125.183  0.00  0.00    +0.000 OA
ENDBRANCH  12  13
ENDBRANCH   1  12
TORSDOF 8
ENDMDL
MODEL 3
REMARK VINA RESULT:      -5.3      1.038      3.830
REMARK  Name = Nitroglycerin
REMARK  8 active torsions:
REMARK  status: ('A' for Active; 'I' for Inactive)
REMARK    1  A    between atoms: N_2  and  O_4
REMARK    2  A    between atoms: O_4  and  C_5
REMARK    3  A    between atoms: C_5  and  C_6
REMARK    4  A    between atoms: C_6  and  C_7
REMARK    5  A    between atoms: C_6  and  O_12
REMARK    6  A    between atoms: C_7  and  O_8
REMARK    7  A    between atoms: O_8  and  N_9
REMARK    8  A    between atoms: O_12  and  N_13
REMARK                            x       y       z     vdW  Elec       q    Type
REMARK                         _______ _______ _______ _____ _____    ______ ____
ROOT
ATOM      1  C   UNL     1     -12.029   8.399 129.558  0.00  0.00    +0.000 C 
ENDROOT
BRANCH   1   2
ATOM      2  C   UNL     1     -12.677   6.987 129.702  0.00  0.00    +0.000 C 
BRANCH   2   3
ATOM      3  O   UNL     1     -12.663   6.602 131.075  0.00  0.00    +0.000 OA
BRANCH   3   5
ATOM      4  O   UNL     1     -10.969   6.656 132.477  0.00  0.00    +0.000 OA
ATOM      5  N   UNL     1     -11.439   6.051 131.515  0.00  0.00    +0.000 N 
ATOM      6  O   UNL     1     -11.018   5.068 130.909  0.00  0.00    +0.000 OA
ENDBRANCH   3   5
ENDBRANCH   2   3
ENDBRANCH   1   2
BRANCH   1   7
ATOM      7  C   UNL     1     -10.678   8.277 128.810  0.00  0.00    +0.000 C 
BRANCH   7   8
ATOM      8  O   UNL     1     -10.877   8.574 127.434  0.00  0.00    +0.000 OA
BRANCH   8   9
ATOM      9  N   UNL     1     -10.632   7.480 126.580  0.00  0.00    +0.000 N 
ATOM     10  O   UNL     1      -9.904   6.585 127.013  0.00  0.00    +0.000 OA
ATOM     11  O   UNL     1     -11.191   7.596 125.495  0.00  0.00    +0.000 OA
ENDBRANCH   8   9
ENDBRANCH   7   8
ENDBRANCH   1   7
BRANCH   1  12
ATOM     12  O   UNL     1     -12.962   9.227 128.851  0.00  0.00    +0.000 OA
BRANCH  12  13
ATOM     13  N   UNL     1     -13.384  10.390 129.555  0.00  0.00    +0.000 N 
ATOM     14  O   UNL     1     -13.887  11.299 128.893  0.00  0.00    +0.000 OA
ATOM     15  O   UNL     1     -13.197  10.310 130.764  0.00  0.00    +0.000 OA
ENDBRANCH  12  13
ENDBRANCH   1  12
TORSDOF 8
ENDMDL
MODEL 4
REMARK VINA RESULT:      -5.2      2.079      4.864
REMARK  Name = Nitroglycerin
REMARK  8 active torsions:
REMARK  status: ('A' for Active; 'I' for Inactive)
REMARK    1  A    between atoms: N_2  and  O_4
REMARK    2  A    between atoms: O_4  and  C_5
REMARK    3  A    between atoms: C_5  and  C_6
REMARK    4  A    between atoms: C_6  and  C_7
REMARK    5  A    between atoms: C_6  and  O_12
REMARK    6  A    between atoms: C_7  and  O_8
REMARK    7  A    between atoms: O_8  and  N_9
REMARK    8  A    between atoms: O_12  and  N_13
REMARK                            x       y       z     vdW  Elec       q    Type
REMARK                         _______ _______ _______ _____ _____    ______ ____
ROOT
ATOM      1  C   UNL     1     -11.036   6.750 128.912  0.00  0.00    +0.000 C 
ENDROOT
BRANCH   1   2
ATOM      2  C   UNL     1     -10.073   6.061 129.928  0.00  0.00    +0.000 C 
BRANCH   2   3
ATOM      3  O   UNL     1      -8.745   6.530 129.707  0.00  0.00    +0.000 OA
BRANCH   3   5
ATOM      4  O   UNL     1      -8.741   6.781 131.893  0.00  0.00    +0.000 OA
ATOM      5  N   UNL     1      -8.065   6.936 130.877  0.00  0.00    +0.000 N 
ATOM      6  O   UNL     1      -6.923   7.369 130.738  0.00  0.00    +0.000 OA
ENDBRANCH   3   5
ENDBRANCH   2   3
ENDBRANCH   1   2
BRANCH   1   7
ATOM      7  C   UNL     1     -11.998   7.700 129.668  0.00  0.00    +0.000 C 
BRANCH   7   8
ATOM      8  O   UNL     1     -12.073   8.938 128.974  0.00  0.00    +0.000 OA
BRANCH   8   9
ATOM      9  N   UNL     1     -13.355   9.222 128.464  0.00  0.00    +0.000 N 
ATOM     10  O   UNL     1     -13.792  10.359 128.649  0.00  0.00    +0.000 OA
ATOM     11  O   UNL     1     -13.863   8.256 127.904  0.00  0.00    +0.000 OA
ENDBRANCH   8   9
ENDBRANCH   7   8
ENDBRANCH   1   7
BRANCH   1  12
ATOM     12  O   UNL     1     -10.223   7.451 127.962  0.00  0.00    +0.000 OA
BRANCH  12  13
ATOM     13  N   UNL     1     -10.352   7.004 126.617  0.00  0.00    +0.000 N 
ATOM     14  O   UNL     1     -11.230   7.528 125.929  0.00  0.00    +0.000 OA
ATOM     15  O   UNL     1      -9.530   6.145 126.319  0.00  0.00    +0.000 OA
ENDBRANCH  12  13
ENDBRANCH   1  12
TORSDOF 8
ENDMDL
MODEL 5
REMARK VINA RESULT:      -5.2      1.341      3.842
REMARK  Name = Nitroglycerin
REMARK  8 active torsions:
REMARK  status: ('A' for Active; 'I' for Inactive)
REMARK    1  A    between atoms: N_2  and  O_4
REMARK    2  A    between atoms: O_4  and  C_5
REMARK    3  A    between atoms: C_5  and  C_6
REMARK    4  A    between atoms: C_6  and  C_7
REMARK    5  A    between atoms: C_6  and  O_12
REMARK    6  A    between atoms: C_7  and  O_8
REMARK    7  A    between atoms: O_8  and  N_9
REMARK    8  A    between atoms: O_12  and  N_13
REMARK                            x       y       z     vdW  Elec       q    Type
REMARK                         _______ _______ _______ _____ _____    ______ ____
ROOT
ATOM      1  C   UNL     1     -11.643   6.871 129.238  0.00  0.00    +0.000 C 
ENDROOT
BRANCH   1   2
ATOM      2  C   UNL     1     -12.955   7.553 129.736  0.00  0.00    +0.000 C 
BRANCH   2   3
ATOM      3  O   UNL     1     -12.638   8.825 130.297  0.00  0.00    +0.000 OA
BRANCH   3   5
ATOM      4  O   UNL     1     -13.351  10.904 130.368  0.00  0.00    +0.000 OA
ATOM      5  N   UNL     1     -13.240   9.921 129.639  0.00  0.00    +0.000 N 
ATOM      6  O   UNL     1     -13.558   9.761 128.462  0.00  0.00    +0.000 OA
ENDBRANCH   3   5
ENDBRANCH   2   3
ENDBRANCH   1   2
BRANCH   1   7
ATOM      7  C   UNL     1     -11.393   5.572 130.044  0.00  0.00    +0.000 C 
BRANCH   7   8
ATOM      8  O   UNL     1     -10.043   5.550 130.488  0.00  0.00    +0.000 OA
BRANCH   8   9
ATOM      9  N   UNL     1      -9.799   6.391 131.592  0.00  0.00    +0.000 N 
ATOM     10  O   UNL     1     -10.690   6.472 132.440  0.00  0.00    +0.000 OA
ATOM     11  O   UNL     1      -8.705   6.941 131.533  0.00  0.00    +0.000 OA
ENDBRANCH   8   9
ENDBRANCH   7   8
ENDBRANCH   1   7
BRANCH   1  12
ATOM     12  O   UNL     1     -11.802   6.613 127.836  0.00  0.00    +0.000 OA
BRANCH  12  13
ATOM     13  N   UNL     1     -10.831   7.230 126.999  0.00  0.00    +0.000 N 
ATOM     14  O   UNL     1     -10.162   6.494 126.272  0.00  0.00    +0.000 OA
ATOM     15  O   UNL     1     -10.813   8.451 127.110  0.00  0.00    +0.000 OA
ENDBRANCH  12  13
ENDBRANCH   1  12
TORSDOF 8
ENDMDL
MODEL 6
REMARK VINA RESULT:      -5.1      2.464      3.086
REMARK  Name = Nitroglycerin
REMARK  8 active torsions:
REMARK  status: ('A' for Active; 'I' for Inactive)
REMARK    1  A    between atoms: N_2  and  O_4
REMARK    2  A    between atoms: O_4  and  C_5
REMARK    3  A    between atoms: C_5  and  C_6
REMARK    4  A    between atoms: C_6  and  C_7
REMARK    5  A    between atoms: C_6  and  O_12
REMARK    6  A    between atoms: C_7  and  O_8
REMARK    7  A    between atoms: O_8  and  N_9
REMARK    8  A    between atoms: O_12  and  N_13
REMARK                            x       y       z     vdW  Elec       q    Type
REMARK                         _______ _______ _______ _____ _____    ______ ____
ROOT
ATOM      1  C   UNL     1     -10.852   7.298 129.224  0.00  0.00    +0.000 C 
ENDROOT
BRANCH   1   2
ATOM      2  C   UNL     1     -10.402   8.440 128.261  0.00  0.00    +0.000 C 
BRANCH   2   3
ATOM      3  O   UNL     1     -11.234   8.433 127.103  0.00  0.00    +0.000 OA
BRANCH   3   5
ATOM      4  O   UNL     1     -10.249   6.706 126.161  0.00  0.00    +0.000 OA
ATOM      5  N   UNL     1     -11.343   7.176 126.468  0.00  0.00    +0.000 N 
ATOM      6  O   UNL     1     -12.476   6.723 126.316  0.00  0.00    +0.000 OA
ENDBRANCH   3   5
ENDBRANCH   2   3
ENDBRANCH   1   2
BRANCH   1   7
ATOM      7  C   UNL     1      -9.607   6.564 129.779  0.00  0.00    +0.000 C 
BRANCH   7   8
ATOM      8  O   UNL     1      -8.608   7.521 130.108  0.00  0.00    +0.000 OA
BRANCH   8   9
ATOM      9  N   UNL     1      -7.639   7.037 131.010  0.00  0.00    +0.000 N 
ATOM     10  O   UNL     1      -8.047   6.377 131.967  0.00  0.00    +0.000 OA
ATOM     11  O   UNL     1      -6.501   7.369 130.699  0.00  0.00    +0.000 OA
ENDBRANCH   8   9
ENDBRANCH   7   8
ENDBRANCH   1   7
BRANCH   1  12
ATOM     12  O   UNL     1     -11.631   7.901 130.266  0.00  0.00    +0.000 OA
BRANCH  12  13
ATOM     13  N   UNL     1     -12.917   7.324 130.464  0.00  0.00    +0.000 N 
ATOM     14  O   UNL     1     -13.344   7.280 131.619  0.00  0.00    +0.000 OA
ATOM     15  O   UNL     1     -13.441   6.958 129.419  0.00  0.00    +0.000 OA
ENDBRANCH  12  13
ENDBRANCH   1  12
TORSDOF 8
ENDMDL
MODEL 7
REMARK VINA RESULT:      -5.1      1.044      3.931
REMARK  Name = Nitroglycerin
REMARK  8 active torsions:
REMARK  status: ('A' for Active; 'I' for Inactive)
REMARK    1  A    between atoms: N_2  and  O_4
REMARK    2  A    between atoms: O_4  and  C_5
REMARK    3  A    between atoms: C_5  and  C_6
REMARK    4  A    between atoms: C_6  and  C_7
REMARK    5  A    between atoms: C_6  and  O_12
REMARK    6  A    between atoms: C_7  and  O_8
REMARK    7  A    between atoms: O_8  and  N_9
REMARK    8  A    between atoms: O_12  and  N_13
REMARK                            x       y       z     vdW  Elec       q    Type
REMARK                         _______ _______ _______ _____ _____    ______ ____
ROOT
ATOM      1  C   UNL     1     -11.199   7.474 128.657  0.00  0.00    +0.000 C 
ENDROOT
BRANCH   1   2
ATOM      2  C   UNL     1     -12.632   7.772 129.196  0.00  0.00    +0.000 C 
BRANCH   2   3
ATOM      3  O   UNL     1     -12.576   8.886 130.086  0.00  0.00    +0.000 OA
BRANCH   3   5
ATOM      4  O   UNL     1     -13.698   9.900 128.489  0.00  0.00    +0.000 OA
ATOM      5  N   UNL     1     -13.264  10.033 129.632  0.00  0.00    +0.000 N 
ATOM      6  O   UNL     1     -13.346  10.981 130.410  0.00  0.00    +0.000 OA
ENDBRANCH   3   5
ENDBRANCH   2   3
ENDBRANCH   1   2
BRANCH   1   7
ATOM      7  C   UNL     1     -10.352   6.808 129.769  0.00  0.00    +0.000 C 
BRANCH   7   8
ATOM      8  O   UNL     1      -9.985   5.498 129.356  0.00  0.00    +0.000 OA
BRANCH   8   9
ATOM      9  N   UNL     1     -10.369   4.492 130.266  0.00  0.00    +0.000 N 
ATOM     10  O   UNL     1     -11.490   4.002 130.117  0.00  0.00    +0.000 OA
ATOM     11  O   UNL     1      -9.504   4.260 131.103  0.00  0.00    +0.000 OA
ENDBRANCH   8   9
ENDBRANCH   7   8
ENDBRANCH   1   7
BRANCH   1  12
ATOM     12  O   UNL     1     -11.343   6.626 127.509  0.00  0.00    +0.000 OA
BRANCH  12  13
ATOM     13  N   UNL     1     -10.509   6.963 126.407  0.00  0.00    +0.000 N 
ATOM     14  O   UNL     1      -9.560   6.214 126.167  0.00  0.00    +0.000 OA
ATOM     15  O   UNL     1     -10.877   7.975 125.822  0.00  0.00    +0.000 OA
ENDBRANCH  12  13
ENDBRANCH   1  12
TORSDOF 8
ENDMDL
MODEL 8
REMARK VINA RESULT:      -5.0      2.737      4.556
REMARK  Name = Nitroglycerin
REMARK  8 active torsions:
REMARK  status: ('A' for Active; 'I' for Inactive)
REMARK    1  A    between atoms: N_2  and  O_4
REMARK    2  A    between atoms: O_4  and  C_5
REMARK    3  A    between atoms: C_5  and  C_6
REMARK    4  A    between atoms: C_6  and  C_7
REMARK    5  A    between atoms: C_6  and  O_12
REMARK    6  A    between atoms: C_7  and  O_8
REMARK    7  A    between atoms: O_8  and  N_9
REMARK    8  A    between atoms: O_12  and  N_13
REMARK                            x       y       z     vdW  Elec       q    Type
REMARK                         _______ _______ _______ _____ _____    ______ ____
ROOT
ATOM      1  C   UNL     1     -10.238   6.702 129.491  0.00  0.00    +0.000 C 
ENDROOT
BRANCH   1   2
ATOM      2  C   UNL     1     -11.469   5.805 129.828  0.00  0.00    +0.000 C 
BRANCH   2   3
ATOM      3  O   UNL     1     -12.666   6.540 129.582  0.00  0.00    +0.000 OA
BRANCH   3   5
ATOM      4  O   UNL     1     -12.833   8.695 129.991  0.00  0.00    +0.000 OA
ATOM      5  N   UNL     1     -12.914   7.581 130.504  0.00  0.00    +0.000 N 
ATOM      6  O   UNL     1     -13.178   7.253 131.660  0.00  0.00    +0.000 OA
ENDBRANCH   3   5
ENDBRANCH   2   3
ENDBRANCH   1   2
BRANCH   1   7
ATOM      7  C   UNL     1      -9.057   6.339 130.425  0.00  0.00    +0.000 C 
BRANCH   7   8
ATOM      8  O   UNL     1      -8.133   7.419 130.452  0.00  0.00    +0.000 OA
BRANCH   8   9
ATOM      9  N   UNL     1      -6.896   7.088 131.039  0.00  0.00    +0.000 N 
ATOM     10  O   UNL     1      -6.928   6.393 132.057  0.00  0.00    +0.000 OA
ATOM     11  O   UNL     1      -5.944   7.568 130.433  0.00  0.00    +0.000 OA
ENDBRANCH   8   9
ENDBRANCH   7   8
ENDBRANCH   1   7
BRANCH   1  12
ATOM     12  O   UNL     1      -9.918   6.486 128.109  0.00  0.00    +0.000 OA
BRANCH  12  13
ATOM     13  N   UNL     1     -10.569   7.363 127.198  0.00  0.00    +0.000 N 
ATOM     14  O   UNL     1     -10.587   8.561 127.483  0.00  0.00    +0.000 OA
ATOM     15  O   UNL     1     -11.020   6.782 126.217  0.00  0.00    +0.000 OA
ENDBRANCH  12  13
ENDBRANCH   1  12
TORSDOF 8
ENDMDL
MODEL 9
REMARK VINA RESULT:      -5.0      0.853      4.833
REMARK  Name = Nitroglycerin
REMARK  8 active torsions:
REMARK  status: ('A' for Active; 'I' for Inactive)
REMARK    1  A    between atoms: N_2  and  O_4
REMARK    2  A    between atoms: O_4  and  C_5
REMARK    3  A    between atoms: C_5  and  C_6
REMARK    4  A    between atoms: C_6  and  C_7
REMARK    5  A    between atoms: C_6  and  O_12
REMARK    6  A    between atoms: C_7  and  O_8
REMARK    7  A    between atoms: O_8  and  N_9
REMARK    8  A    between atoms: O_12  and  N_13
REMARK                            x       y       z     vdW  Elec       q    Type
REMARK                         _______ _______ _______ _____ _____    ______ ____
ROOT
ATOM      1  C   UNL     1     -11.557   6.792 129.257  0.00  0.00    +0.000 C 
ENDROOT
BRANCH   1   2
ATOM      2  C   UNL     1     -12.824   7.574 129.723  0.00  0.00    +0.000 C 
BRANCH   2   3
ATOM      3  O   UNL     1     -12.437   8.870 130.173  0.00  0.00    +0.000 OA
BRANCH   3   5
ATOM      4  O   UNL     1     -13.352  10.851 130.450  0.00  0.00    +0.000 OA
ATOM      5  N   UNL     1     -13.214   9.927 129.650  0.00  0.00    +0.000 N 
ATOM      6  O   UNL     1     -13.634   9.799 128.502  0.00  0.00    +0.000 OA
ENDBRANCH   3   5
ENDBRANCH   2   3
ENDBRANCH   1   2
BRANCH   1   7
ATOM      7  C   UNL     1     -10.455   7.794 128.831  0.00  0.00    +0.000 C 
BRANCH   7   8
ATOM      8  O   UNL     1     -10.679   8.189 127.484  0.00  0.00    +0.000 OA
BRANCH   8   9
ATOM      9  N   UNL     1     -10.801   7.106 126.591  0.00  0.00    +0.000 N 
ATOM     10  O   UNL     1     -11.904   6.935 126.067  0.00  0.00    +0.000 OA
ATOM     11  O   UNL     1      -9.759   6.470 126.478  0.00  0.00    +0.000 OA
ENDBRANCH   8   9
ENDBRANCH   7   8
ENDBRANCH   1   7
BRANCH   1  12
ATOM     12  O   UNL     1     -11.138   5.966 130.353  0.00  0.00    +0.000 OA
BRANCH  12  13
ATOM     13  N   UNL     1     -10.651   4.681 129.983  0.00  0.00    +0.000 N 
ATOM     14  O   UNL     1      -9.507   4.620 129.531  0.00  0.00    +0.000 OA
ATOM     15  O   UNL     1     -11.462   3.786 130.192  0.00  0.00    +0.000 OA
ENDBRANCH  12  13
ENDBRANCH   1  12
TORSDOF 8
ENDMDL
