MODEL 1
REMARK VINA RESULT:      -5.6      0.000      0.000
REMARK  Name = Nizatidine
REMARK  13 active torsions:
REMARK  status: ('A' for Active; 'I' for Inactive)
REMARK    1  A    between atoms: C_1  and  N_2
REMARK    2  A    between atoms: N_2  and  C_3
REMARK    3  A    between atoms: C_3  and  N_4
REMARK    4  A    between atoms: N_4  and  C_5
REMARK    5  A    between atoms: C_5  and  C_6
REMARK    6  A    between atoms: C_6  and  S_7
REMARK    7  A    between atoms: S_7  and  C_8
REMARK    8  A    between atoms: C_8  and  C_9
REMARK    9  A    between atoms: C_12  and  C_13
REMARK   10  A    between atoms: C_13  and  N_14
REMARK   11  A    between atoms: N_14  and  C_15
REMARK   12  A    between atoms: N_14  and  C_16
REMARK   13  A    between atoms: C_18  and  N_19
REMARK                            x       y       z     vdW  Elec       q    Type
REMARK                         _______ _______ _______ _____ _____    ______ ____
ROOT
ATOM      1  C   UNL     1     -11.022   4.698 130.493  0.00  0.00    +0.000 C 
ENDROOT
BRANCH   1   2
ATOM      2  C   UNL     1     -11.624   6.093 130.547  0.00  0.00    +0.000 C 
BRANCH   2   3
ATOM      3  N   UNL     1     -11.985   6.676 129.278  0.00  0.00    +0.000 N 
ATOM      4  H   UNL     1     -12.318   6.031 128.556  0.00  0.00    +0.000 HD
BRANCH   3   5
ATOM      5  C   UNL     1     -11.959   8.015 128.913  0.00  0.00    +0.000 C 
ATOM      6  C   UNL     1     -11.394   8.423 127.753  0.00  0.00    +0.000 C 
BRANCH   5   8
ATOM      7  C   UNL     1     -13.264  10.180 129.369  0.00  0.00    +0.000 C 
ATOM      8  N   UNL     1     -12.517   8.995 129.739  0.00  0.00    +0.000 N 
ATOM      9  H   UNL     1     -12.384   8.887 130.741  0.00  0.00    +0.000 HD
ENDBRANCH   5   8
BRANCH   6  10
ATOM     10  N   UNL     1     -10.777   7.518 126.803  0.00  0.00    +0.000 N 
ATOM     11  O   UNL     1     -11.096   7.571 125.601  0.00  0.00    +0.000 OA
ATOM     12  O   UNL     1      -9.951   6.729 127.269  0.00  0.00    +0.000 OA
ENDBRANCH   6  10
ENDBRANCH   3   5
ENDBRANCH   2   3
ENDBRANCH   1   2
BRANCH   1  13
ATOM     13  S   UNL     1      -9.246   5.015 130.188  0.00  0.00    +0.000 S 
BRANCH  13  14
ATOM     14  C   UNL     1      -8.916   6.393 131.317  0.00  0.00    +0.000 C 
BRANCH  14  15
ATOM     15  C   UNL     1      -7.448   6.402 131.616  0.00  0.00    +0.000 A 
ATOM     16  C   UNL     1      -6.807   5.877 132.722  0.00  0.00    +0.000 A 
ATOM     17  S   UNL     1      -5.110   6.114 132.599  0.00  0.00    +0.000 S 
ATOM     18  C   UNL     1      -5.338   6.885 131.080  0.00  0.00    +0.000 A 
ATOM     19  N   UNL     1      -6.593   6.934 130.678  0.00  0.00    +0.000 NA
BRANCH  18  20
ATOM     20  C   UNL     1      -4.167   7.494 130.326  0.00  0.00    +0.000 C 
BRANCH  20  21
ATOM     21  N   UNL     1      -3.399   6.493 129.545  0.00  0.00    +0.000 NA
ATOM     22  C   UNL     1      -3.550   6.712 128.103  0.00  0.00    +0.000 C 
ATOM     23  C   UNL     1      -1.983   6.520 129.893  0.00  0.00    +0.000 C 
ENDBRANCH  20  21
ENDBRANCH  18  20
ENDBRANCH  14  15
ENDBRANCH  13  14
ENDBRANCH   1  13
TORSDOF 10
ENDMDL
MODEL 2
REMARK VINA RESULT:      -5.4      2.637      3.062
REMARK  Name = Nizatidine
REMARK  13 active torsions:
REMARK  status: ('A' for Active; 'I' for Inactive)
REMARK    1  A    between atoms: C_1  and  N_2
REMARK    2  A    between atoms: N_2  and  C_3
REMARK    3  A    between atoms: C_3  and  N_4
REMARK    4  A    between atoms: N_4  and  C_5
REMARK    5  A    between atoms: C_5  and  C_6
REMARK    6  A    between atoms: C_6  and  S_7
REMARK    7  A    between atoms: S_7  and  C_8
REMARK    8  A    between atoms: C_8  and  C_9
REMARK    9  A    between atoms: C_12  and  C_13
REMARK   10  A    between atoms: C_13  and  N_14
REMARK   11  A    between atoms: N_14  and  C_15
REMARK   12  A    between atoms: N_14  and  C_16
REMARK   13  A    between atoms: C_18  and  N_19
REMARK                            x       y       z     vdW  Elec       q    Type
REMARK                         _______ _______ _______ _____ _____    ______ ____
ROOT
ATOM      1  C   UNL     1     -11.417   5.808 130.973  0.00  0.00    +0.000 C 
ENDROOT
BRANCH   1   2
ATOM      2  C   UNL     1     -12.039   7.191 130.877  0.00  0.00    +0.000 C 
BRANCH   2   3
ATOM      3  N   UNL     1     -12.507   7.587 129.571  0.00  0.00    +0.000 N 
ATOM      4  H   UNL     1     -13.252   7.017 129.160  0.00  0.00    +0.000 HD
BRANCH   3   5
ATOM      5  C   UNL     1     -12.087   8.662 128.801  0.00  0.00    +0.000 C 
ATOM      6  C   UNL     1     -11.308   8.492 127.709  0.00  0.00    +0.000 C 
BRANCH   5   8
ATOM      7  C   UNL     1     -13.475  10.422 130.058  0.00  0.00    +0.000 C 
ATOM      8  N   UNL     1     -12.457   9.970 129.132  0.00  0.00    +0.000 N 
ATOM      9  H   UNL     1     -11.962  10.723 128.662  0.00  0.00    +0.000 HD
ENDBRANCH   5   8
BRANCH   6  10
ATOM     10  N   UNL     1     -10.848   7.195 127.251  0.00  0.00    +0.000 N 
ATOM     11  O   UNL     1      -9.972   6.586 127.892  0.00  0.00    +0.000 OA
ATOM     12  O   UNL     1     -11.374   6.771 126.218  0.00  0.00    +0.000 OA
ENDBRANCH   6  10
ENDBRANCH   3   5
ENDBRANCH   2   3
ENDBRANCH   1   2
BRANCH   1  13
ATOM     13  S   UNL     1     -10.151   6.003 132.280  0.00  0.00    +0.000 S 
BRANCH  13  14
ATOM     14  C   UNL     1      -8.670   6.382 131.307  0.00  0.00    +0.000 C 
BRANCH  14  15
ATOM     15  C   UNL     1      -8.156   5.098 130.733  0.00  0.00    +0.000 A 
ATOM     16  C   UNL     1      -8.127   3.855 131.334  0.00  0.00    +0.000 A 
ATOM     17  S   UNL     1      -7.463   2.686 130.264  0.00  0.00    +0.000 S 
ATOM     18  C   UNL     1      -7.269   3.907 129.069  0.00  0.00    +0.000 A 
ATOM     19  N   UNL     1      -7.701   5.099 129.434  0.00  0.00    +0.000 NA
BRANCH  18  20
ATOM     20  C   UNL     1      -6.600   3.603 127.738  0.00  0.00    +0.000 C 
BRANCH  20  21
ATOM     21  N   UNL     1      -6.735   4.707 126.757  0.00  0.00    +0.000 NA
ATOM     22  C   UNL     1      -5.520   4.855 125.949  0.00  0.00    +0.000 C 
ATOM     23  C   UNL     1      -7.880   4.500 125.877  0.00  0.00    +0.000 C 
ENDBRANCH  20  21
ENDBRANCH  18  20
ENDBRANCH  14  15
ENDBRANCH  13  14
ENDBRANCH   1  13
TORSDOF 10
ENDMDL
MODEL 3
REMARK VINA RESULT:      -5.4      3.617      4.721
REMARK  Name = Nizatidine
REMARK  13 active torsions:
REMARK  status: ('A' for Active; 'I' for Inactive)
REMARK    1  A    between atoms: C_1  and  N_2
REMARK    2  A    between atoms: N_2  and  C_3
REMARK    3  A    between atoms: C_3  and  N_4
REMARK    4  A    between atoms: N_4  and  C_5
REMARK    5  A    between atoms: C_5  and  C_6
REMARK    6  A    between atoms: C_6  and  S_7
REMARK    7  A    between atoms: S_7  and  C_8
REMARK    8  A    between atoms: C_8  and  C_9
REMARK    9  A    between atoms: C_12  and  C_13
REMARK   10  A    between atoms: C_13  and  N_14
REMARK   11  A    between atoms: N_14  and  C_15
REMARK   12  A    between atoms: N_14  and  C_16
REMARK   13  A    between atoms: C_18  and  N_19
REMARK                            x       y       z     vdW  Elec       q    Type
REMARK                         _______ _______ _______ _____ _____    ______ ____
ROOT
ATOM      1  C   UNL     1     -10.481   6.336 130.978  0.00  0.00    +0.000 C 
ENDROOT
BRANCH   1   2
ATOM      2  C   UNL     1     -11.600   5.675 130.191  0.00  0.00    +0.000 C 
BRANCH   2   3
ATOM      3  N   UNL     1     -11.989   6.333 128.967  0.00  0.00    +0.000 N 
ATOM      4  H   UNL     1     -12.203   5.728 128.170  0.00  0.00    +0.000 HD
BRANCH   3   5
ATOM      5  C   UNL     1     -12.133   7.694 128.736  0.00  0.00    +0.000 C 
ATOM      6  C   UNL     1     -11.549   8.298 127.676  0.00  0.00    +0.000 C 
BRANCH   5   8
ATOM      7  C   UNL     1     -12.979   9.937 129.657  0.00  0.00    +0.000 C 
ATOM      8  N   UNL     1     -12.890   8.493 129.598  0.00  0.00    +0.000 N 
ATOM      9  H   UNL     1     -13.455   8.015 130.294  0.00  0.00    +0.000 HD
ENDBRANCH   5   8
BRANCH   6  10
ATOM     10  N   UNL     1     -10.736   7.595 126.703  0.00  0.00    +0.000 N 
ATOM     11  O   UNL     1      -9.961   6.695 127.078  0.00  0.00    +0.000 OA
ATOM     12  O   UNL     1     -10.871   7.951 125.529  0.00  0.00    +0.000 OA
ENDBRANCH   6  10
ENDBRANCH   3   5
ENDBRANCH   2   3
ENDBRANCH   1   2
BRANCH   1  13
ATOM     13  S   UNL     1      -8.980   5.466 130.394  0.00  0.00    +0.000 S 
BRANCH  13  14
ATOM     14  C   UNL     1      -9.440   3.730 130.640  0.00  0.00    +0.000 C 
BRANCH  14  15
ATOM     15  C   UNL     1      -8.586   2.895 129.735  0.00  0.00    +0.000 A 
ATOM     16  C   UNL     1      -7.319   2.406 129.985  0.00  0.00    +0.000 A 
ATOM     17  S   UNL     1      -6.760   1.480 128.649  0.00  0.00    +0.000 S 
ATOM     18  C   UNL     1      -8.244   1.781 127.834  0.00  0.00    +0.000 A 
ATOM     19  N   UNL     1      -9.109   2.497 128.527  0.00  0.00    +0.000 NA
BRANCH  18  20
ATOM     20  C   UNL     1      -8.473   1.290 126.414  0.00  0.00    +0.000 C 
BRANCH  20  21
ATOM     21  N   UNL     1      -9.110   2.309 125.545  0.00  0.00    +0.000 NA
ATOM     22  C   UNL     1      -8.146   3.333 125.128  0.00  0.00    +0.000 C 
ATOM     23  C   UNL     1      -9.711   1.700 124.364  0.00  0.00    +0.000 C 
ENDBRANCH  20  21
ENDBRANCH  18  20
ENDBRANCH  14  15
ENDBRANCH  13  14
ENDBRANCH   1  13
TORSDOF 10
ENDMDL
MODEL 4
REMARK VINA RESULT:      -5.3      3.182      7.058
REMARK  Name = Nizatidine
REMARK  13 active torsions:
REMARK  status: ('A' for Active; 'I' for Inactive)
REMARK    1  A    between atoms: C_1  and  N_2
REMARK    2  A    between atoms: N_2  and  C_3
REMARK    3  A    between atoms: C_3  and  N_4
REMARK    4  A    between atoms: N_4  and  C_5
REMARK    5  A    between atoms: C_5  and  C_6
REMARK    6  A    between atoms: C_6  and  S_7
REMARK    7  A    between atoms: S_7  and  C_8
REMARK    8  A    between atoms: C_8  and  C_9
REMARK    9  A    between atoms: C_12  and  C_13
REMARK   10  A    between atoms: C_13  and  N_14
REMARK   11  A    between atoms: N_14  and  C_15
REMARK   12  A    between atoms: N_14  and  C_16
REMARK   13  A    between atoms: C_18  and  N_19
REMARK                            x       y       z     vdW  Elec       q    Type
REMARK                         _______ _______ _______ _____ _____    ______ ____
ROOT
ATOM      1  C   UNL     1      -7.969   2.942 129.194  0.00  0.00    +0.000 C 
ENDROOT
BRANCH   1   2
ATOM      2  C   UNL     1      -6.565   3.233 128.692  0.00  0.00    +0.000 C 
BRANCH   2   3
ATOM      3  N   UNL     1      -6.373   3.153 127.265  0.00  0.00    +0.000 N 
ATOM      4  H   UNL     1      -6.610   2.262 126.820  0.00  0.00    +0.000 HD
BRANCH   3   5
ATOM      5  C   UNL     1      -5.925   4.146 126.405  0.00  0.00    +0.000 C 
ATOM      6  C   UNL     1      -6.784   4.887 125.667  0.00  0.00    +0.000 C 
BRANCH   5   8
ATOM      7  C   UNL     1      -3.440   3.500 126.341  0.00  0.00    +0.000 C 
ATOM      8  N   UNL     1      -4.560   4.415 126.268  0.00  0.00    +0.000 N 
ATOM      9  H   UNL     1      -4.294   5.382 126.104  0.00  0.00    +0.000 HD
ENDBRANCH   5   8
BRANCH   6  10
ATOM     10  N   UNL     1      -8.223   4.716 125.707  0.00  0.00    +0.000 N 
ATOM     11  O   UNL     1      -8.952   5.671 126.032  0.00  0.00    +0.000 OA
ATOM     12  O   UNL     1      -8.641   3.594 125.406  0.00  0.00    +0.000 OA
ENDBRANCH   6  10
ENDBRANCH   3   5
ENDBRANCH   2   3
ENDBRANCH   1   2
BRANCH   1  13
ATOM     13  S   UNL     1      -8.666   4.608 129.495  0.00  0.00    +0.000 S 
BRANCH  13  14
ATOM     14  C   UNL     1      -9.854   4.278 130.822  0.00  0.00    +0.000 C 
BRANCH  14  15
ATOM     15  C   UNL     1     -10.904   5.346 130.776  0.00  0.00    +0.000 A 
ATOM     16  C   UNL     1     -11.302   6.184 131.800  0.00  0.00    +0.000 A 
ATOM     17  S   UNL     1     -12.525   7.260 131.252  0.00  0.00    +0.000 S 
ATOM     18  C   UNL     1     -12.435   6.548 129.689  0.00  0.00    +0.000 A 
ATOM     19  N   UNL     1     -11.530   5.595 129.577  0.00  0.00    +0.000 NA
BRANCH  18  20
ATOM     20  C   UNL     1     -13.378   6.978 128.577  0.00  0.00    +0.000 C 
BRANCH  20  21
ATOM     21  N   UNL     1     -12.925   8.205 127.877  0.00  0.00    +0.000 NA
ATOM     22  C   UNL     1     -13.369   9.414 128.577  0.00  0.00    +0.000 C 
ATOM     23  C   UNL     1     -11.473   8.232 127.738  0.00  0.00    +0.000 C 
ENDBRANCH  20  21
ENDBRANCH  18  20
ENDBRANCH  14  15
ENDBRANCH  13  14
ENDBRANCH   1  13
TORSDOF 10
ENDMDL
MODEL 5
REMARK VINA RESULT:      -5.2      3.975      6.743
REMARK  Name = Nizatidine
REMARK  13 active torsions:
REMARK  status: ('A' for Active; 'I' for Inactive)
REMARK    1  A    between atoms: C_1  and  N_2
REMARK    2  A    between atoms: N_2  and  C_3
REMARK    3  A    between atoms: C_3  and  N_4
REMARK    4  A    between atoms: N_4  and  C_5
REMARK    5  A    between atoms: C_5  and  C_6
REMARK    6  A    between atoms: C_6  and  S_7
REMARK    7  A    between atoms: S_7  and  C_8
REMARK    8  A    between atoms: C_8  and  C_9
REMARK    9  A    between atoms: C_12  and  C_13
REMARK   10  A    between atoms: C_13  and  N_14
REMARK   11  A    between atoms: N_14  and  C_15
REMARK   12  A    between atoms: N_14  and  C_16
REMARK   13  A    between atoms: C_18  and  N_19
REMARK                            x       y       z     vdW  Elec       q    Type
REMARK                         _______ _______ _______ _____ _____    ______ ____
ROOT
ATOM      1  C   UNL     1      -8.487   2.065 129.439  0.00  0.00    +0.000 C 
ENDROOT
BRANCH   1   2
ATOM      2  C   UNL     1      -8.536   1.575 128.002  0.00  0.00    +0.000 C 
BRANCH   2   3
ATOM      3  N   UNL     1      -7.885   2.413 127.024  0.00  0.00    +0.000 N 
ATOM      4  H   UNL     1      -7.127   3.009 127.365  0.00  0.00    +0.000 HD
BRANCH   3   5
ATOM      5  C   UNL     1      -8.144   2.499 125.664  0.00  0.00    +0.000 C 
ATOM      6  C   UNL     1      -8.216   3.693 125.030  0.00  0.00    +0.000 C 
BRANCH   5   8
ATOM      7  C   UNL     1      -7.707   0.961 123.654  0.00  0.00    +0.000 C 
ATOM      8  N   UNL     1      -8.344   1.349 124.896  0.00  0.00    +0.000 N 
ATOM      9  H   UNL     1      -9.034   0.682 125.232  0.00  0.00    +0.000 HD
ENDBRANCH   5   8
BRANCH   6  10
ATOM     10  N   UNL     1      -8.032   4.965 125.700  0.00  0.00    +0.000 N 
ATOM     11  O   UNL     1      -9.023   5.654 126.005  0.00  0.00    +0.000 OA
ATOM     12  O   UNL     1      -6.864   5.290 125.930  0.00  0.00    +0.000 OA
ENDBRANCH   6  10
ENDBRANCH   3   5
ENDBRANCH   2   3
ENDBRANCH   1   2
BRANCH   1  13
ATOM     13  S   UNL     1      -8.459   3.886 129.266  0.00  0.00    +0.000 S 
BRANCH  13  14
ATOM     14  C   UNL     1      -8.892   4.424 130.941  0.00  0.00    +0.000 C 
BRANCH  14  15
ATOM     15  C   UNL     1     -10.102   5.302 130.844  0.00  0.00    +0.000 A 
ATOM     16  C   UNL     1     -10.758   5.953 131.871  0.00  0.00    +0.000 A 
ATOM     17  S   UNL     1     -12.082   6.860 131.256  0.00  0.00    +0.000 S 
ATOM     18  C   UNL     1     -11.687   6.337 129.666  0.00  0.00    +0.000 A 
ATOM     19  N   UNL     1     -10.621   5.564 129.597  0.00  0.00    +0.000 NA
BRANCH  18  20
ATOM     20  C   UNL     1     -12.557   6.716 128.478  0.00  0.00    +0.000 C 
BRANCH  20  21
ATOM     21  N   UNL     1     -12.254   8.067 127.948  0.00  0.00    +0.000 NA
ATOM     22  C   UNL     1     -13.042   9.098 128.632  0.00  0.00    +0.000 C 
ATOM     23  C   UNL     1     -10.835   8.382 128.072  0.00  0.00    +0.000 C 
ENDBRANCH  20  21
ENDBRANCH  18  20
ENDBRANCH  14  15
ENDBRANCH  13  14
ENDBRANCH   1  13
TORSDOF 10
ENDMDL
MODEL 6
REMARK VINA RESULT:      -5.1      4.844      7.073
REMARK  Name = Nizatidine
REMARK  13 active torsions:
REMARK  status: ('A' for Active; 'I' for Inactive)
REMARK    1  A    between atoms: C_1  and  N_2
REMARK    2  A    between atoms: N_2  and  C_3
REMARK    3  A    between atoms: C_3  and  N_4
REMARK    4  A    between atoms: N_4  and  C_5
REMARK    5  A    between atoms: C_5  and  C_6
REMARK    6  A    between atoms: C_6  and  S_7
REMARK    7  A    between atoms: S_7  and  C_8
REMARK    8  A    between atoms: C_8  and  C_9
REMARK    9  A    between atoms: C_12  and  C_13
REMARK   10  A    between atoms: C_13  and  N_14
REMARK   11  A    between atoms: N_14  and  C_15
REMARK   12  A    between atoms: N_14  and  C_16
REMARK   13  A    between atoms: C_18  and  N_19
REMARK                            x       y       z     vdW  Elec       q    Type
REMARK                         _______ _______ _______ _____ _____    ______ ____
ROOT
ATOM      1  C   UNL     1      -8.348   1.419 127.454  0.00  0.00    +0.000 C 
ENDROOT
BRANCH   1   2
ATOM      2  C   UNL     1      -7.789   1.747 126.080  0.00  0.00    +0.000 C 
BRANCH   2   3
ATOM      3  N   UNL     1      -8.682   2.438 125.181  0.00  0.00    +0.000 N 
ATOM      4  H   UNL     1      -9.541   2.816 125.591  0.00  0.00    +0.000 HD
BRANCH   3   5
ATOM      5  C   UNL     1      -8.514   2.676 123.825  0.00  0.00    +0.000 C 
ATOM      6  C   UNL     1      -9.254   2.028 122.895  0.00  0.00    +0.000 C 
BRANCH   5   8
ATOM      7  C   UNL     1      -6.376   4.083 124.032  0.00  0.00    +0.000 C 
ATOM      8  N   UNL     1      -7.568   3.598 123.368  0.00  0.00    +0.000 N 
ATOM      9  H   UNL     1      -7.725   4.004 122.450  0.00  0.00    +0.000 HD
ENDBRANCH   5   8
BRANCH   6  10
ATOM     10  N   UNL     1     -10.268   1.046 123.223  0.00  0.00    +0.000 N 
ATOM     11  O   UNL     1     -11.057   1.260 124.162  0.00  0.00    +0.000 OA
ATOM     12  O   UNL     1     -10.279   0.028 122.525  0.00  0.00    +0.000 OA
ENDBRANCH   6  10
ENDBRANCH   3   5
ENDBRANCH   2   3
ENDBRANCH   1   2
BRANCH   1  13
ATOM     13  S   UNL     1      -7.709   2.773 128.507  0.00  0.00    +0.000 S 
BRANCH  13  14
ATOM     14  C   UNL     1      -9.008   2.908 129.763  0.00  0.00    +0.000 C 
BRANCH  14  15
ATOM     15  C   UNL     1      -9.251   4.364 130.019  0.00  0.00    +0.000 A 
ATOM     16  C   UNL     1      -8.377   5.283 130.567  0.00  0.00    +0.000 A 
ATOM     17  S   UNL     1      -9.107   6.837 130.636  0.00  0.00    +0.000 S 
ATOM     18  C   UNL     1     -10.531   6.188 129.922  0.00  0.00    +0.000 A 
ATOM     19  N   UNL     1     -10.452   4.906 129.623  0.00  0.00    +0.000 NA
BRANCH  18  20
ATOM     20  C   UNL     1     -11.769   7.046 129.722  0.00  0.00    +0.000 C 
BRANCH  20  21
ATOM     21  N   UNL     1     -11.471   8.348 129.077  0.00  0.00    +0.000 NA
ATOM     22  C   UNL     1     -10.928   8.163 127.727  0.00  0.00    +0.000 C 
ATOM     23  C   UNL     1     -12.660   9.192 129.008  0.00  0.00    +0.000 C 
ENDBRANCH  20  21
ENDBRANCH  18  20
ENDBRANCH  14  15
ENDBRANCH  13  14
ENDBRANCH   1  13
TORSDOF 10
ENDMDL
MODEL 7
REMARK VINA RESULT:      -5.0      3.143      3.783
REMARK  Name = Nizatidine
REMARK  13 active torsions:
REMARK  status: ('A' for Active; 'I' for Inactive)
REMARK    1  A    between atoms: C_1  and  N_2
REMARK    2  A    between atoms: N_2  and  C_3
REMARK    3  A    between atoms: C_3  and  N_4
REMARK    4  A    between atoms: N_4  and  C_5
REMARK    5  A    between atoms: C_5  and  C_6
REMARK    6  A    between atoms: C_6  and  S_7
REMARK    7  A    between atoms: S_7  and  C_8
REMARK    8  A    between atoms: C_8  and  C_9
REMARK    9  A    between atoms: C_12  and  C_13
REMARK   10  A    between atoms: C_13  and  N_14
REMARK   11  A    between atoms: N_14  and  C_15
REMARK   12  A    between atoms: N_14  and  C_16
REMARK   13  A    between atoms: C_18  and  N_19
REMARK                            x       y       z     vdW  Elec       q    Type
REMARK                         _______ _______ _______ _____ _____    ______ ____
ROOT
ATOM      1  C   UNL     1     -11.696   5.723 130.547  0.00  0.00    +0.000 C 
ENDROOT
BRANCH   1   2
ATOM      2  C   UNL     1     -12.060   7.194 130.658  0.00  0.00    +0.000 C 
BRANCH   2   3
ATOM      3  N   UNL     1     -12.854   7.733 129.581  0.00  0.00    +0.000 N 
ATOM      4  H   UNL     1     -13.788   7.331 129.456  0.00  0.00    +0.000 HD
BRANCH   3   5
ATOM      5  C   UNL     1     -12.521   8.751 128.699  0.00  0.00    +0.000 C 
ATOM      6  C   UNL     1     -12.003   8.488 127.477  0.00  0.00    +0.000 C 
BRANCH   5   8
ATOM      7  C   UNL     1     -13.406  10.649 130.186  0.00  0.00    +0.000 C 
ATOM      8  N   UNL     1     -12.710  10.092 129.045  0.00  0.00    +0.000 N 
ATOM      9  H   UNL     1     -12.320  10.790 128.418  0.00  0.00    +0.000 HD
ENDBRANCH   5   8
BRANCH   6  10
ATOM     10  N   UNL     1     -11.753   7.147 126.987  0.00  0.00    +0.000 N 
ATOM     11  O   UNL     1     -10.640   6.861 126.506  0.00  0.00    +0.000 OA
ATOM     12  O   UNL     1     -12.693   6.354 127.082  0.00  0.00    +0.000 OA
ENDBRANCH   6  10
ENDBRANCH   3   5
ENDBRANCH   2   3
ENDBRANCH   1   2
BRANCH   1  13
ATOM     13  S   UNL     1      -9.980   5.757 129.912  0.00  0.00    +0.000 S 
BRANCH  13  14
ATOM     14  C   UNL     1      -9.104   6.595 131.259  0.00  0.00    +0.000 C 
BRANCH  14  15
ATOM     15  C   UNL     1      -8.733   5.563 132.280  0.00  0.00    +0.000 A 
ATOM     16  C   UNL     1      -8.444   5.762 133.616  0.00  0.00    +0.000 A 
ATOM     17  S   UNL     1      -8.099   4.264 134.383  0.00  0.00    +0.000 S 
ATOM     18  C   UNL     1      -8.369   3.450 132.892  0.00  0.00    +0.000 A 
ATOM     19  N   UNL     1      -8.724   4.241 131.898  0.00  0.00    +0.000 NA
BRANCH  18  20
ATOM     20  C   UNL     1      -8.151   1.951 132.767  0.00  0.00    +0.000 C 
BRANCH  20  21
ATOM     21  N   UNL     1      -6.778   1.534 133.144  0.00  0.00    +0.000 NA
ATOM     22  C   UNL     1      -6.657   0.073 133.185  0.00  0.00    +0.000 C 
ATOM     23  C   UNL     1      -5.785   2.075 132.222  0.00  0.00    +0.000 C 
ENDBRANCH  20  21
ENDBRANCH  18  20
ENDBRANCH  14  15
ENDBRANCH  13  14
ENDBRANCH   1  13
TORSDOF 10
ENDMDL
MODEL 8
REMARK VINA RESULT:      -4.9      4.926      6.254
REMARK  Name = Nizatidine
REMARK  13 active torsions:
REMARK  status: ('A' for Active; 'I' for Inactive)
REMARK    1  A    between atoms: C_1  and  N_2
REMARK    2  A    between atoms: N_2  and  C_3
REMARK    3  A    between atoms: C_3  and  N_4
REMARK    4  A    between atoms: N_4  and  C_5
REMARK    5  A    between atoms: C_5  and  C_6
REMARK    6  A    between atoms: C_6  and  S_7
REMARK    7  A    between atoms: S_7  and  C_8
REMARK    8  A    between atoms: C_8  and  C_9
REMARK    9  A    between atoms: C_12  and  C_13
REMARK   10  A    between atoms: C_13  and  N_14
REMARK   11  A    between atoms: N_14  and  C_15
REMARK   12  A    between atoms: N_14  and  C_16
REMARK   13  A    between atoms: C_18  and  N_19
REMARK                            x       y       z     vdW  Elec       q    Type
REMARK                         _______ _______ _______ _____ _____    ______ ____
ROOT
ATOM      1  C   UNL     1      -9.585   2.967 131.504  0.00  0.00    +0.000 C 
ENDROOT
BRANCH   1   2
ATOM      2  C   UNL     1     -10.550   3.575 130.501  0.00  0.00    +0.000 C 
BRANCH   2   3
ATOM      3  N   UNL     1     -11.194   4.802 130.903  0.00  0.00    +0.000 N 
ATOM      4  H   UNL     1     -11.556   4.836 131.860  0.00  0.00    +0.000 HD
BRANCH   3   5
ATOM      5  C   UNL     1     -11.368   5.960 130.160  0.00  0.00    +0.000 C 
ATOM      6  C   UNL     1     -10.460   6.963 130.187  0.00  0.00    +0.000 C 
BRANCH   5   8
ATOM      7  C   UNL     1     -12.953   7.327 128.671  0.00  0.00    +0.000 C 
ATOM      8  N   UNL     1     -12.497   6.134 129.353  0.00  0.00    +0.000 N 
ATOM      9  H   UNL     1     -13.099   5.326 129.222  0.00  0.00    +0.000 HD
ENDBRANCH   5   8
BRANCH   6  10
ATOM     10  N   UNL     1      -9.246   6.921 130.978  0.00  0.00    +0.000 N 
ATOM     11  O   UNL     1      -9.294   6.552 132.166  0.00  0.00    +0.000 OA
ATOM     12  O   UNL     1      -8.213   7.268 130.399  0.00  0.00    +0.000 OA
ENDBRANCH   6  10
ENDBRANCH   3   5
ENDBRANCH   2   3
ENDBRANCH   1   2
BRANCH   1  13
ATOM     13  S   UNL     1      -7.940   3.388 130.819  0.00  0.00    +0.000 S 
BRANCH  13  14
ATOM     14  C   UNL     1      -8.351   3.810 129.105  0.00  0.00    +0.000 C 
BRANCH  14  15
ATOM     15  C   UNL     1      -7.978   2.644 128.242  0.00  0.00    +0.000 A 
ATOM     16  C   UNL     1      -6.733   2.061 128.100  0.00  0.00    +0.000 A 
ATOM     17  S   UNL     1      -6.813   0.734 127.011  0.00  0.00    +0.000 S 
ATOM     18  C   UNL     1      -8.498   1.015 126.811  0.00  0.00    +0.000 A 
ATOM     19  N   UNL     1      -8.973   2.011 127.533  0.00  0.00    +0.000 NA
BRANCH  18  20
ATOM     20  C   UNL     1      -9.318   0.192 125.830  0.00  0.00    +0.000 C 
BRANCH  20  21
ATOM     21  N   UNL     1      -8.490  -0.730 125.015  0.00  0.00    +0.000 NA
ATOM     22  C   UNL     1      -8.899  -2.125 125.208  0.00  0.00    +0.000 C 
ATOM     23  C   UNL     1      -8.561  -0.396 123.597  0.00  0.00    +0.000 C 
ENDBRANCH  20  21
ENDBRANCH  18  20
ENDBRANCH  14  15
ENDBRANCH  13  14
ENDBRANCH   1  13
TORSDOF 10
ENDMDL
MODEL 9
REMARK VINA RESULT:      -4.9      1.616      2.059
REMARK  Name = Nizatidine
REMARK  13 active torsions:
REMARK  status: ('A' for Active; 'I' for Inactive)
REMARK    1  A    between atoms: C_1  and  N_2
REMARK    2  A    between atoms: N_2  and  C_3
REMARK    3  A    between atoms: C_3  and  N_4
REMARK    4  A    between atoms: N_4  and  C_5
REMARK    5  A    between atoms: C_5  and  C_6
REMARK    6  A    between atoms: C_6  and  S_7
REMARK    7  A    between atoms: S_7  and  C_8
REMARK    8  A    between atoms: C_8  and  C_9
REMARK    9  A    between atoms: C_12  and  C_13
REMARK   10  A    between atoms: C_13  and  N_14
REMARK   11  A    between atoms: N_14  and  C_15
REMARK   12  A    between atoms: N_14  and  C_16
REMARK   13  A    between atoms: C_18  and  N_19
REMARK                            x       y       z     vdW  Elec       q    Type
REMARK                         _______ _______ _______ _____ _____    ______ ____
ROOT
ATOM      1  C   UNL     1     -10.504   5.164 131.063  0.00  0.00    +0.000 C 
ENDROOT
BRANCH   1   2
ATOM      2  C   UNL     1     -10.914   6.620 130.918  0.00  0.00    +0.000 C 
BRANCH   2   3
ATOM      3  N   UNL     1     -11.876   6.907 129.882  0.00  0.00    +0.000 N 
ATOM      4  H   UNL     1     -12.487   6.136 129.598  0.00  0.00    +0.000 HD
BRANCH   3   5
ATOM      5  C   UNL     1     -12.097   8.112 129.230  0.00  0.00    +0.000 C 
ATOM      6  C   UNL     1     -11.769   8.284 127.929  0.00  0.00    +0.000 C 
BRANCH   5   8
ATOM      7  C   UNL     1     -13.368  10.341 129.350  0.00  0.00    +0.000 C 
ATOM      8  N   UNL     1     -12.670   9.197 129.900  0.00  0.00    +0.000 N 
ATOM      9  H   UNL     1     -12.588   9.210 130.913  0.00  0.00    +0.000 HD
ENDBRANCH   5   8
BRANCH   6  10
ATOM     10  N   UNL     1     -11.167   7.248 127.113  0.00  0.00    +0.000 N 
ATOM     11  O   UNL     1     -10.028   6.827 127.386  0.00  0.00    +0.000 OA
ATOM     12  O   UNL     1     -11.850   6.842 126.168  0.00  0.00    +0.000 OA
ENDBRANCH   6  10
ENDBRANCH   3   5
ENDBRANCH   2   3
ENDBRANCH   1   2
BRANCH   1  13
ATOM     13  S   UNL     1      -8.866   5.102 130.249  0.00  0.00    +0.000 S 
BRANCH  13  14
ATOM     14  C   UNL     1      -7.880   6.185 131.317  0.00  0.00    +0.000 C 
BRANCH  14  15
ATOM     15  C   UNL     1      -6.462   6.136 130.838  0.00  0.00    +0.000 A 
ATOM     16  C   UNL     1      -5.472   7.081 131.031  0.00  0.00    +0.000 A 
ATOM     17  S   UNL     1      -4.001   6.563 130.310  0.00  0.00    +0.000 S 
ATOM     18  C   UNL     1      -4.773   5.113 129.801  0.00  0.00    +0.000 A 
ATOM     19  N   UNL     1      -6.035   5.010 130.172  0.00  0.00    +0.000 NA
BRANCH  18  20
ATOM     20  C   UNL     1      -4.039   4.091 128.948  0.00  0.00    +0.000 C 
BRANCH  20  21
ATOM     21  N   UNL     1      -3.546   4.655 127.668  0.00  0.00    +0.000 NA
ATOM     22  C   UNL     1      -2.367   3.928 127.184  0.00  0.00    +0.000 C 
ATOM     23  C   UNL     1      -4.582   4.631 126.642  0.00  0.00    +0.000 C 
ENDBRANCH  20  21
ENDBRANCH  18  20
ENDBRANCH  14  15
ENDBRANCH  13  14
ENDBRANCH   1  13
TORSDOF 10
ENDMDL
