MODEL 1
REMARK VINA RESULT:      -8.4      0.000      0.000
REMARK  Name = Nomegestrol
REMARK  5 active torsions:
REMARK  status: ('A' for Active; 'I' for Inactive)
REMARK    1  A    between atoms: C_1  and  C_2
REMARK    2  A    between atoms: C_2  and  C_4
REMARK    3  A    between atoms: C_4  and  O_5
REMARK    4  A    between atoms: C_11  and  C_12
REMARK    5  A    between atoms: C_23  and  C_24
REMARK                            x       y       z     vdW  Elec       q    Type
REMARK                         _______ _______ _______ _____ _____    ______ ____
ROOT
ATOM      1  C   UNL     1      -8.899   1.343 124.302  0.00  0.00    +0.000 C 
ATOM      2  C   UNL     1      -9.300   0.214 125.098  0.00  0.00    +0.000 C 
ATOM      3  C   UNL     1      -8.788   1.363 125.622  0.00  0.00    +0.000 C 
ATOM      4  C   UNL     1      -8.675   1.112 126.988  0.00  0.00    +0.000 C 
ATOM      5  C   UNL     1      -7.673   0.073 127.430  0.00  0.00    +0.000 C 
ATOM      6  C   UNL     1      -8.128  -1.237 127.016  0.00  0.00    +0.000 C 
ATOM      7  C   UNL     1      -8.095  -2.377 127.641  0.00  0.00    +0.000 C 
ATOM      8  C   UNL     1      -8.649  -3.519 126.859  0.00  0.00    +0.000 C 
ATOM      9  C   UNL     1      -7.470  -2.437 128.898  0.00  0.00    +0.000 C 
ATOM     10  C   UNL     1      -7.465  -3.610 129.516  0.00  0.00    +0.000 C 
ATOM     11  C   UNL     1      -6.571  -3.591 130.645  0.00  0.00    +0.000 C 
ATOM     12  O   UNL     1      -5.344  -3.550 130.590  0.00  0.00    +0.000 OA
ATOM     13  C   UNL     1      -7.235  -3.116 131.828  0.00  0.00    +0.000 C 
ATOM     14  C   UNL     1      -6.927  -1.492 131.212  0.00  0.00    +0.000 C 
ATOM     15  C   UNL     1      -6.875  -1.189 129.538  0.00  0.00    +0.000 C 
ATOM     16  C   UNL     1      -7.591   0.117 128.954  0.00  0.00    +0.000 C 
ATOM     17  C   UNL     1      -7.054   1.537 129.107  0.00  0.00    +0.000 C 
ATOM     18  C   UNL     1      -8.054   2.569 128.086  0.00  0.00    +0.000 C 
ATOM     19  C   UNL     1      -8.207   2.292 126.125  0.00  0.00    +0.000 C 
ATOM     20  C   UNL     1      -6.641   2.872 126.234  0.00  0.00    +0.000 C 
ENDROOT
BRANCH   1  22
ATOM     21  C   UNL     1      -8.433  -1.706 122.929  0.00  0.00    +0.000 C 
ATOM     22  C   UNL     1      -9.295  -0.342 123.257  0.00  0.00    +0.000 C 
ATOM     23  O   UNL     1     -10.269  -0.470 122.439  0.00  0.00    +0.000 OA
ENDBRANCH   1  22
BRANCH   1  24
ATOM     24  O   UNL     1     -10.065   1.951 123.564  0.00  0.00    +0.000 OA
ATOM     25  H   UNL     1     -10.757   2.234 124.204  0.00  0.00    +0.000 HD
ENDBRANCH   1  24
TORSDOF 2
ENDMDL
MODEL 2
REMARK VINA RESULT:      -8.0      2.477      6.304
REMARK  Name = Nomegestrol
REMARK  5 active torsions:
REMARK  status: ('A' for Active; 'I' for Inactive)
REMARK    1  A    between atoms: C_1  and  C_2
REMARK    2  A    between atoms: C_2  and  C_4
REMARK    3  A    between atoms: C_4  and  O_5
REMARK    4  A    between atoms: C_11  and  C_12
REMARK    5  A    between atoms: C_23  and  C_24
REMARK                            x       y       z     vdW  Elec       q    Type
REMARK                         _______ _______ _______ _____ _____    ______ ____
ROOT
ATOM      1  C   UNL     1      -7.190   0.720 131.741  0.00  0.00    +0.000 C 
ATOM      2  C   UNL     1      -8.040   0.801 130.583  0.00  0.00    +0.000 C 
ATOM      3  C   UNL     1      -7.582  -0.372 131.104  0.00  0.00    +0.000 C 
ATOM      4  C   UNL     1      -8.034  -1.353 130.223  0.00  0.00    +0.000 C 
ATOM      5  C   UNL     1      -7.457  -1.363 128.828  0.00  0.00    +0.000 C 
ATOM      6  C   UNL     1      -7.930  -0.202 128.105  0.00  0.00    +0.000 C 
ATOM      7  C   UNL     1      -8.323  -0.079 126.871  0.00  0.00    +0.000 C 
ATOM      8  C   UNL     1      -8.720   1.307 126.492  0.00  0.00    +0.000 C 
ATOM      9  C   UNL     1      -8.236  -1.196 126.023  0.00  0.00    +0.000 C 
ATOM     10  C   UNL     1      -8.656  -1.042 124.775  0.00  0.00    +0.000 C 
ATOM     11  C   UNL     1      -8.263  -2.163 123.961  0.00  0.00    +0.000 C 
ATOM     12  O   UNL     1      -7.117  -2.425 123.603  0.00  0.00    +0.000 OA
ATOM     13  C   UNL     1      -9.236  -3.220 124.022  0.00  0.00    +0.000 C 
ATOM     14  C   UNL     1      -8.458  -3.696 125.531  0.00  0.00    +0.000 C 
ATOM     15  C   UNL     1      -7.730  -2.536 126.543  0.00  0.00    +0.000 C 
ATOM     16  C   UNL     1      -7.949  -2.626 128.124  0.00  0.00    +0.000 C 
ATOM     17  C   UNL     1      -7.285  -3.658 129.030  0.00  0.00    +0.000 C 
ATOM     18  C   UNL     1      -7.644  -3.182 130.690  0.00  0.00    +0.000 C 
ATOM     19  C   UNL     1      -7.090  -1.423 131.430  0.00  0.00    +0.000 C 
ATOM     20  C   UNL     1      -5.608  -2.194 131.321  0.00  0.00    +0.000 C 
ENDROOT
BRANCH   1  22
ATOM     21  C   UNL     1      -6.961   3.312 129.589  0.00  0.00    +0.000 C 
ATOM     22  C   UNL     1      -7.433   2.581 130.986  0.00  0.00    +0.000 C 
ATOM     23  O   UNL     1      -7.811   3.592 131.672  0.00  0.00    +0.000 OA
ENDBRANCH   1  22
BRANCH   1  24
ATOM     24  O   UNL     1      -7.875   1.244 132.978  0.00  0.00    +0.000 OA
ATOM     25  H   UNL     1      -8.051   2.207 132.881  0.00  0.00    +0.000 HD
ENDBRANCH   1  24
TORSDOF 2
ENDMDL
MODEL 3
REMARK VINA RESULT:      -7.9      2.955      5.487
REMARK  Name = Nomegestrol
REMARK  5 active torsions:
REMARK  status: ('A' for Active; 'I' for Inactive)
REMARK    1  A    between atoms: C_1  and  C_2
REMARK    2  A    between atoms: C_2  and  C_4
REMARK    3  A    between atoms: C_4  and  O_5
REMARK    4  A    between atoms: C_11  and  C_12
REMARK    5  A    between atoms: C_23  and  C_24
REMARK                            x       y       z     vdW  Elec       q    Type
REMARK                         _______ _______ _______ _____ _____    ______ ____
ROOT
ATOM      1  C   UNL     1      -9.062  -1.082 124.284  0.00  0.00    +0.000 C 
ATOM      2  C   UNL     1      -8.080  -0.111 123.880  0.00  0.00    +0.000 C 
ATOM      3  C   UNL     1      -7.878  -1.021 124.874  0.00  0.00    +0.000 C 
ATOM      4  C   UNL     1      -6.628  -0.701 125.401  0.00  0.00    +0.000 C 
ATOM      5  C   UNL     1      -6.489   0.616 126.125  0.00  0.00    +0.000 C 
ATOM      6  C   UNL     1      -6.596   1.701 125.174  0.00  0.00    +0.000 C 
ATOM      7  C   UNL     1      -5.929   2.814 125.084  0.00  0.00    +0.000 C 
ATOM      8  C   UNL     1      -6.358   3.694 123.961  0.00  0.00    +0.000 C 
ATOM      9  C   UNL     1      -4.981   3.111 126.078  0.00  0.00    +0.000 C 
ATOM     10  C   UNL     1      -4.308   4.246 125.952  0.00  0.00    +0.000 C 
ATOM     11  C   UNL     1      -3.583   4.549 127.159  0.00  0.00    +0.000 C 
ATOM     12  O   UNL     1      -4.080   4.896 128.228  0.00  0.00    +0.000 OA
ATOM     13  C   UNL     1      -2.285   3.929 127.158  0.00  0.00    +0.000 C 
ATOM     14  C   UNL     1      -3.109   2.466 127.697  0.00  0.00    +0.000 C 
ATOM     15  C   UNL     1      -4.709   2.137 127.218  0.00  0.00    +0.000 C 
ATOM     16  C   UNL     1      -5.106   0.653 126.773  0.00  0.00    +0.000 C 
ATOM     17  C   UNL     1      -5.280  -0.519 127.734  0.00  0.00    +0.000 C 
ATOM     18  C   UNL     1      -5.957  -1.849 126.796  0.00  0.00    +0.000 C 
ATOM     19  C   UNL     1      -7.700  -1.701 125.853  0.00  0.00    +0.000 C 
ATOM     20  C   UNL     1      -8.213  -1.753 127.446  0.00  0.00    +0.000 C 
ENDROOT
BRANCH   1  22
ATOM     21  C   UNL     1      -9.362   1.940 122.809  0.00  0.00    +0.000 C 
ATOM     22  C   UNL     1      -9.744   0.355 123.036  0.00  0.00    +0.000 C 
ATOM     23  O   UNL     1     -10.832   0.271 122.368  0.00  0.00    +0.000 OA
ENDBRANCH   1  22
BRANCH   1  24
ATOM     24  O   UNL     1      -9.380  -2.053 123.174  0.00  0.00    +0.000 OA
ATOM     25  H   UNL     1      -9.986  -2.753 123.504  0.00  0.00    +0.000 HD
ENDBRANCH   1  24
TORSDOF 2
ENDMDL
MODEL 4
REMARK VINA RESULT:      -7.7      3.298      5.749
REMARK  Name = Nomegestrol
REMARK  5 active torsions:
REMARK  status: ('A' for Active; 'I' for Inactive)
REMARK    1  A    between atoms: C_1  and  C_2
REMARK    2  A    between atoms: C_2  and  C_4
REMARK    3  A    between atoms: C_4  and  O_5
REMARK    4  A    between atoms: C_11  and  C_12
REMARK    5  A    between atoms: C_23  and  C_24
REMARK                            x       y       z     vdW  Elec       q    Type
REMARK                         _______ _______ _______ _____ _____    ______ ____
ROOT
ATOM      1  C   UNL     1      -4.795   3.847 126.625  0.00  0.00    +0.000 C 
ATOM      2  C   UNL     1      -4.645   2.454 126.296  0.00  0.00    +0.000 C 
ATOM      3  C   UNL     1      -5.496   3.296 125.645  0.00  0.00    +0.000 C 
ATOM      4  C   UNL     1      -6.182   2.483 124.745  0.00  0.00    +0.000 C 
ATOM      5  C   UNL     1      -7.116   1.442 125.312  0.00  0.00    +0.000 C 
ATOM      6  C   UNL     1      -6.343   0.412 125.973  0.00  0.00    +0.000 C 
ATOM      7  C   UNL     1      -6.495  -0.879 125.985  0.00  0.00    +0.000 C 
ATOM      8  C   UNL     1      -5.490  -1.604 126.814  0.00  0.00    +0.000 C 
ATOM      9  C   UNL     1      -7.608  -1.432 125.329  0.00  0.00    +0.000 C 
ATOM     10  C   UNL     1      -7.728  -2.752 125.348  0.00  0.00    +0.000 C 
ATOM     11  C   UNL     1      -9.030  -3.155 124.884  0.00  0.00    +0.000 C 
ATOM     12  O   UNL     1     -10.090  -2.993 125.486  0.00  0.00    +0.000 OA
ATOM     13  C   UNL     1      -9.053  -3.302 123.454  0.00  0.00    +0.000 C 
ATOM     14  C   UNL     1      -9.272  -1.554 123.391  0.00  0.00    +0.000 C 
ATOM     15  C   UNL     1      -8.599  -0.545 124.585  0.00  0.00    +0.000 C 
ATOM     16  C   UNL     1      -7.889   0.821 124.150  0.00  0.00    +0.000 C 
ATOM     17  C   UNL     1      -8.631   2.069 123.684  0.00  0.00    +0.000 C 
ATOM     18  C   UNL     1      -7.434   3.358 123.570  0.00  0.00    +0.000 C 
ATOM     19  C   UNL     1      -6.367   3.955 125.136  0.00  0.00    +0.000 C 
ATOM     20  C   UNL     1      -7.876   4.556 125.541  0.00  0.00    +0.000 C 
ENDROOT
BRANCH   1  22
ATOM     21  C   UNL     1      -4.128   1.947 129.336  0.00  0.00    +0.000 C 
ATOM     22  C   UNL     1      -3.733   2.763 127.961  0.00  0.00    +0.000 C 
ATOM     23  O   UNL     1      -2.457   2.777 128.048  0.00  0.00    +0.000 OA
ENDBRANCH   1  22
BRANCH   1  24
ATOM     24  O   UNL     1      -3.519   4.618 126.393  0.00  0.00    +0.000 OA
ATOM     25  H   UNL     1      -3.728   5.559 126.193  0.00  0.00    +0.000 HD
ENDBRANCH   1  24
TORSDOF 2
ENDMDL
MODEL 5
REMARK VINA RESULT:      -7.7      1.997      7.003
REMARK  Name = Nomegestrol
REMARK  5 active torsions:
REMARK  status: ('A' for Active; 'I' for Inactive)
REMARK    1  A    between atoms: C_1  and  C_2
REMARK    2  A    between atoms: C_2  and  C_4
REMARK    3  A    between atoms: C_4  and  O_5
REMARK    4  A    between atoms: C_11  and  C_12
REMARK    5  A    between atoms: C_23  and  C_24
REMARK                            x       y       z     vdW  Elec       q    Type
REMARK                         _______ _______ _______ _____ _____    ______ ____
ROOT
ATOM      1  C   UNL     1      -7.176  -1.260 131.924  0.00  0.00    +0.000 C 
ATOM      2  C   UNL     1      -7.929  -0.387 131.064  0.00  0.00    +0.000 C 
ATOM      3  C   UNL     1      -7.707  -1.704 130.795  0.00  0.00    +0.000 C 
ATOM      4  C   UNL     1      -8.263  -1.908 129.533  0.00  0.00    +0.000 C 
ATOM      5  C   UNL     1      -7.612  -1.217 128.360  0.00  0.00    +0.000 C 
ATOM      6  C   UNL     1      -7.838   0.209 128.457  0.00  0.00    +0.000 C 
ATOM      7  C   UNL     1      -8.128   1.082 127.538  0.00  0.00    +0.000 C 
ATOM      8  C   UNL     1      -8.262   2.478 128.041  0.00  0.00    +0.000 C 
ATOM      9  C   UNL     1      -8.179   0.656 126.199  0.00  0.00    +0.000 C 
ATOM     10  C   UNL     1      -8.489   1.566 125.287  0.00  0.00    +0.000 C 
ATOM     11  C   UNL     1      -8.242   1.066 123.959  0.00  0.00    +0.000 C 
ATOM     12  O   UNL     1      -7.136   0.863 123.462  0.00  0.00    +0.000 OA
ATOM     13  C   UNL     1      -9.380   0.352 123.449  0.00  0.00    +0.000 C 
ATOM     14  C   UNL     1      -8.787  -1.028 124.373  0.00  0.00    +0.000 C 
ATOM     15  C   UNL     1      -7.938  -0.802 125.831  0.00  0.00    +0.000 C 
ATOM     16  C   UNL     1      -8.265  -1.742 127.083  0.00  0.00    +0.000 C 
ATOM     17  C   UNL     1      -7.840  -3.202 127.201  0.00  0.00    +0.000 C 
ATOM     18  C   UNL     1      -8.214  -3.709 128.848  0.00  0.00    +0.000 C 
ATOM     19  C   UNL     1      -7.419  -2.818 130.436  0.00  0.00    +0.000 C 
ATOM     20  C   UNL     1      -6.084  -3.629 129.835  0.00  0.00    +0.000 C 
ENDROOT
BRANCH   1  22
ATOM     21  C   UNL     1      -6.215   1.972 131.757  0.00  0.00    +0.000 C 
ATOM     22  C   UNL     1      -7.056   0.705 132.386  0.00  0.00    +0.000 C 
ATOM     23  O   UNL     1      -7.474   1.213 133.483  0.00  0.00    +0.000 OA
ENDBRANCH   1  22
BRANCH   1  24
ATOM     24  O   UNL     1      -7.838  -1.430 133.269  0.00  0.00    +0.000 OA
ATOM     25  H   UNL     1      -8.440  -2.208 133.250  0.00  0.00    +0.000 HD
ENDBRANCH   1  24
TORSDOF 2
ENDMDL
MODEL 6
REMARK VINA RESULT:      -7.6      8.064     10.408
REMARK  Name = Nomegestrol
REMARK  5 active torsions:
REMARK  status: ('A' for Active; 'I' for Inactive)
REMARK    1  A    between atoms: C_1  and  C_2
REMARK    2  A    between atoms: C_2  and  C_4
REMARK    3  A    between atoms: C_4  and  O_5
REMARK    4  A    between atoms: C_11  and  C_12
REMARK    5  A    between atoms: C_23  and  C_24
REMARK                            x       y       z     vdW  Elec       q    Type
REMARK                         _______ _______ _______ _____ _____    ______ ____
ROOT
ATOM      1  C   UNL     1      -8.994   4.982 133.496  0.00  0.00    +0.000 C 
ATOM      2  C   UNL     1      -7.834   4.957 132.646  0.00  0.00    +0.000 C 
ATOM      3  C   UNL     1      -7.779   4.836 134.002  0.00  0.00    +0.000 C 
ATOM      4  C   UNL     1      -6.419   4.797 134.302  0.00  0.00    +0.000 C 
ATOM      5  C   UNL     1      -5.609   6.045 134.049  0.00  0.00    +0.000 C 
ATOM      6  C   UNL     1      -5.501   6.266 132.623  0.00  0.00    +0.000 C 
ATOM      7  C   UNL     1      -4.491   6.662 131.905  0.00  0.00    +0.000 C 
ATOM      8  C   UNL     1      -4.789   6.790 130.450  0.00  0.00    +0.000 C 
ATOM      9  C   UNL     1      -3.300   7.018 132.559  0.00  0.00    +0.000 C 
ATOM     10  C   UNL     1      -2.285   7.405 131.799  0.00  0.00    +0.000 C 
ATOM     11  C   UNL     1      -1.239   7.989 132.599  0.00  0.00    +0.000 C 
ATOM     12  O   UNL     1      -1.295   9.074 133.175  0.00  0.00    +0.000 OA
ATOM     13  C   UNL     1      -0.328   6.987 133.082  0.00  0.00    +0.000 C 
ATOM     14  C   UNL     1      -1.510   6.689 134.356  0.00  0.00    +0.000 C 
ATOM     15  C   UNL     1      -3.174   6.908 134.074  0.00  0.00    +0.000 C 
ATOM     16  C   UNL     1      -4.214   5.827 134.630  0.00  0.00    +0.000 C 
ATOM     17  C   UNL     1      -4.604   5.680 136.097  0.00  0.00    +0.000 C 
ATOM     18  C   UNL     1      -5.948   4.540 136.153  0.00  0.00    +0.000 C 
ATOM     19  C   UNL     1      -7.660   4.872 135.201  0.00  0.00    +0.000 C 
ATOM     20  C   UNL     1      -7.765   6.002 136.432  0.00  0.00    +0.000 C 
ENDROOT
BRANCH   1  22
ATOM     21  C   UNL     1      -9.075   6.913 130.728  0.00  0.00    +0.000 C 
ATOM     22  C   UNL     1      -9.329   5.526 131.577  0.00  0.00    +0.000 C 
ATOM     23  O   UNL     1     -10.074   4.878 130.765  0.00  0.00    +0.000 OA
ENDBRANCH   1  22
BRANCH   1  24
ATOM     24  O   UNL     1      -9.918   3.822 133.219  0.00  0.00    +0.000 OA
ATOM     25  H   UNL     1     -10.643   3.804 133.884  0.00  0.00    +0.000 HD
ENDBRANCH   1  24
TORSDOF 2
ENDMDL
MODEL 7
REMARK VINA RESULT:      -7.6      6.781      9.095
REMARK  Name = Nomegestrol
REMARK  5 active torsions:
REMARK  status: ('A' for Active; 'I' for Inactive)
REMARK    1  A    between atoms: C_1  and  C_2
REMARK    2  A    between atoms: C_2  and  C_4
REMARK    3  A    between atoms: C_4  and  O_5
REMARK    4  A    between atoms: C_11  and  C_12
REMARK    5  A    between atoms: C_23  and  C_24
REMARK                            x       y       z     vdW  Elec       q    Type
REMARK                         _______ _______ _______ _____ _____    ______ ____
ROOT
ATOM      1  C   UNL     1      -9.575   4.569 130.848  0.00  0.00    +0.000 C 
ATOM      2  C   UNL     1      -8.271   4.993 130.412  0.00  0.00    +0.000 C 
ATOM      3  C   UNL     1      -8.481   4.181 131.486  0.00  0.00    +0.000 C 
ATOM      4  C   UNL     1      -7.217   3.994 132.043  0.00  0.00    +0.000 C 
ATOM      5  C   UNL     1      -6.539   5.192 132.662  0.00  0.00    +0.000 C 
ATOM      6  C   UNL     1      -6.169   6.125 131.619  0.00  0.00    +0.000 C 
ATOM      7  C   UNL     1      -5.092   6.839 131.469  0.00  0.00    +0.000 C 
ATOM      8  C   UNL     1      -5.098   7.707 130.257  0.00  0.00    +0.000 C 
ATOM      9  C   UNL     1      -4.115   6.802 132.478  0.00  0.00    +0.000 C 
ATOM     10  C   UNL     1      -3.024   7.531 132.291  0.00  0.00    +0.000 C 
ATOM     11  C   UNL     1      -2.248   7.613 133.501  0.00  0.00    +0.000 C 
ATOM     12  O   UNL     1      -2.559   8.237 134.513  0.00  0.00    +0.000 OA
ATOM     13  C   UNL     1      -1.335   6.507 133.613  0.00  0.00    +0.000 C 
ATOM     14  C   UNL     1      -2.705   5.586 134.232  0.00  0.00    +0.000 C 
ATOM     15  C   UNL     1      -4.291   5.918 133.707  0.00  0.00    +0.000 C 
ATOM     16  C   UNL     1      -5.276   4.704 133.369  0.00  0.00    +0.000 C 
ATOM     17  C   UNL     1      -5.937   3.812 134.414  0.00  0.00    +0.000 C 
ATOM     18  C   UNL     1      -7.107   2.809 133.559  0.00  0.00    +0.000 C 
ATOM     19  C   UNL     1      -8.615   3.587 132.526  0.00  0.00    +0.000 C 
ATOM     20  C   UNL     1      -9.114   3.907 134.092  0.00  0.00    +0.000 C 
ENDROOT
BRANCH   1  22
ATOM     21  C   UNL     1      -9.974   7.631 129.482  0.00  0.00    +0.000 C 
ATOM     22  C   UNL     1      -9.574   6.034 129.454  0.00  0.00    +0.000 C 
ATOM     23  O   UNL     1      -9.485   5.829 128.195  0.00  0.00    +0.000 OA
ENDBRANCH   1  22
BRANCH   1  24
ATOM     24  O   UNL     1     -10.266   3.722 129.808  0.00  0.00    +0.000 OA
ATOM     25  H   UNL     1      -9.626   3.464 129.107  0.00  0.00    +0.000 HD
ENDBRANCH   1  24
TORSDOF 2
ENDMDL
MODEL 8
REMARK VINA RESULT:      -7.5      8.066     10.828
REMARK  Name = Nomegestrol
REMARK  5 active torsions:
REMARK  status: ('A' for Active; 'I' for Inactive)
REMARK    1  A    between atoms: C_1  and  C_2
REMARK    2  A    between atoms: C_2  and  C_4
REMARK    3  A    between atoms: C_4  and  O_5
REMARK    4  A    between atoms: C_11  and  C_12
REMARK    5  A    between atoms: C_23  and  C_24
REMARK                            x       y       z     vdW  Elec       q    Type
REMARK                         _______ _______ _______ _____ _____    ______ ____
ROOT
ATOM      1  C   UNL     1      -2.679   5.712 134.576  0.00  0.00    +0.000 C 
ATOM      2  C   UNL     1      -3.492   6.582 133.770  0.00  0.00    +0.000 C 
ATOM      3  C   UNL     1      -3.980   5.828 134.795  0.00  0.00    +0.000 C 
ATOM      4  C   UNL     1      -5.357   6.037 134.766  0.00  0.00    +0.000 C 
ATOM      5  C   UNL     1      -6.122   5.510 133.576  0.00  0.00    +0.000 C 
ATOM      6  C   UNL     1      -5.772   6.280 132.402  0.00  0.00    +0.000 C 
ATOM      7  C   UNL     1      -6.515   6.721 131.429  0.00  0.00    +0.000 C 
ATOM      8  C   UNL     1      -5.766   7.466 130.378  0.00  0.00    +0.000 C 
ATOM      9  C   UNL     1      -7.876   6.372 131.413  0.00  0.00    +0.000 C 
ATOM     10  C   UNL     1      -8.610   6.847 130.416  0.00  0.00    +0.000 C 
ATOM     11  C   UNL     1      -9.897   6.201 130.374  0.00  0.00    +0.000 C 
ATOM     12  O   UNL     1     -10.105   5.035 130.048  0.00  0.00    +0.000 OA
ATOM     13  C   UNL     1     -10.845   6.872 131.221  0.00  0.00    +0.000 C 
ATOM     14  C   UNL     1     -10.129   5.962 132.552  0.00  0.00    +0.000 C 
ATOM     15  C   UNL     1      -8.483   5.530 132.528  0.00  0.00    +0.000 C 
ATOM     16  C   UNL     1      -7.613   5.681 133.861  0.00  0.00    +0.000 C 
ATOM     17  C   UNL     1      -7.715   4.754 135.069  0.00  0.00    +0.000 C 
ATOM     18  C   UNL     1      -6.390   5.183 136.151  0.00  0.00    +0.000 C 
ATOM     19  C   UNL     1      -4.488   5.077 135.589  0.00  0.00    +0.000 C 
ATOM     20  C   UNL     1      -4.868   3.451 135.701  0.00  0.00    +0.000 C 
ENDROOT
BRANCH   1  22
ATOM     21  C   UNL     1      -2.057   6.284 131.307  0.00  0.00    +0.000 C 
ATOM     22  C   UNL     1      -1.772   6.438 132.921  0.00  0.00    +0.000 C 
ATOM     23  O   UNL     1      -0.606   6.963 132.911  0.00  0.00    +0.000 OA
ENDBRANCH   1  22
BRANCH   1  24
ATOM     24  O   UNL     1      -1.640   6.479 135.356  0.00  0.00    +0.000 OA
ATOM     25  H   UNL     1      -1.877   6.488 136.311  0.00  0.00    +0.000 HD
ENDBRANCH   1  24
TORSDOF 2
ENDMDL
MODEL 9
REMARK VINA RESULT:      -7.2      2.186      4.120
REMARK  Name = Nomegestrol
REMARK  5 active torsions:
REMARK  status: ('A' for Active; 'I' for Inactive)
REMARK    1  A    between atoms: C_1  and  C_2
REMARK    2  A    between atoms: C_2  and  C_4
REMARK    3  A    between atoms: C_4  and  O_5
REMARK    4  A    between atoms: C_11  and  C_12
REMARK    5  A    between atoms: C_23  and  C_24
REMARK                            x       y       z     vdW  Elec       q    Type
REMARK                         _______ _______ _______ _____ _____    ______ ____
ROOT
ATOM      1  C   UNL     1      -7.491   2.892 123.093  0.00  0.00    +0.000 C 
ATOM      2  C   UNL     1      -6.512   2.309 123.972  0.00  0.00    +0.000 C 
ATOM      3  C   UNL     1      -7.608   1.642 123.514  0.00  0.00    +0.000 C 
ATOM      4  C   UNL     1      -7.570   0.408 124.160  0.00  0.00    +0.000 C 
ATOM      5  C   UNL     1      -7.774   0.392 125.655  0.00  0.00    +0.000 C 
ATOM      6  C   UNL     1      -6.631   1.000 126.302  0.00  0.00    +0.000 C 
ATOM      7  C   UNL     1      -5.994   0.659 127.384  0.00  0.00    +0.000 C 
ATOM      8  C   UNL     1      -4.866   1.566 127.739  0.00  0.00    +0.000 C 
ATOM      9  C   UNL     1      -6.480  -0.422 128.138  0.00  0.00    +0.000 C 
ATOM     10  C   UNL     1      -5.803  -0.753 129.228  0.00  0.00    +0.000 C 
ATOM     11  C   UNL     1      -6.551  -1.682 130.035  0.00  0.00    +0.000 C 
ATOM     12  O   UNL     1      -7.567  -1.422 130.676  0.00  0.00    +0.000 OA
ATOM     13  C   UNL     1      -6.308  -3.040 129.628  0.00  0.00    +0.000 C 
ATOM     14  C   UNL     1      -7.504  -2.755 128.364  0.00  0.00    +0.000 C 
ATOM     15  C   UNL     1      -7.704  -1.208 127.682  0.00  0.00    +0.000 C 
ATOM     16  C   UNL     1      -7.885  -1.065 126.100  0.00  0.00    +0.000 C 
ATOM     17  C   UNL     1      -9.156  -1.433 125.340  0.00  0.00    +0.000 C 
ATOM     18  C   UNL     1      -8.942  -0.860 123.686  0.00  0.00    +0.000 C 
ATOM     19  C   UNL     1      -8.631   1.055 123.260  0.00  0.00    +0.000 C 
ATOM     20  C   UNL     1     -10.240   1.098 123.719  0.00  0.00    +0.000 C 
ENDROOT
BRANCH   1  22
ATOM     21  C   UNL     1      -6.081   5.003 125.319  0.00  0.00    +0.000 C 
ATOM     22  C   UNL     1      -6.167   4.199 123.885  0.00  0.00    +0.000 C 
ATOM     23  O   UNL     1      -5.268   4.811 123.211  0.00  0.00    +0.000 OA
ENDBRANCH   1  22
BRANCH   1  24
ATOM     24  O   UNL     1      -6.896   3.259 121.756  0.00  0.00    +0.000 OA
ATOM     25  H   UNL     1      -5.946   3.489 121.864  0.00  0.00    +0.000 HD
ENDBRANCH   1  24
TORSDOF 2
ENDMDL
