MODEL 1
REMARK VINA RESULT:      -9.2      0.000      0.000
REMARK  Name = Nomegestrol acetate
REMARK  7 active torsions:
REMARK  status: ('A' for Active; 'I' for Inactive)
REMARK    1  A    between atoms: C_5  and  O_6
REMARK    2  A    between atoms: C_5  and  C_10
REMARK    3  A    between atoms: O_6  and  C_7
REMARK    4  A    between atoms: C_7  and  C_8
REMARK    5  A    between atoms: C_10  and  C_11
REMARK    6  A    between atoms: C_13  and  C_14
REMARK    7  A    between atoms: C_27  and  C_28
REMARK                            x       y       z     vdW  Elec       q    Type
REMARK                         _______ _______ _______ _____ _____    ______ ____
ROOT
ATOM      1  C   UNL     1      -5.957  -3.896 131.238  0.00  0.00    +0.000 C 
ATOM      2  C   UNL     1      -5.711  -5.232 130.829  0.00  0.00    +0.000 C 
ATOM      3  C   UNL     1      -4.976  -4.144 130.178  0.00  0.00    +0.000 C 
ATOM      4  C   UNL     1      -5.111  -2.302 131.158  0.00  0.00    +0.000 C 
ATOM      5  C   UNL     1      -4.185  -3.290 131.303  0.00  0.00    +0.000 C 
ATOM      6  C   UNL     1      -3.562  -3.748 132.558  0.00  0.00    +0.000 C 
ATOM      7  C   UNL     1      -3.509  -2.608 129.781  0.00  0.00    +0.000 C 
ATOM      8  C   UNL     1      -4.649  -1.964 128.873  0.00  0.00    +0.000 C 
ATOM      9  C   UNL     1      -6.076  -2.626 128.704  0.00  0.00    +0.000 C 
ATOM     10  C   UNL     1      -7.066  -1.866 127.927  0.00  0.00    +0.000 C 
ATOM     11  C   UNL     1      -6.251  -1.413 126.902  0.00  0.00    +0.000 C 
ATOM     12  C   UNL     1      -5.340  -0.580 126.267  0.00  0.00    +0.000 C 
ATOM     13  C   UNL     1      -6.020  -1.621 125.053  0.00  0.00    +0.000 C 
ATOM     14  O   UNL     1      -5.340  -1.761 124.098  0.00  0.00    +0.000 OA
ATOM     15  C   UNL     1      -7.495  -2.762 125.655  0.00  0.00    +0.000 C 
ATOM     16  C   UNL     1      -7.858  -2.874 127.052  0.00  0.00    +0.000 C 
ATOM     17  C   UNL     1      -8.675  -3.647 128.155  0.00  0.00    +0.000 C 
ATOM     18  C   UNL     1     -10.021  -4.349 128.235  0.00  0.00    +0.000 C 
ATOM     19  C   UNL     1      -8.188  -3.648 129.439  0.00  0.00    +0.000 C 
ATOM     20  C   UNL     1      -6.917  -3.006 129.904  0.00  0.00    +0.000 C 
ENDROOT
BRANCH   4  21
ATOM     21  C   UNL     1      -4.019  -0.991 131.682  0.00  0.00    +0.000 C 
ATOM     22  C   UNL     1      -4.189   0.534 131.303  0.00  0.00    +0.000 C 
ATOM     23  O   UNL     1      -3.020  -1.242 132.380  0.00  0.00    +0.000 OA
ENDBRANCH   4  21
BRANCH   4  24
ATOM     24  O   UNL     1      -5.791  -2.105 132.697  0.00  0.00    +0.000 OA
BRANCH  24  25
ATOM     25  C   UNL     1      -6.941  -1.555 133.255  0.00  0.00    +0.000 C 
ATOM     26  C   UNL     1      -7.956  -2.532 133.701  0.00  0.00    +0.000 C 
ATOM     27  O   UNL     1      -7.075  -0.368 133.516  0.00  0.00    +0.000 OA
ENDBRANCH  24  25
ENDBRANCH   4  24
TORSDOF 3
ENDMDL
MODEL 2
REMARK VINA RESULT:      -9.2      4.381      7.632
REMARK  Name = Nomegestrol acetate
REMARK  7 active torsions:
REMARK  status: ('A' for Active; 'I' for Inactive)
REMARK    1  A    between atoms: C_5  and  O_6
REMARK    2  A    between atoms: C_5  and  C_10
REMARK    3  A    between atoms: O_6  and  C_7
REMARK    4  A    between atoms: C_7  and  C_8
REMARK    5  A    between atoms: C_10  and  C_11
REMARK    6  A    between atoms: C_13  and  C_14
REMARK    7  A    between atoms: C_27  and  C_28
REMARK                            x       y       z     vdW  Elec       q    Type
REMARK                         _______ _______ _______ _____ _____    ______ ____
ROOT
ATOM      1  C   UNL     1      -6.285  -1.463 126.480  0.00  0.00    +0.000 C 
ATOM      2  C   UNL     1      -6.342  -1.362 127.894  0.00  0.00    +0.000 C 
ATOM      3  C   UNL     1      -7.410  -0.754 127.095  0.00  0.00    +0.000 C 
ATOM      4  C   UNL     1      -7.431  -1.341 125.089  0.00  0.00    +0.000 C 
ATOM      5  C   UNL     1      -8.080  -1.887 126.154  0.00  0.00    +0.000 C 
ATOM      6  C   UNL     1      -8.297  -3.320 126.426  0.00  0.00    +0.000 C 
ATOM      7  C   UNL     1      -9.207  -0.503 125.924  0.00  0.00    +0.000 C 
ATOM      8  C   UNL     1      -8.457   0.766 125.319  0.00  0.00    +0.000 C 
ATOM      9  C   UNL     1      -7.002   1.189 125.774  0.00  0.00    +0.000 C 
ATOM     10  C   UNL     1      -6.389   2.315 125.053  0.00  0.00    +0.000 C 
ATOM     11  C   UNL     1      -7.490   3.151 124.958  0.00  0.00    +0.000 C 
ATOM     12  C   UNL     1      -8.670   3.655 124.429  0.00  0.00    +0.000 C 
ATOM     13  C   UNL     1      -8.087   4.813 125.587  0.00  0.00    +0.000 C 
ATOM     14  O   UNL     1      -8.923   5.520 126.030  0.00  0.00    +0.000 OA
ATOM     15  C   UNL     1      -6.314   4.437 126.333  0.00  0.00    +0.000 C 
ATOM     16  C   UNL     1      -5.629   3.185 126.089  0.00  0.00    +0.000 C 
ATOM     17  C   UNL     1      -4.445   2.221 126.475  0.00  0.00    +0.000 C 
ATOM     18  C   UNL     1      -3.002   2.380 126.928  0.00  0.00    +0.000 C 
ATOM     19  C   UNL     1      -4.617   0.873 126.278  0.00  0.00    +0.000 C 
ATOM     20  C   UNL     1      -5.852   0.205 125.756  0.00  0.00    +0.000 C 
ENDROOT
BRANCH   4  21
ATOM     21  C   UNL     1      -8.617  -1.906 123.881  0.00  0.00    +0.000 C 
ATOM     22  C   UNL     1      -9.375  -3.293 123.936  0.00  0.00    +0.000 C 
ATOM     23  O   UNL     1      -8.890  -1.207 122.888  0.00  0.00    +0.000 OA
ENDBRANCH   4  21
BRANCH   4  24
ATOM     24  O   UNL     1      -6.474  -2.593 124.468  0.00  0.00    +0.000 OA
BRANCH  24  25
ATOM     25  C   UNL     1      -5.560  -2.779 123.435  0.00  0.00    +0.000 C 
ATOM     26  C   UNL     1      -4.563  -3.848 123.658  0.00  0.00    +0.000 C 
ATOM     27  O   UNL     1      -5.637  -2.228 122.345  0.00  0.00    +0.000 OA
ENDBRANCH  24  25
ENDBRANCH   4  24
TORSDOF 3
ENDMDL
MODEL 3
REMARK VINA RESULT:      -9.0      3.225      6.959
REMARK  Name = Nomegestrol acetate
REMARK  7 active torsions:
REMARK  status: ('A' for Active; 'I' for Inactive)
REMARK    1  A    between atoms: C_5  and  O_6
REMARK    2  A    between atoms: C_5  and  C_10
REMARK    3  A    between atoms: O_6  and  C_7
REMARK    4  A    between atoms: C_7  and  C_8
REMARK    5  A    between atoms: C_10  and  C_11
REMARK    6  A    between atoms: C_13  and  C_14
REMARK    7  A    between atoms: C_27  and  C_28
REMARK                            x       y       z     vdW  Elec       q    Type
REMARK                         _______ _______ _______ _____ _____    ______ ____
ROOT
ATOM      1  C   UNL     1      -8.193  -3.302 126.047  0.00  0.00    +0.000 C 
ATOM      2  C   UNL     1      -9.367  -3.829 126.643  0.00  0.00    +0.000 C 
ATOM      3  C   UNL     1      -9.369  -2.439 126.179  0.00  0.00    +0.000 C 
ATOM      4  C   UNL     1      -7.754  -1.935 124.951  0.00  0.00    +0.000 C 
ATOM      5  C   UNL     1      -8.985  -2.404 124.607  0.00  0.00    +0.000 C 
ATOM      6  C   UNL     1      -9.303  -3.377 123.545  0.00  0.00    +0.000 C 
ATOM      7  C   UNL     1      -9.496  -0.703 124.899  0.00  0.00    +0.000 C 
ATOM      8  C   UNL     1      -8.591  -0.004 126.009  0.00  0.00    +0.000 C 
ATOM      9  C   UNL     1      -8.104  -0.763 127.309  0.00  0.00    +0.000 C 
ATOM     10  C   UNL     1      -7.183  -0.031 128.192  0.00  0.00    +0.000 C 
ATOM     11  C   UNL     1      -7.777   1.221 128.152  0.00  0.00    +0.000 C 
ATOM     12  C   UNL     1      -8.061   2.485 127.654  0.00  0.00    +0.000 C 
ATOM     13  C   UNL     1      -8.672   2.421 129.280  0.00  0.00    +0.000 C 
ATOM     14  O   UNL     1      -9.538   3.191 129.503  0.00  0.00    +0.000 OA
ATOM     15  C   UNL     1      -8.214   0.803 130.287  0.00  0.00    +0.000 C 
ATOM     16  C   UNL     1      -7.585  -0.340 129.659  0.00  0.00    +0.000 C 
ATOM     17  C   UNL     1      -7.174  -1.856 129.766  0.00  0.00    +0.000 C 
ATOM     18  C   UNL     1      -6.687  -2.787 130.865  0.00  0.00    +0.000 C 
ATOM     19  C   UNL     1      -7.090  -2.588 128.607  0.00  0.00    +0.000 C 
ATOM     20  C   UNL     1      -7.388  -2.094 127.225  0.00  0.00    +0.000 C 
ENDROOT
BRANCH   4  21
ATOM     21  C   UNL     1      -7.473  -1.094 123.402  0.00  0.00    +0.000 C 
ATOM     22  C   UNL     1      -6.865   0.358 123.258  0.00  0.00    +0.000 C 
ATOM     23  O   UNL     1      -7.781  -1.634 122.324  0.00  0.00    +0.000 OA
ENDBRANCH   4  21
BRANCH   4  24
ATOM     24  O   UNL     1      -6.661  -3.068 124.326  0.00  0.00    +0.000 OA
BRANCH  24  25
ATOM     25  C   UNL     1      -5.282  -3.227 124.228  0.00  0.00    +0.000 C 
ATOM     26  C   UNL     1      -4.826  -4.583 123.859  0.00  0.00    +0.000 C 
ATOM     27  O   UNL     1      -4.481  -2.303 124.283  0.00  0.00    +0.000 OA
ENDBRANCH  24  25
ENDBRANCH   4  24
TORSDOF 3
ENDMDL
MODEL 4
REMARK VINA RESULT:      -8.4      2.791      7.185
REMARK  Name = Nomegestrol acetate
REMARK  7 active torsions:
REMARK  status: ('A' for Active; 'I' for Inactive)
REMARK    1  A    between atoms: C_5  and  O_6
REMARK    2  A    between atoms: C_5  and  C_10
REMARK    3  A    between atoms: O_6  and  C_7
REMARK    4  A    between atoms: C_7  and  C_8
REMARK    5  A    between atoms: C_10  and  C_11
REMARK    6  A    between atoms: C_13  and  C_14
REMARK    7  A    between atoms: C_27  and  C_28
REMARK                            x       y       z     vdW  Elec       q    Type
REMARK                         _______ _______ _______ _____ _____    ______ ____
ROOT
ATOM      1  C   UNL     1      -6.583   0.408 125.456  0.00  0.00    +0.000 C 
ATOM      2  C   UNL     1      -5.169   0.515 125.513  0.00  0.00    +0.000 C 
ATOM      3  C   UNL     1      -5.802  -0.748 125.901  0.00  0.00    +0.000 C 
ATOM      4  C   UNL     1      -7.816  -0.908 125.364  0.00  0.00    +0.000 C 
ATOM      5  C   UNL     1      -6.706  -1.289 124.673  0.00  0.00    +0.000 C 
ATOM      6  C   UNL     1      -6.478  -1.171 123.221  0.00  0.00    +0.000 C 
ATOM      7  C   UNL     1      -6.732  -2.695 125.796  0.00  0.00    +0.000 C 
ATOM      8  C   UNL     1      -7.364  -2.305 127.205  0.00  0.00    +0.000 C 
ATOM      9  C   UNL     1      -7.070  -0.921 127.914  0.00  0.00    +0.000 C 
ATOM     10  C   UNL     1      -7.807  -0.649 129.157  0.00  0.00    +0.000 C 
ATOM     11  C   UNL     1      -7.727  -1.900 129.747  0.00  0.00    +0.000 C 
ATOM     12  C   UNL     1      -8.084  -3.217 130.004  0.00  0.00    +0.000 C 
ATOM     13  C   UNL     1      -6.952  -2.738 131.234  0.00  0.00    +0.000 C 
ATOM     14  O   UNL     1      -6.378  -3.637 131.742  0.00  0.00    +0.000 OA
ATOM     15  C   UNL     1      -6.447  -0.845 131.221  0.00  0.00    +0.000 C 
ATOM     16  C   UNL     1      -6.832   0.044 130.145  0.00  0.00    +0.000 C 
ATOM     17  C   UNL     1      -6.640   1.441 129.442  0.00  0.00    +0.000 C 
ATOM     18  C   UNL     1      -6.360   2.866 129.888  0.00  0.00    +0.000 C 
ATOM     19  C   UNL     1      -6.877   1.523 128.091  0.00  0.00    +0.000 C 
ATOM     20  C   UNL     1      -7.275   0.394 127.192  0.00  0.00    +0.000 C 
ENDROOT
BRANCH   4  21
ATOM     21  C   UNL     1      -8.895  -2.100 124.589  0.00  0.00    +0.000 C 
ATOM     22  C   UNL     1      -8.782  -2.583 123.087  0.00  0.00    +0.000 C 
ATOM     23  O   UNL     1      -9.839  -2.605 125.224  0.00  0.00    +0.000 OA
ENDBRANCH   4  21
BRANCH   4  24
ATOM     24  O   UNL     1      -8.608   0.196 124.352  0.00  0.00    +0.000 OA
BRANCH  24  25
ATOM     25  C   UNL     1      -9.576   1.189 124.465  0.00  0.00    +0.000 C 
ATOM     26  C   UNL     1      -9.066   2.575 124.432  0.00  0.00    +0.000 C 
ATOM     27  O   UNL     1     -10.781   0.977 124.440  0.00  0.00    +0.000 OA
ENDBRANCH  24  25
ENDBRANCH   4  24
TORSDOF 3
ENDMDL
MODEL 5
REMARK VINA RESULT:      -8.2      4.091      6.288
REMARK  Name = Nomegestrol acetate
REMARK  7 active torsions:
REMARK  status: ('A' for Active; 'I' for Inactive)
REMARK    1  A    between atoms: C_5  and  O_6
REMARK    2  A    between atoms: C_5  and  C_10
REMARK    3  A    between atoms: O_6  and  C_7
REMARK    4  A    between atoms: C_7  and  C_8
REMARK    5  A    between atoms: C_10  and  C_11
REMARK    6  A    between atoms: C_13  and  C_14
REMARK    7  A    between atoms: C_27  and  C_28
REMARK                            x       y       z     vdW  Elec       q    Type
REMARK                         _______ _______ _______ _____ _____    ______ ____
ROOT
ATOM      1  C   UNL     1      -5.945   2.045 127.889  0.00  0.00    +0.000 C 
ATOM      2  C   UNL     1      -4.722   1.328 127.942  0.00  0.00    +0.000 C 
ATOM      3  C   UNL     1      -5.394   1.492 126.649  0.00  0.00    +0.000 C 
ATOM      4  C   UNL     1      -6.927   2.913 126.646  0.00  0.00    +0.000 C 
ATOM      5  C   UNL     1      -5.606   3.070 126.358  0.00  0.00    +0.000 C 
ATOM      6  C   UNL     1      -4.745   4.211 126.719  0.00  0.00    +0.000 C 
ATOM      7  C   UNL     1      -6.067   2.339 124.779  0.00  0.00    +0.000 C 
ATOM      8  C   UNL     1      -7.294   1.334 124.938  0.00  0.00    +0.000 C 
ATOM      9  C   UNL     1      -7.431   0.349 126.168  0.00  0.00    +0.000 C 
ATOM     10  C   UNL     1      -8.669  -0.442 126.242  0.00  0.00    +0.000 C 
ATOM     11  C   UNL     1      -8.801  -0.783 124.906  0.00  0.00    +0.000 C 
ATOM     12  C   UNL     1      -9.164  -0.623 123.576  0.00  0.00    +0.000 C 
ATOM     13  C   UNL     1      -8.748  -2.296 123.799  0.00  0.00    +0.000 C 
ATOM     14  O   UNL     1      -8.423  -2.851 122.809  0.00  0.00    +0.000 OA
ATOM     15  C   UNL     1      -8.395  -2.834 125.650  0.00  0.00    +0.000 C 
ATOM     16  C   UNL     1      -8.292  -1.868 126.724  0.00  0.00    +0.000 C 
ATOM     17  C   UNL     1      -7.874  -1.578 128.214  0.00  0.00    +0.000 C 
ATOM     18  C   UNL     1      -7.906  -2.335 129.532  0.00  0.00    +0.000 C 
ATOM     19  C   UNL     1      -7.471  -0.305 128.537  0.00  0.00    +0.000 C 
ATOM     20  C   UNL     1      -7.353   0.852 127.594  0.00  0.00    +0.000 C 
ENDROOT
BRANCH   4  21
ATOM     21  C   UNL     1      -7.467   4.285 125.640  0.00  0.00    +0.000 C 
ATOM     22  C   UNL     1      -6.535   5.457 125.132  0.00  0.00    +0.000 C 
ATOM     23  O   UNL     1      -8.660   4.391 125.302  0.00  0.00    +0.000 OA
ENDBRANCH   4  21
BRANCH   4  24
ATOM     24  O   UNL     1      -7.226   3.974 127.932  0.00  0.00    +0.000 OA
BRANCH  24  25
ATOM     25  C   UNL     1      -8.301   4.348 128.733  0.00  0.00    +0.000 C 
ATOM     26  C   UNL     1      -8.479   3.551 129.965  0.00  0.00    +0.000 C 
ATOM     27  O   UNL     1      -8.976   5.352 128.548  0.00  0.00    +0.000 OA
ENDBRANCH  24  25
ENDBRANCH   4  24
TORSDOF 3
ENDMDL
MODEL 6
REMARK VINA RESULT:      -8.2      2.255      3.995
REMARK  Name = Nomegestrol acetate
REMARK  7 active torsions:
REMARK  status: ('A' for Active; 'I' for Inactive)
REMARK    1  A    between atoms: C_5  and  O_6
REMARK    2  A    between atoms: C_5  and  C_10
REMARK    3  A    between atoms: O_6  and  C_7
REMARK    4  A    between atoms: C_7  and  C_8
REMARK    5  A    between atoms: C_10  and  C_11
REMARK    6  A    between atoms: C_13  and  C_14
REMARK    7  A    between atoms: C_27  and  C_28
REMARK                            x       y       z     vdW  Elec       q    Type
REMARK                         _______ _______ _______ _____ _____    ______ ____
ROOT
ATOM      1  C   UNL     1      -7.193  -0.866 131.038  0.00  0.00    +0.000 C 
ATOM      2  C   UNL     1      -8.530  -0.588 131.420  0.00  0.00    +0.000 C 
ATOM      3  C   UNL     1      -8.275  -1.668 130.463  0.00  0.00    +0.000 C 
ATOM      4  C   UNL     1      -6.271  -2.246 130.327  0.00  0.00    +0.000 C 
ATOM      5  C   UNL     1      -7.256  -2.736 131.129  0.00  0.00    +0.000 C 
ATOM      6  C   UNL     1      -7.132  -3.158 132.536  0.00  0.00    +0.000 C 
ATOM      7  C   UNL     1      -7.770  -3.598 129.635  0.00  0.00    +0.000 C 
ATOM      8  C   UNL     1      -7.395  -2.772 128.325  0.00  0.00    +0.000 C 
ATOM      9  C   UNL     1      -7.541  -1.198 128.243  0.00  0.00    +0.000 C 
ATOM     10  C   UNL     1      -7.054  -0.555 127.013  0.00  0.00    +0.000 C 
ATOM     11  C   UNL     1      -7.520  -1.468 126.080  0.00  0.00    +0.000 C 
ATOM     12  C   UNL     1      -7.510  -2.617 125.301  0.00  0.00    +0.000 C 
ATOM     13  C   UNL     1      -8.758  -1.580 124.677  0.00  0.00    +0.000 C 
ATOM     14  O   UNL     1      -9.603  -2.145 124.076  0.00  0.00    +0.000 OA
ATOM     15  C   UNL     1      -8.843   0.208 125.475  0.00  0.00    +0.000 C 
ATOM     16  C   UNL     1      -8.056   0.568 126.636  0.00  0.00    +0.000 C 
ATOM     17  C   UNL     1      -7.796   1.601 127.796  0.00  0.00    +0.000 C 
ATOM     18  C   UNL     1      -7.864   3.110 127.960  0.00  0.00    +0.000 C 
ATOM     19  C   UNL     1      -7.257   1.133 128.970  0.00  0.00    +0.000 C 
ATOM     20  C   UNL     1      -6.915  -0.292 129.281  0.00  0.00    +0.000 C 
ENDROOT
BRANCH   4  21
ATOM     21  C   UNL     1      -5.320  -3.757 130.314  0.00  0.00    +0.000 C 
ATOM     22  C   UNL     1      -5.479  -4.936 131.356  0.00  0.00    +0.000 C 
ATOM     23  O   UNL     1      -4.435  -3.940 129.459  0.00  0.00    +0.000 OA
ENDBRANCH   4  21
BRANCH   4  24
ATOM     24  O   UNL     1      -5.065  -1.710 131.389  0.00  0.00    +0.000 OA
BRANCH  24  25
ATOM     25  C   UNL     1      -3.828  -1.076 131.312  0.00  0.00    +0.000 C 
ATOM     26  C   UNL     1      -3.864   0.397 131.427  0.00  0.00    +0.000 C 
ATOM     27  O   UNL     1      -2.756  -1.666 131.307  0.00  0.00    +0.000 OA
ENDBRANCH  24  25
ENDBRANCH   4  24
TORSDOF 3
ENDMDL
MODEL 7
REMARK VINA RESULT:      -8.2      3.136      4.447
REMARK  Name = Nomegestrol acetate
REMARK  7 active torsions:
REMARK  status: ('A' for Active; 'I' for Inactive)
REMARK    1  A    between atoms: C_5  and  O_6
REMARK    2  A    between atoms: C_5  and  C_10
REMARK    3  A    between atoms: O_6  and  C_7
REMARK    4  A    between atoms: C_7  and  C_8
REMARK    5  A    between atoms: C_10  and  C_11
REMARK    6  A    between atoms: C_13  and  C_14
REMARK    7  A    between atoms: C_27  and  C_28
REMARK                            x       y       z     vdW  Elec       q    Type
REMARK                         _______ _______ _______ _____ _____    ______ ____
ROOT
ATOM      1  C   UNL     1      -6.300   0.134 129.251  0.00  0.00    +0.000 C 
ATOM      2  C   UNL     1      -5.270  -0.796 129.547  0.00  0.00    +0.000 C 
ATOM      3  C   UNL     1      -5.222  -0.062 128.279  0.00  0.00    +0.000 C 
ATOM      4  C   UNL     1      -6.536   1.560 128.169  0.00  0.00    +0.000 C 
ATOM      5  C   UNL     1      -5.241   1.528 128.586  0.00  0.00    +0.000 C 
ATOM      6  C   UNL     1      -4.650   2.269 129.714  0.00  0.00    +0.000 C 
ATOM      7  C   UNL     1      -4.883   1.497 126.822  0.00  0.00    +0.000 C 
ATOM      8  C   UNL     1      -6.045   0.778 126.003  0.00  0.00    +0.000 C 
ATOM      9  C   UNL     1      -6.781  -0.518 126.533  0.00  0.00    +0.000 C 
ATOM     10  C   UNL     1      -7.909  -1.011 125.727  0.00  0.00    +0.000 C 
ATOM     11  C   UNL     1      -7.375  -0.837 124.460  0.00  0.00    +0.000 C 
ATOM     12  C   UNL     1      -7.040  -0.157 123.297  0.00  0.00    +0.000 C 
ATOM     13  C   UNL     1      -6.811  -1.852 122.988  0.00  0.00    +0.000 C 
ATOM     14  O   UNL     1      -6.052  -2.088 122.116  0.00  0.00    +0.000 OA
ATOM     15  C   UNL     1      -7.416  -3.055 124.413  0.00  0.00    +0.000 C 
ATOM     16  C   UNL     1      -7.836  -2.561 125.707  0.00  0.00    +0.000 C 
ATOM     17  C   UNL     1      -8.196  -2.895 127.204  0.00  0.00    +0.000 C 
ATOM     18  C   UNL     1      -8.879  -4.034 127.941  0.00  0.00    +0.000 C 
ATOM     19  C   UNL     1      -7.984  -1.924 128.152  0.00  0.00    +0.000 C 
ATOM     20  C   UNL     1      -7.402  -0.565 127.913  0.00  0.00    +0.000 C 
ENDROOT
BRANCH   4  21
ATOM     21  C   UNL     1      -6.495   3.275 127.674  0.00  0.00    +0.000 C 
ATOM     22  C   UNL     1      -7.416   3.919 126.562  0.00  0.00    +0.000 C 
ATOM     23  O   UNL     1      -5.685   4.063 128.194  0.00  0.00    +0.000 OA
ENDBRANCH   4  21
BRANCH   4  24
ATOM     24  O   UNL     1      -7.411   2.151 129.494  0.00  0.00    +0.000 OA
BRANCH  24  25
ATOM     25  C   UNL     1      -8.741   2.257 129.889  0.00  0.00    +0.000 C 
ATOM     26  C   UNL     1      -9.072   1.603 131.173  0.00  0.00    +0.000 C 
ATOM     27  O   UNL     1      -9.569   2.960 129.326  0.00  0.00    +0.000 OA
ENDBRANCH  24  25
ENDBRANCH   4  24
TORSDOF 3
ENDMDL
MODEL 8
REMARK VINA RESULT:      -8.2      5.899      8.542
REMARK  Name = Nomegestrol acetate
REMARK  7 active torsions:
REMARK  status: ('A' for Active; 'I' for Inactive)
REMARK    1  A    between atoms: C_5  and  O_6
REMARK    2  A    between atoms: C_5  and  C_10
REMARK    3  A    between atoms: O_6  and  C_7
REMARK    4  A    between atoms: C_7  and  C_8
REMARK    5  A    between atoms: C_10  and  C_11
REMARK    6  A    between atoms: C_13  and  C_14
REMARK    7  A    between atoms: C_27  and  C_28
REMARK                            x       y       z     vdW  Elec       q    Type
REMARK                         _______ _______ _______ _____ _____    ______ ____
ROOT
ATOM      1  C   UNL     1      -7.401   5.795 131.930  0.00  0.00    +0.000 C 
ATOM      2  C   UNL     1      -7.871   6.841 131.095  0.00  0.00    +0.000 C 
ATOM      3  C   UNL     1      -7.518   5.554 130.489  0.00  0.00    +0.000 C 
ATOM      4  C   UNL     1      -7.263   3.996 131.859  0.00  0.00    +0.000 C 
ATOM      5  C   UNL     1      -8.385   4.382 131.192  0.00  0.00    +0.000 C 
ATOM      6  C   UNL     1      -9.762   4.424 131.716  0.00  0.00    +0.000 C 
ATOM      7  C   UNL     1      -7.627   3.505 129.815  0.00  0.00    +0.000 C 
ATOM      8  C   UNL     1      -6.037   3.549 129.898  0.00  0.00    +0.000 C 
ATOM      9  C   UNL     1      -5.246   4.842 130.351  0.00  0.00    +0.000 C 
ATOM     10  C   UNL     1      -3.788   4.707 130.489  0.00  0.00    +0.000 C 
ATOM     11  C   UNL     1      -3.523   3.941 129.365  0.00  0.00    +0.000 C 
ATOM     12  C   UNL     1      -3.404   2.786 128.605  0.00  0.00    +0.000 C 
ATOM     13  C   UNL     1      -2.635   4.068 127.719  0.00  0.00    +0.000 C 
ATOM     14  O   UNL     1      -2.568   3.881 126.555  0.00  0.00    +0.000 OA
ATOM     15  C   UNL     1      -2.481   5.773 128.672  0.00  0.00    +0.000 C 
ATOM     16  C   UNL     1      -3.137   6.005 129.942  0.00  0.00    +0.000 C 
ATOM     17  C   UNL     1      -3.580   7.045 131.038  0.00  0.00    +0.000 C 
ATOM     18  C   UNL     1      -3.013   8.323 131.633  0.00  0.00    +0.000 C 
ATOM     19  C   UNL     1      -4.695   6.758 131.789  0.00  0.00    +0.000 C 
ATOM     20  C   UNL     1      -5.570   5.551 131.649  0.00  0.00    +0.000 C 
ENDROOT
BRANCH   4  21
ATOM     21  C   UNL     1      -7.776   2.297 132.052  0.00  0.00    +0.000 C 
ATOM     22  C   UNL     1      -9.274   1.817 132.218  0.00  0.00    +0.000 C 
ATOM     23  O   UNL     1      -6.933   1.382 132.090  0.00  0.00    +0.000 OA
ENDBRANCH   4  21
BRANCH   4  24
ATOM     24  O   UNL     1      -7.663   4.114 133.501  0.00  0.00    +0.000 OA
BRANCH  24  25
ATOM     25  C   UNL     1      -7.003   4.257 134.717  0.00  0.00    +0.000 C 
ATOM     26  C   UNL     1      -7.512   5.335 135.590  0.00  0.00    +0.000 C 
ATOM     27  O   UNL     1      -6.163   3.472 135.137  0.00  0.00    +0.000 OA
ENDBRANCH  24  25
ENDBRANCH   4  24
TORSDOF 3
ENDMDL
MODEL 9
REMARK VINA RESULT:      -8.1      6.118      8.818
REMARK  Name = Nomegestrol acetate
REMARK  7 active torsions:
REMARK  status: ('A' for Active; 'I' for Inactive)
REMARK    1  A    between atoms: C_5  and  O_6
REMARK    2  A    between atoms: C_5  and  C_10
REMARK    3  A    between atoms: O_6  and  C_7
REMARK    4  A    between atoms: C_7  and  C_8
REMARK    5  A    between atoms: C_10  and  C_11
REMARK    6  A    between atoms: C_13  and  C_14
REMARK    7  A    between atoms: C_27  and  C_28
REMARK                            x       y       z     vdW  Elec       q    Type
REMARK                         _______ _______ _______ _____ _____    ______ ____
ROOT
ATOM      1  C   UNL     1      -5.126   3.253 131.691  0.00  0.00    +0.000 C 
ATOM      2  C   UNL     1      -5.794   2.073 132.107  0.00  0.00    +0.000 C 
ATOM      3  C   UNL     1      -6.336   2.836 130.979  0.00  0.00    +0.000 C 
ATOM      4  C   UNL     1      -5.037   4.281 130.208  0.00  0.00    +0.000 C 
ATOM      5  C   UNL     1      -5.197   2.980 129.839  0.00  0.00    +0.000 C 
ATOM      6  C   UNL     1      -4.140   2.030 129.448  0.00  0.00    +0.000 C 
ATOM      7  C   UNL     1      -6.652   3.608 128.987  0.00  0.00    +0.000 C 
ATOM      8  C   UNL     1      -7.267   4.873 129.735  0.00  0.00    +0.000 C 
ATOM      9  C   UNL     1      -7.354   4.968 131.312  0.00  0.00    +0.000 C 
ATOM     10  C   UNL     1      -7.842   6.238 131.870  0.00  0.00    +0.000 C 
ATOM     11  C   UNL     1      -8.872   6.496 130.979  0.00  0.00    +0.000 C 
ATOM     12  C   UNL     1      -9.467   6.956 129.812  0.00  0.00    +0.000 C 
ATOM     13  C   UNL     1     -10.742   6.619 130.945  0.00  0.00    +0.000 C 
ATOM     14  O   UNL     1     -11.791   6.407 130.446  0.00  0.00    +0.000 OA
ATOM     15  C   UNL     1     -10.156   6.150 132.755  0.00  0.00    +0.000 C 
ATOM     16  C   UNL     1      -8.765   5.906 133.072  0.00  0.00    +0.000 C 
ATOM     17  C   UNL     1      -7.715   5.353 134.108  0.00  0.00    +0.000 C 
ATOM     18  C   UNL     1      -7.577   5.322 135.622  0.00  0.00    +0.000 C 
ATOM     19  C   UNL     1      -6.530   4.854 133.625  0.00  0.00    +0.000 C 
ATOM     20  C   UNL     1      -6.136   4.746 132.184  0.00  0.00    +0.000 C 
ENDROOT
BRANCH   4  21
ATOM     21  C   UNL     1      -4.443   4.821 128.614  0.00  0.00    +0.000 C 
ATOM     22  C   UNL     1      -3.602   3.932 127.613  0.00  0.00    +0.000 C 
ATOM     23  O   UNL     1      -4.658   5.981 128.219  0.00  0.00    +0.000 OA
ENDBRANCH   4  21
BRANCH   4  24
ATOM     24  O   UNL     1      -3.409   4.415 130.658  0.00  0.00    +0.000 OA
BRANCH  24  25
ATOM     25  C   UNL     1      -2.588   5.337 131.299  0.00  0.00    +0.000 C 
ATOM     26  C   UNL     1      -1.832   4.812 132.456  0.00  0.00    +0.000 C 
ATOM     27  O   UNL     1      -2.361   6.463 130.877  0.00  0.00    +0.000 OA
ENDBRANCH  24  25
ENDBRANCH   4  24
TORSDOF 3
ENDMDL
