MODEL 1
REMARK VINA RESULT:      -7.0      0.000      0.000
REMARK  Name = Nomifensine
REMARK  3 active torsions:
REMARK  status: ('A' for Active; 'I' for Inactive)
REMARK    1  A    between atoms: C_1  and  N_2
REMARK    2  A    between atoms: C_4  and  C_5
REMARK    3  A    between atoms: C_14  and  N_15
REMARK                            x       y       z     vdW  Elec       q    Type
REMARK                         _______ _______ _______ _____ _____    ______ ____
ROOT
ATOM      1  C   UNL     1      -6.519   1.815 126.413  0.00  0.00    +0.000 C 
ATOM      2  N   UNL     1      -6.973   0.437 126.403  0.00  0.00    +0.000 NA
ATOM      3  C   UNL     1      -8.086   0.196 125.478  0.00  0.00    +0.000 C 
ATOM      4  C   UNL     1      -8.297  -1.329 125.270  0.00  0.00    +0.000 C 
ATOM      5  C   UNL     1      -8.409  -2.050 126.605  0.00  0.00    +0.000 A 
ATOM      6  C   UNL     1      -7.875  -1.465 127.782  0.00  0.00    +0.000 A 
ATOM      7  C   UNL     1      -7.293  -0.060 127.745  0.00  0.00    +0.000 C 
ATOM      8  C   UNL     1      -7.909  -2.188 128.991  0.00  0.00    +0.000 A 
ATOM      9  C   UNL     1      -8.498  -3.462 129.000  0.00  0.00    +0.000 A 
ATOM     10  C   UNL     1      -9.013  -4.038 127.837  0.00  0.00    +0.000 A 
ATOM     11  C   UNL     1      -8.973  -3.333 126.643  0.00  0.00    +0.000 A 
ENDROOT
BRANCH   4  12
ATOM     12  C   UNL     1      -7.181  -1.936 124.416  0.00  0.00    +0.000 A 
ATOM     13  C   UNL     1      -7.114  -1.705 123.042  0.00  0.00    +0.000 A 
ATOM     14  C   UNL     1      -6.012  -2.162 122.310  0.00  0.00    +0.000 A 
ATOM     15  C   UNL     1      -5.051  -2.973 122.918  0.00  0.00    +0.000 A 
ATOM     16  C   UNL     1      -5.155  -3.287 124.261  0.00  0.00    +0.000 A 
ATOM     17  C   UNL     1      -6.189  -2.738 125.012  0.00  0.00    +0.000 A 
ENDBRANCH   4  12
BRANCH   8  18
ATOM     18  N   UNL     1      -7.594  -1.586 130.220  0.00  0.00    +0.000 N 
ATOM     19  H   UNL     1      -7.942  -2.046 131.052  0.00  0.00    +0.000 HD
ATOM     20  H   UNL     1      -7.701  -0.579 130.250  0.00  0.00    +0.000 HD
ENDBRANCH   8  18
TORSDOF 2
ENDMDL
MODEL 2
REMARK VINA RESULT:      -6.9      4.035      5.626
REMARK  Name = Nomifensine
REMARK  3 active torsions:
REMARK  status: ('A' for Active; 'I' for Inactive)
REMARK    1  A    between atoms: C_1  and  N_2
REMARK    2  A    between atoms: C_4  and  C_5
REMARK    3  A    between atoms: C_14  and  N_15
REMARK                            x       y       z     vdW  Elec       q    Type
REMARK                         _______ _______ _______ _____ _____    ______ ____
ROOT
ATOM      1  C   UNL     1      -5.627   3.359 125.427  0.00  0.00    +0.000 C 
ATOM      2  N   UNL     1      -6.569   2.711 124.533  0.00  0.00    +0.000 NA
ATOM      3  C   UNL     1      -7.846   3.425 124.416  0.00  0.00    +0.000 C 
ATOM      4  C   UNL     1      -8.664   2.877 123.215  0.00  0.00    +0.000 C 
ATOM      5  C   UNL     1      -8.784   1.362 123.284  0.00  0.00    +0.000 A 
ATOM      6  C   UNL     1      -7.848   0.602 124.032  0.00  0.00    +0.000 A 
ATOM      7  C   UNL     1      -6.789   1.301 124.871  0.00  0.00    +0.000 C 
ATOM      8  C   UNL     1      -7.922  -0.805 124.010  0.00  0.00    +0.000 A 
ATOM      9  C   UNL     1      -8.943  -1.416 123.265  0.00  0.00    +0.000 A 
ATOM     10  C   UNL     1      -9.855  -0.664 122.521  0.00  0.00    +0.000 A 
ATOM     11  C   UNL     1      -9.780   0.720 122.533  0.00  0.00    +0.000 A 
ENDROOT
BRANCH   4  12
ATOM     12  C   UNL     1      -8.058   3.314 121.879  0.00  0.00    +0.000 A 
ATOM     13  C   UNL     1      -8.866   3.674 120.801  0.00  0.00    +0.000 A 
ATOM     14  C   UNL     1      -8.287   4.194 119.637  0.00  0.00    +0.000 A 
ATOM     15  C   UNL     1      -6.897   4.221 119.494  0.00  0.00    +0.000 A 
ATOM     16  C   UNL     1      -6.084   3.780 120.522  0.00  0.00    +0.000 A 
ATOM     17  C   UNL     1      -6.660   3.370 121.720  0.00  0.00    +0.000 A 
ENDBRANCH   4  12
BRANCH   8  18
ATOM     18  N   UNL     1      -7.168  -1.597 124.890  0.00  0.00    +0.000 N 
ATOM     19  H   UNL     1      -6.804  -2.466 124.518  0.00  0.00    +0.000 HD
ATOM     20  H   UNL     1      -7.550  -1.694 125.823  0.00  0.00    +0.000 HD
ENDBRANCH   8  18
TORSDOF 2
ENDMDL
MODEL 3
REMARK VINA RESULT:      -6.5      2.084      5.123
REMARK  Name = Nomifensine
REMARK  3 active torsions:
REMARK  status: ('A' for Active; 'I' for Inactive)
REMARK    1  A    between atoms: C_1  and  N_2
REMARK    2  A    between atoms: C_4  and  C_5
REMARK    3  A    between atoms: C_14  and  N_15
REMARK                            x       y       z     vdW  Elec       q    Type
REMARK                         _______ _______ _______ _____ _____    ______ ____
ROOT
ATOM      1  C   UNL     1      -5.337  -3.166 123.624  0.00  0.00    +0.000 C 
ATOM      2  N   UNL     1      -6.417  -2.361 124.164  0.00  0.00    +0.000 NA
ATOM      3  C   UNL     1      -7.719  -3.036 124.135  0.00  0.00    +0.000 C 
ATOM      4  C   UNL     1      -8.745  -2.271 125.015  0.00  0.00    +0.000 C 
ATOM      5  C   UNL     1      -8.784  -0.795 124.646  0.00  0.00    +0.000 A 
ATOM      6  C   UNL     1      -7.682  -0.192 123.988  0.00  0.00    +0.000 A 
ATOM      7  C   UNL     1      -6.502  -1.038 123.535  0.00  0.00    +0.000 C 
ATOM      8  C   UNL     1      -7.700   1.195 123.736  0.00  0.00    +0.000 A 
ATOM      9  C   UNL     1      -8.826   1.937 124.123  0.00  0.00    +0.000 A 
ATOM     10  C   UNL     1      -9.904   1.340 124.781  0.00  0.00    +0.000 A 
ATOM     11  C   UNL     1      -9.887  -0.022 125.038  0.00  0.00    +0.000 A 
ENDROOT
BRANCH   4  12
ATOM     12  C   UNL     1      -8.449  -2.451 126.506  0.00  0.00    +0.000 A 
ATOM     13  C   UNL     1      -7.709  -1.505 127.216  0.00  0.00    +0.000 A 
ATOM     14  C   UNL     1      -7.565  -1.630 128.603  0.00  0.00    +0.000 A 
ATOM     15  C   UNL     1      -8.033  -2.771 129.260  0.00  0.00    +0.000 A 
ATOM     16  C   UNL     1      -8.688  -3.761 128.551  0.00  0.00    +0.000 A 
ATOM     17  C   UNL     1      -8.930  -3.582 127.192  0.00  0.00    +0.000 A 
ENDBRANCH   4  12
BRANCH   8  18
ATOM     18  N   UNL     1      -6.746   1.806 122.907  0.00  0.00    +0.000 N 
ATOM     19  H   UNL     1      -5.907   2.149 123.358  0.00  0.00    +0.000 HD
ATOM     20  H   UNL     1      -7.118   2.450 122.219  0.00  0.00    +0.000 HD
ENDBRANCH   8  18
TORSDOF 2
ENDMDL
MODEL 4
REMARK VINA RESULT:      -6.5      1.982      4.553
REMARK  Name = Nomifensine
REMARK  3 active torsions:
REMARK  status: ('A' for Active; 'I' for Inactive)
REMARK    1  A    between atoms: C_1  and  N_2
REMARK    2  A    between atoms: C_4  and  C_5
REMARK    3  A    between atoms: C_14  and  N_15
REMARK                            x       y       z     vdW  Elec       q    Type
REMARK                         _______ _______ _______ _____ _____    ______ ____
ROOT
ATOM      1  C   UNL     1      -5.640   1.560 126.452  0.00  0.00    +0.000 C 
ATOM      2  N   UNL     1      -6.272   0.285 126.168  0.00  0.00    +0.000 NA
ATOM      3  C   UNL     1      -5.323  -0.831 126.083  0.00  0.00    +0.000 C 
ATOM      4  C   UNL     1      -6.078  -2.188 126.112  0.00  0.00    +0.000 C 
ATOM      5  C   UNL     1      -7.189  -2.215 125.073  0.00  0.00    +0.000 A 
ATOM      6  C   UNL     1      -7.732  -1.004 124.573  0.00  0.00    +0.000 A 
ATOM      7  C   UNL     1      -7.129   0.333 124.979  0.00  0.00    +0.000 C 
ATOM      8  C   UNL     1      -8.821  -1.050 123.680  0.00  0.00    +0.000 A 
ATOM      9  C   UNL     1      -9.321  -2.301 123.288  0.00  0.00    +0.000 A 
ATOM     10  C   UNL     1      -8.790  -3.491 123.792  0.00  0.00    +0.000 A 
ATOM     11  C   UNL     1      -7.725  -3.450 124.678  0.00  0.00    +0.000 A 
ENDROOT
BRANCH   4  12
ATOM     12  C   UNL     1      -6.631  -2.490 127.507  0.00  0.00    +0.000 A 
ATOM     13  C   UNL     1      -7.978  -2.797 127.701  0.00  0.00    +0.000 A 
ATOM     14  C   UNL     1      -8.428  -3.196 128.965  0.00  0.00    +0.000 A 
ATOM     15  C   UNL     1      -7.568  -3.151 130.065  0.00  0.00    +0.000 A 
ATOM     16  C   UNL     1      -6.252  -2.759 129.903  0.00  0.00    +0.000 A 
ATOM     17  C   UNL     1      -5.777  -2.472 128.627  0.00  0.00    +0.000 A 
ENDBRANCH   4  12
BRANCH   8  18
ATOM     18  N   UNL     1      -9.259   0.093 122.991  0.00  0.00    +0.000 N 
ATOM     19  H   UNL     1      -9.536  -0.038 122.026  0.00  0.00    +0.000 HD
ATOM     20  H   UNL     1      -8.700   0.926 123.133  0.00  0.00    +0.000 HD
ENDBRANCH   8  18
TORSDOF 2
ENDMDL
MODEL 5
REMARK VINA RESULT:      -6.1      2.370      3.368
REMARK  Name = Nomifensine
REMARK  3 active torsions:
REMARK  status: ('A' for Active; 'I' for Inactive)
REMARK    1  A    between atoms: C_1  and  N_2
REMARK    2  A    between atoms: C_4  and  C_5
REMARK    3  A    between atoms: C_14  and  N_15
REMARK                            x       y       z     vdW  Elec       q    Type
REMARK                         _______ _______ _______ _____ _____    ______ ____
ROOT
ATOM      1  C   UNL     1      -5.650   1.352 127.811  0.00  0.00    +0.000 C 
ATOM      2  N   UNL     1      -5.902  -0.040 128.134  0.00  0.00    +0.000 NA
ATOM      3  C   UNL     1      -7.288  -0.304 128.536  0.00  0.00    +0.000 C 
ATOM      4  C   UNL     1      -7.568  -1.832 128.541  0.00  0.00    +0.000 C 
ATOM      5  C   UNL     1      -6.517  -2.575 129.352  0.00  0.00    +0.000 A 
ATOM      6  C   UNL     1      -5.245  -1.991 129.583  0.00  0.00    +0.000 A 
ATOM      7  C   UNL     1      -4.961  -0.567 129.128  0.00  0.00    +0.000 C 
ATOM      8  C   UNL     1      -4.255  -2.732 130.258  0.00  0.00    +0.000 A 
ATOM      9  C   UNL     1      -4.567  -4.024 130.707  0.00  0.00    +0.000 A 
ATOM     10  C   UNL     1      -5.817  -4.599 130.467  0.00  0.00    +0.000 A 
ATOM     11  C   UNL     1      -6.791  -3.877 129.796  0.00  0.00    +0.000 A 
ENDROOT
BRANCH   4  12
ATOM     12  C   UNL     1      -7.654  -2.390 127.118  0.00  0.00    +0.000 A 
ATOM     13  C   UNL     1      -8.840  -2.930 126.623  0.00  0.00    +0.000 A 
ATOM     14  C   UNL     1      -8.927  -3.312 125.279  0.00  0.00    +0.000 A 
ATOM     15  C   UNL     1      -7.790  -3.290 124.467  0.00  0.00    +0.000 A 
ATOM     16  C   UNL     1      -6.583  -2.843 124.973  0.00  0.00    +0.000 A 
ATOM     17  C   UNL     1      -6.526  -2.358 126.276  0.00  0.00    +0.000 A 
ENDBRANCH   4  12
BRANCH   8  18
ATOM     18  N   UNL     1      -3.063  -2.137 130.701  0.00  0.00    +0.000 N 
ATOM     19  H   UNL     1      -3.101  -1.148 130.913  0.00  0.00    +0.000 HD
ATOM     20  H   UNL     1      -2.229  -2.400 130.188  0.00  0.00    +0.000 HD
ENDBRANCH   8  18
TORSDOF 2
ENDMDL
MODEL 6
REMARK VINA RESULT:      -5.9      1.826      4.872
REMARK  Name = Nomifensine
REMARK  3 active torsions:
REMARK  status: ('A' for Active; 'I' for Inactive)
REMARK    1  A    between atoms: C_1  and  N_2
REMARK    2  A    between atoms: C_4  and  C_5
REMARK    3  A    between atoms: C_14  and  N_15
REMARK                            x       y       z     vdW  Elec       q    Type
REMARK                         _______ _______ _______ _____ _____    ______ ____
ROOT
ATOM      1  C   UNL     1      -8.635   1.944 129.374  0.00  0.00    +0.000 C 
ATOM      2  N   UNL     1      -8.216   1.148 128.235  0.00  0.00    +0.000 NA
ATOM      3  C   UNL     1      -6.875   0.571 128.388  0.00  0.00    +0.000 C 
ATOM      4  C   UNL     1      -6.628  -0.519 127.309  0.00  0.00    +0.000 C 
ATOM      5  C   UNL     1      -6.938   0.013 125.918  0.00  0.00    +0.000 A 
ATOM      6  C   UNL     1      -7.801   1.127 125.752  0.00  0.00    +0.000 A 
ATOM      7  C   UNL     1      -8.328   1.876 126.967  0.00  0.00    +0.000 C 
ATOM      8  C   UNL     1      -8.147   1.548 124.453  0.00  0.00    +0.000 A 
ATOM      9  C   UNL     1      -7.603   0.864 123.354  0.00  0.00    +0.000 A 
ATOM     10  C   UNL     1      -6.763  -0.238 123.522  0.00  0.00    +0.000 A 
ATOM     11  C   UNL     1      -6.427  -0.661 124.799  0.00  0.00    +0.000 A 
ENDROOT
BRANCH   4  12
ATOM     12  C   UNL     1      -7.436  -1.786 127.599  0.00  0.00    +0.000 A 
ATOM     13  C   UNL     1      -7.379  -2.410 128.846  0.00  0.00    +0.000 A 
ATOM     14  C   UNL     1      -8.226  -3.489 129.126  0.00  0.00    +0.000 A 
ATOM     15  C   UNL     1      -9.025  -4.036 128.118  0.00  0.00    +0.000 A 
ATOM     16  C   UNL     1      -9.020  -3.484 126.851  0.00  0.00    +0.000 A 
ATOM     17  C   UNL     1      -8.264  -2.342 126.606  0.00  0.00    +0.000 A 
ENDBRANCH   4  12
BRANCH   8  18
ATOM     18  N   UNL     1      -8.816   2.761 124.224  0.00  0.00    +0.000 N 
ATOM     19  H   UNL     1      -8.239   3.590 124.149  0.00  0.00    +0.000 HD
ATOM     20  H   UNL     1      -9.650   2.908 124.780  0.00  0.00    +0.000 HD
ENDBRANCH   8  18
TORSDOF 2
ENDMDL
MODEL 7
REMARK VINA RESULT:      -5.8      2.846      4.553
REMARK  Name = Nomifensine
REMARK  3 active torsions:
REMARK  status: ('A' for Active; 'I' for Inactive)
REMARK    1  A    between atoms: C_1  and  N_2
REMARK    2  A    between atoms: C_4  and  C_5
REMARK    3  A    between atoms: C_14  and  N_15
REMARK                            x       y       z     vdW  Elec       q    Type
REMARK                         _______ _______ _______ _____ _____    ______ ____
ROOT
ATOM      1  C   UNL     1      -7.601   1.086 130.364  0.00  0.00    +0.000 C 
ATOM      2  N   UNL     1      -7.162  -0.294 130.266  0.00  0.00    +0.000 NA
ATOM      3  C   UNL     1      -8.222  -1.264 130.560  0.00  0.00    +0.000 C 
ATOM      4  C   UNL     1      -7.789  -2.690 130.119  0.00  0.00    +0.000 C 
ATOM      5  C   UNL     1      -6.424  -3.044 130.690  0.00  0.00    +0.000 A 
ATOM      6  C   UNL     1      -5.528  -2.020 131.094  0.00  0.00    +0.000 A 
ATOM      7  C   UNL     1      -5.969  -0.564 131.075  0.00  0.00    +0.000 C 
ATOM      8  C   UNL     1      -4.235  -2.365 131.535  0.00  0.00    +0.000 A 
ATOM      9  C   UNL     1      -3.879  -3.722 131.587  0.00  0.00    +0.000 A 
ATOM     10  C   UNL     1      -4.760  -4.725 131.178  0.00  0.00    +0.000 A 
ATOM     11  C   UNL     1      -6.030  -4.389 130.735  0.00  0.00    +0.000 A 
ENDROOT
BRANCH   4  12
ATOM     12  C   UNL     1      -7.794  -2.829 128.595  0.00  0.00    +0.000 A 
ATOM     13  C   UNL     1      -8.792  -3.549 127.938  0.00  0.00    +0.000 A 
ATOM     14  C   UNL     1      -8.847  -3.550 126.539  0.00  0.00    +0.000 A 
ATOM     15  C   UNL     1      -7.825  -2.955 125.795  0.00  0.00    +0.000 A 
ATOM     16  C   UNL     1      -6.779  -2.317 126.436  0.00  0.00    +0.000 A 
ATOM     17  C   UNL     1      -6.786  -2.219 127.824  0.00  0.00    +0.000 A 
ENDBRANCH   4  12
BRANCH   8  18
ATOM     18  N   UNL     1      -3.388  -1.426 132.144  0.00  0.00    +0.000 N 
ATOM     19  H   UNL     1      -2.476  -1.757 132.432  0.00  0.00    +0.000 HD
ATOM     20  H   UNL     1      -3.828  -0.827 132.833  0.00  0.00    +0.000 HD
ENDBRANCH   8  18
TORSDOF 2
ENDMDL
MODEL 8
REMARK VINA RESULT:      -5.8      7.677     11.071
REMARK  Name = Nomifensine
REMARK  3 active torsions:
REMARK  status: ('A' for Active; 'I' for Inactive)
REMARK    1  A    between atoms: C_1  and  N_2
REMARK    2  A    between atoms: C_4  and  C_5
REMARK    3  A    between atoms: C_14  and  N_15
REMARK                            x       y       z     vdW  Elec       q    Type
REMARK                         _______ _______ _______ _____ _____    ______ ____
ROOT
ATOM      1  C   UNL     1      -5.680   4.850 133.403  0.00  0.00    +0.000 C 
ATOM      2  N   UNL     1      -4.780   5.218 132.325  0.00  0.00    +0.000 NA
ATOM      3  C   UNL     1      -5.039   6.556 131.781  0.00  0.00    +0.000 C 
ATOM      4  C   UNL     1      -3.856   7.012 130.883  0.00  0.00    +0.000 C 
ATOM      5  C   UNL     1      -3.523   5.954 129.842  0.00  0.00    +0.000 A 
ATOM      6  C   UNL     1      -3.898   4.602 130.050  0.00  0.00    +0.000 A 
ATOM      7  C   UNL     1      -4.744   4.217 131.255  0.00  0.00    +0.000 C 
ATOM      8  C   UNL     1      -3.501   3.622 129.119  0.00  0.00    +0.000 A 
ATOM      9  C   UNL     1      -2.764   4.019 127.993  0.00  0.00    +0.000 A 
ATOM     10  C   UNL     1      -2.387   5.350 127.799  0.00  0.00    +0.000 A 
ATOM     11  C   UNL     1      -2.768   6.316 128.717  0.00  0.00    +0.000 A 
ENDROOT
BRANCH   4  12
ATOM     12  C   UNL     1      -2.623   7.362 131.718  0.00  0.00    +0.000 A 
ATOM     13  C   UNL     1      -1.549   6.479 131.827  0.00  0.00    +0.000 A 
ATOM     14  C   UNL     1      -0.381   6.877 132.489  0.00  0.00    +0.000 A 
ATOM     15  C   UNL     1      -0.337   8.100 133.164  0.00  0.00    +0.000 A 
ATOM     16  C   UNL     1      -1.430   8.946 133.141  0.00  0.00    +0.000 A 
ATOM     17  C   UNL     1      -2.548   8.598 132.389  0.00  0.00    +0.000 A 
ENDBRANCH   4  12
BRANCH   8  18
ATOM     18  N   UNL     1      -4.018   2.317 129.155  0.00  0.00    +0.000 N 
ATOM     19  H   UNL     1      -5.026   2.227 129.105  0.00  0.00    +0.000 HD
ATOM     20  H   UNL     1      -3.599   1.703 129.844  0.00  0.00    +0.000 HD
ENDBRANCH   8  18
TORSDOF 2
ENDMDL
MODEL 9
REMARK VINA RESULT:      -5.8      7.085      9.488
REMARK  Name = Nomifensine
REMARK  3 active torsions:
REMARK  status: ('A' for Active; 'I' for Inactive)
REMARK    1  A    between atoms: C_1  and  N_2
REMARK    2  A    between atoms: C_4  and  C_5
REMARK    3  A    between atoms: C_14  and  N_15
REMARK                            x       y       z     vdW  Elec       q    Type
REMARK                         _______ _______ _______ _____ _____    ______ ____
ROOT
ATOM      1  C   UNL     1      -6.392   5.278 135.609  0.00  0.00    +0.000 C 
ATOM      2  N   UNL     1      -7.178   4.582 134.607  0.00  0.00    +0.000 NA
ATOM      3  C   UNL     1      -8.625   4.663 134.840  0.00  0.00    +0.000 C 
ATOM      4  C   UNL     1      -9.404   4.197 133.580  0.00  0.00    +0.000 C 
ATOM      5  C   UNL     1      -8.910   2.839 133.106  0.00  0.00    +0.000 A 
ATOM      6  C   UNL     1      -7.616   2.382 133.465  0.00  0.00    +0.000 A 
ATOM      7  C   UNL     1      -6.756   3.190 134.427  0.00  0.00    +0.000 C 
ATOM      8  C   UNL     1      -7.142   1.162 132.942  0.00  0.00    +0.000 A 
ATOM      9  C   UNL     1      -7.980   0.419 132.097  0.00  0.00    +0.000 A 
ATOM     10  C   UNL     1      -9.248   0.878 131.737  0.00  0.00    +0.000 A 
ATOM     11  C   UNL     1      -9.715   2.082 132.243  0.00  0.00    +0.000 A 
ENDROOT
BRANCH   4  12
ATOM     12  C   UNL     1      -9.316   5.232 132.455  0.00  0.00    +0.000 A 
ATOM     13  C   UNL     1     -10.457   5.664 131.779  0.00  0.00    +0.000 A 
ATOM     14  C   UNL     1     -10.365   6.704 130.846  0.00  0.00    +0.000 A 
ATOM     15  C   UNL     1      -9.116   7.214 130.483  0.00  0.00    +0.000 A 
ATOM     16  C   UNL     1      -7.966   6.729 131.080  0.00  0.00    +0.000 A 
ATOM     17  C   UNL     1      -8.070   5.775 132.087  0.00  0.00    +0.000 A 
ENDBRANCH   4  12
BRANCH   8  18
ATOM     18  N   UNL     1      -5.970   0.559 133.424  0.00  0.00    +0.000 N 
ATOM     19  H   UNL     1      -6.072  -0.060 134.219  0.00  0.00    +0.000 HD
ATOM     20  H   UNL     1      -5.165   1.171 133.500  0.00  0.00    +0.000 HD
ENDBRANCH   8  18
TORSDOF 2
ENDMDL
