MODEL 1
REMARK VINA RESULT:      -5.3      0.000      0.000
REMARK  Name = Nonoxynol-9
REMARK  37 active torsions:
REMARK  status: ('A' for Active; 'I' for Inactive)
REMARK    1  A    between atoms: C_1  and  C_2
REMARK    2  A    between atoms: C_2  and  C_3
REMARK    3  A    between atoms: C_3  and  C_4
REMARK    4  A    between atoms: C_4  and  C_5
REMARK    5  A    between atoms: C_5  and  C_6
REMARK    6  A    between atoms: C_6  and  C_7
REMARK    7  A    between atoms: C_7  and  C_8
REMARK    8  A    between atoms: C_8  and  C_9
REMARK    9  A    between atoms: C_9  and  C_10
REMARK   10  A    between atoms: C_13  and  O_14
REMARK   11  A    between atoms: O_14  and  C_15
REMARK   12  A    between atoms: C_15  and  C_16
REMARK   13  A    between atoms: C_16  and  O_17
REMARK   14  A    between atoms: O_17  and  C_18
REMARK   15  A    between atoms: C_18  and  C_19
REMARK   16  A    between atoms: C_19  and  O_20
REMARK   17  A    between atoms: O_20  and  C_21
REMARK   18  A    between atoms: C_21  and  C_22
REMARK   19  A    between atoms: C_22  and  O_23
REMARK   20  A    between atoms: O_23  and  C_24
REMARK   21  A    between atoms: C_24  and  C_25
REMARK   22  A    between atoms: C_25  and  O_26
REMARK   23  A    between atoms: O_26  and  C_27
REMARK   24  A    between atoms: C_27  and  C_28
REMARK   25  A    between atoms: C_28  and  O_29
REMARK   26  A    between atoms: O_29  and  C_30
REMARK   27  A    between atoms: C_30  and  C_31
REMARK   28  A    between atoms: C_31  and  O_32
REMARK   29  A    between atoms: O_32  and  C_33
REMARK   30  A    between atoms: C_33  and  C_34
REMARK   31  A    between atoms: C_34  and  O_35
REMARK   32  A    between atoms: O_35  and  C_36
REMARK   33  A    between atoms: C_36  and  C_37
REMARK   34  A    between atoms: C_37  and  O_38
REMARK   35  A    between atoms: O_38  and  C_39
REMARK   36  A    between atoms: C_39  and  C_40
REMARK   37  A    between atoms: C_40  and  O_41
REMARK                            x       y       z     vdW  Elec       q    Type
REMARK                         _______ _______ _______ _____ _____    ______ ____
ROOT
ATOM      1  O   UNL     1      -6.645   3.962 134.010  0.00  0.00    +0.000 OA
ENDROOT
BRANCH   1   2
ATOM      2  C   UNL     1      -7.595   3.230 133.240  0.00  0.00    +0.000 C 
BRANCH   2   3
ATOM      3  C   UNL     1      -7.187   1.767 133.212  0.00  0.00    +0.000 C 
BRANCH   3   4
ATOM      4  O   UNL     1      -7.254   1.284 131.873  0.00  0.00    +0.000 OA
BRANCH   4   5
ATOM      5  C   UNL     1      -7.764  -0.047 131.842  0.00  0.00    +0.000 C 
BRANCH   5   6
ATOM      6  C   UNL     1      -7.955  -0.478 130.398  0.00  0.00    +0.000 C 
BRANCH   6   7
ATOM      7  O   UNL     1      -7.870  -1.900 130.331  0.00  0.00    +0.000 OA
BRANCH   7  11
ATOM      8  C   UNL     1      -8.273  -3.365 126.450  0.00  0.00    +0.000 A 
ATOM      9  C   UNL     1      -7.507  -2.226 126.740  0.00  0.00    +0.000 A 
ATOM     10  C   UNL     1      -7.374  -1.788 128.056  0.00  0.00    +0.000 A 
ATOM     11  C   UNL     1      -8.036  -2.446 129.088  0.00  0.00    +0.000 A 
ATOM     12  C   UNL     1      -8.804  -3.578 128.802  0.00  0.00    +0.000 A 
ATOM     13  C   UNL     1      -8.918  -4.034 127.490  0.00  0.00    +0.000 A 
BRANCH   8  14
ATOM     14  C   UNL     1      -8.352  -3.917 125.054  0.00  0.00    +0.000 C 
BRANCH  14  15
ATOM     15  C   UNL     1      -9.384  -3.193 124.205  0.00  0.00    +0.000 C 
BRANCH  15  16
ATOM     16  C   UNL     1      -8.704  -2.452 123.069  0.00  0.00    +0.000 C 
BRANCH  16  17
ATOM     17  C   UNL     1      -8.436  -1.019 123.493  0.00  0.00    +0.000 C 
BRANCH  17  18
ATOM     18  C   UNL     1      -6.974  -0.678 123.279  0.00  0.00    +0.000 C 
BRANCH  18  19
ATOM     19  C   UNL     1      -6.225  -1.900 122.775  0.00  0.00    +0.000 C 
BRANCH  19  20
ATOM     20  C   UNL     1      -5.217  -2.360 123.816  0.00  0.00    +0.000 C 
BRANCH  20  22
ATOM     21  C   UNL     1      -4.720  -4.805 123.885  0.00  0.00    +0.000 C 
ATOM     22  C   UNL     1      -4.344  -3.476 123.260  0.00  0.00    +0.000 C 
ENDBRANCH  20  22
ENDBRANCH  19  20
ENDBRANCH  18  19
ENDBRANCH  17  18
ENDBRANCH  16  17
ENDBRANCH  15  16
ENDBRANCH  14  15
ENDBRANCH   8  14
ENDBRANCH   7  11
ENDBRANCH   6   7
ENDBRANCH   5   6
ENDBRANCH   4   5
ENDBRANCH   3   4
ENDBRANCH   2   3
ENDBRANCH   1   2
BRANCH   1  23
ATOM     23  C   UNL     1      -6.919   5.358 133.955  0.00  0.00    +0.000 C 
BRANCH  23  24
ATOM     24  C   UNL     1      -8.423   5.567 133.965  0.00  0.00    +0.000 C 
BRANCH  24  25
ATOM     25  O   UNL     1      -8.803   6.246 132.772  0.00  0.00    +0.000 OA
BRANCH  25  26
ATOM     26  C   UNL     1     -10.187   6.050 132.503  0.00  0.00    +0.000 C 
BRANCH  26  27
ATOM     27  C   UNL     1     -10.390   5.986 131.000  0.00  0.00    +0.000 C 
BRANCH  27  28
ATOM     28  O   UNL     1      -9.117   5.960 130.364  0.00  0.00    +0.000 OA
BRANCH  28  29
ATOM     29  C   UNL     1      -9.118   5.044 129.274  0.00  0.00    +0.000 C 
BRANCH  29  30
ATOM     30  C   UNL     1      -8.797   3.658 129.799  0.00  0.00    +0.000 C 
BRANCH  30  31
ATOM     31  O   UNL     1      -7.565   3.226 129.230  0.00  0.00    +0.000 OA
BRANCH  31  32
ATOM     32  C   UNL     1      -7.667   3.151 127.813  0.00  0.00    +0.000 C 
BRANCH  32  33
ATOM     33  C   UNL     1      -6.276   2.983 127.230  0.00  0.00    +0.000 C 
BRANCH  33  34
ATOM     34  O   UNL     1      -5.317   3.171 128.265  0.00  0.00    +0.000 OA
BRANCH  34  35
ATOM     35  C   UNL     1      -4.083   2.548 127.924  0.00  0.00    +0.000 C 
BRANCH  35  36
ATOM     36  C   UNL     1      -3.024   3.621 127.752  0.00  0.00    +0.000 C 
BRANCH  36  37
ATOM     37  O   UNL     1      -3.566   4.874 128.157  0.00  0.00    +0.000 OA
BRANCH  37  38
ATOM     38  C   UNL     1      -2.619   5.918 127.959  0.00  0.00    +0.000 C 
BRANCH  38  39
ATOM     39  C   UNL     1      -3.182   7.208 128.526  0.00  0.00    +0.000 C 
BRANCH  39  40
ATOM     40  O   UNL     1      -4.453   6.944 129.117  0.00  0.00    +0.000 OA
BRANCH  40  41
ATOM     41  C   UNL     1      -4.514   7.477 130.435  0.00  0.00    +0.000 C 
BRANCH  41  42
ATOM     42  C   UNL     1      -5.770   6.977 131.135  0.00  0.00    +0.000 C 
BRANCH  42  43
ATOM     43  O   UNL     1      -6.931   7.548 130.545  0.00  0.00    +0.000 OA
ATOM     44  H   UNL     1      -7.690   7.002 130.811  0.00  0.00    +0.000 HD
ENDBRANCH  42  43
ENDBRANCH  41  42
ENDBRANCH  40  41
ENDBRANCH  39  40
ENDBRANCH  38  39
ENDBRANCH  37  38
ENDBRANCH  36  37
ENDBRANCH  35  36
ENDBRANCH  34  35
ENDBRANCH  33  34
ENDBRANCH  32  33
ENDBRANCH  31  32
ENDBRANCH  30  31
ENDBRANCH  29  30
ENDBRANCH  28  29
ENDBRANCH  27  28
ENDBRANCH  26  27
ENDBRANCH  25  26
ENDBRANCH  24  25
ENDBRANCH  23  24
ENDBRANCH   1  23
TORSDOF 36
ENDMDL
MODEL 2
REMARK VINA RESULT:      -5.3      1.982      4.024
REMARK  Name = Nonoxynol-9
REMARK  37 active torsions:
REMARK  status: ('A' for Active; 'I' for Inactive)
REMARK    1  A    between atoms: C_1  and  C_2
REMARK    2  A    between atoms: C_2  and  C_3
REMARK    3  A    between atoms: C_3  and  C_4
REMARK    4  A    between atoms: C_4  and  C_5
REMARK    5  A    between atoms: C_5  and  C_6
REMARK    6  A    between atoms: C_6  and  C_7
REMARK    7  A    between atoms: C_7  and  C_8
REMARK    8  A    between atoms: C_8  and  C_9
REMARK    9  A    between atoms: C_9  and  C_10
REMARK   10  A    between atoms: C_13  and  O_14
REMARK   11  A    between atoms: O_14  and  C_15
REMARK   12  A    between atoms: C_15  and  C_16
REMARK   13  A    between atoms: C_16  and  O_17
REMARK   14  A    between atoms: O_17  and  C_18
REMARK   15  A    between atoms: C_18  and  C_19
REMARK   16  A    between atoms: C_19  and  O_20
REMARK   17  A    between atoms: O_20  and  C_21
REMARK   18  A    between atoms: C_21  and  C_22
REMARK   19  A    between atoms: C_22  and  O_23
REMARK   20  A    between atoms: O_23  and  C_24
REMARK   21  A    between atoms: C_24  and  C_25
REMARK   22  A    between atoms: C_25  and  O_26
REMARK   23  A    between atoms: O_26  and  C_27
REMARK   24  A    between atoms: C_27  and  C_28
REMARK   25  A    between atoms: C_28  and  O_29
REMARK   26  A    between atoms: O_29  and  C_30
REMARK   27  A    between atoms: C_30  and  C_31
REMARK   28  A    between atoms: C_31  and  O_32
REMARK   29  A    between atoms: O_32  and  C_33
REMARK   30  A    between atoms: C_33  and  C_34
REMARK   31  A    between atoms: C_34  and  O_35
REMARK   32  A    between atoms: O_35  and  C_36
REMARK   33  A    between atoms: C_36  and  C_37
REMARK   34  A    between atoms: C_37  and  O_38
REMARK   35  A    between atoms: O_38  and  C_39
REMARK   36  A    between atoms: C_39  and  C_40
REMARK   37  A    between atoms: C_40  and  O_41
REMARK                            x       y       z     vdW  Elec       q    Type
REMARK                         _______ _______ _______ _____ _____    ______ ____
ROOT
ATOM      1  O   UNL     1      -7.426  -0.992 133.554  0.00  0.00    +0.000 OA
ENDROOT
BRANCH   1   2
ATOM      2  C   UNL     1      -6.022  -1.154 133.373  0.00  0.00    +0.000 C 
BRANCH   2   3
ATOM      3  C   UNL     1      -5.662  -2.615 133.584  0.00  0.00    +0.000 C 
BRANCH   3   4
ATOM      4  O   UNL     1      -6.105  -3.377 132.464  0.00  0.00    +0.000 OA
BRANCH   4   5
ATOM      5  C   UNL     1      -5.024  -4.116 131.898  0.00  0.00    +0.000 C 
BRANCH   5   6
ATOM      6  C   UNL     1      -5.137  -4.088 130.384  0.00  0.00    +0.000 C 
BRANCH   6   7
ATOM      7  O   UNL     1      -5.731  -2.853 129.992  0.00  0.00    +0.000 OA
BRANCH   7  11
ATOM      8  C   UNL     1      -8.510  -2.939 126.887  0.00  0.00    +0.000 A 
ATOM      9  C   UNL     1      -7.280  -2.276 126.767  0.00  0.00    +0.000 A 
ATOM     10  C   UNL     1      -6.366  -2.297 127.819  0.00  0.00    +0.000 A 
ATOM     11  C   UNL     1      -6.683  -2.936 129.014  0.00  0.00    +0.000 A 
ATOM     12  C   UNL     1      -7.911  -3.594 129.139  0.00  0.00    +0.000 A 
ATOM     13  C   UNL     1      -8.815  -3.595 128.079  0.00  0.00    +0.000 A 
BRANCH   8  14
ATOM     14  C   UNL     1      -9.471  -3.015 125.734  0.00  0.00    +0.000 C 
BRANCH  14  15
ATOM     15  C   UNL     1      -8.805  -3.499 124.458  0.00  0.00    +0.000 C 
BRANCH  15  16
ATOM     16  C   UNL     1      -9.237  -2.644 123.281  0.00  0.00    +0.000 C 
BRANCH  16  17
ATOM     17  C   UNL     1      -8.053  -1.832 122.787  0.00  0.00    +0.000 C 
BRANCH  17  18
ATOM     18  C   UNL     1      -8.069  -0.452 123.414  0.00  0.00    +0.000 C 
BRANCH  18  19
ATOM     19  C   UNL     1      -9.400   0.226 123.140  0.00  0.00    +0.000 C 
BRANCH  19  20
ATOM     20  C   UNL     1      -9.715   1.221 124.245  0.00  0.00    +0.000 C 
BRANCH  20  22
ATOM     21  C   UNL     1      -8.756   1.110 126.547  0.00  0.00    +0.000 C 
ATOM     22  C   UNL     1      -9.778   0.520 125.595  0.00  0.00    +0.000 C 
ENDBRANCH  20  22
ENDBRANCH  19  20
ENDBRANCH  18  19
ENDBRANCH  17  18
ENDBRANCH  16  17
ENDBRANCH  15  16
ENDBRANCH  14  15
ENDBRANCH   8  14
ENDBRANCH   7  11
ENDBRANCH   6   7
ENDBRANCH   5   6
ENDBRANCH   4   5
ENDBRANCH   3   4
ENDBRANCH   2   3
ENDBRANCH   1   2
BRANCH   1  23
ATOM     23  C   UNL     1      -8.059  -0.668 132.321  0.00  0.00    +0.000 C 
BRANCH  23  24
ATOM     24  C   UNL     1      -7.867   0.811 132.040  0.00  0.00    +0.000 C 
BRANCH  24  25
ATOM     25  O   UNL     1      -8.000   1.534 133.261  0.00  0.00    +0.000 OA
BRANCH  25  26
ATOM     26  C   UNL     1      -9.002   2.538 133.142  0.00  0.00    +0.000 C 
BRANCH  26  27
ATOM     27  C   UNL     1      -9.517   2.551 131.714  0.00  0.00    +0.000 C 
BRANCH  27  28
ATOM     28  O   UNL     1      -9.941   3.871 131.390  0.00  0.00    +0.000 OA
BRANCH  28  29
ATOM     29  C   UNL     1      -9.697   4.152 130.016  0.00  0.00    +0.000 C 
BRANCH  29  30
ATOM     30  C   UNL     1     -10.010   5.612 129.752  0.00  0.00    +0.000 C 
BRANCH  30  31
ATOM     31  O   UNL     1      -8.787   6.324 129.592  0.00  0.00    +0.000 OA
BRANCH  31  32
ATOM     32  C   UNL     1      -8.493   7.083 130.758  0.00  0.00    +0.000 C 
BRANCH  32  33
ATOM     33  C   UNL     1      -7.062   6.802 131.178  0.00  0.00    +0.000 C 
BRANCH  33  34
ATOM     34  O   UNL     1      -6.188   7.627 130.415  0.00  0.00    +0.000 OA
BRANCH  34  35
ATOM     35  C   UNL     1      -4.829   7.281 130.663  0.00  0.00    +0.000 C 
BRANCH  35  36
ATOM     36  C   UNL     1      -4.036   7.469 129.383  0.00  0.00    +0.000 C 
BRANCH  36  37
ATOM     37  O   UNL     1      -4.282   6.364 128.520  0.00  0.00    +0.000 OA
BRANCH  37  38
ATOM     38  C   UNL     1      -3.929   5.140 129.157  0.00  0.00    +0.000 C 
BRANCH  38  39
ATOM     39  C   UNL     1      -4.993   4.102 128.852  0.00  0.00    +0.000 C 
BRANCH  39  40
ATOM     40  O   UNL     1      -6.190   4.763 128.447  0.00  0.00    +0.000 OA
BRANCH  40  41
ATOM     41  C   UNL     1      -6.802   4.074 127.363  0.00  0.00    +0.000 C 
BRANCH  41  42
ATOM     42  C   UNL     1      -5.993   4.292 126.092  0.00  0.00    +0.000 C 
BRANCH  42  43
ATOM     43  O   UNL     1      -5.776   5.680 125.870  0.00  0.00    +0.000 OA
ATOM     44  H   UNL     1      -6.631   6.072 125.624  0.00  0.00    +0.000 HD
ENDBRANCH  42  43
ENDBRANCH  41  42
ENDBRANCH  40  41
ENDBRANCH  39  40
ENDBRANCH  38  39
ENDBRANCH  37  38
ENDBRANCH  36  37
ENDBRANCH  35  36
ENDBRANCH  34  35
ENDBRANCH  33  34
ENDBRANCH  32  33
ENDBRANCH  31  32
ENDBRANCH  30  31
ENDBRANCH  29  30
ENDBRANCH  28  29
ENDBRANCH  27  28
ENDBRANCH  26  27
ENDBRANCH  25  26
ENDBRANCH  24  25
ENDBRANCH  23  24
ENDBRANCH   1  23
TORSDOF 36
ENDMDL
MODEL 3
REMARK VINA RESULT:      -5.3      2.915      7.177
REMARK  Name = Nonoxynol-9
REMARK  37 active torsions:
REMARK  status: ('A' for Active; 'I' for Inactive)
REMARK    1  A    between atoms: C_1  and  C_2
REMARK    2  A    between atoms: C_2  and  C_3
REMARK    3  A    between atoms: C_3  and  C_4
REMARK    4  A    between atoms: C_4  and  C_5
REMARK    5  A    between atoms: C_5  and  C_6
REMARK    6  A    between atoms: C_6  and  C_7
REMARK    7  A    between atoms: C_7  and  C_8
REMARK    8  A    between atoms: C_8  and  C_9
REMARK    9  A    between atoms: C_9  and  C_10
REMARK   10  A    between atoms: C_13  and  O_14
REMARK   11  A    between atoms: O_14  and  C_15
REMARK   12  A    between atoms: C_15  and  C_16
REMARK   13  A    between atoms: C_16  and  O_17
REMARK   14  A    between atoms: O_17  and  C_18
REMARK   15  A    between atoms: C_18  and  C_19
REMARK   16  A    between atoms: C_19  and  O_20
REMARK   17  A    between atoms: O_20  and  C_21
REMARK   18  A    between atoms: C_21  and  C_22
REMARK   19  A    between atoms: C_22  and  O_23
REMARK   20  A    between atoms: O_23  and  C_24
REMARK   21  A    between atoms: C_24  and  C_25
REMARK   22  A    between atoms: C_25  and  O_26
REMARK   23  A    between atoms: O_26  and  C_27
REMARK   24  A    between atoms: C_27  and  C_28
REMARK   25  A    between atoms: C_28  and  O_29
REMARK   26  A    between atoms: O_29  and  C_30
REMARK   27  A    between atoms: C_30  and  C_31
REMARK   28  A    between atoms: C_31  and  O_32
REMARK   29  A    between atoms: O_32  and  C_33
REMARK   30  A    between atoms: C_33  and  C_34
REMARK   31  A    between atoms: C_34  and  O_35
REMARK   32  A    between atoms: O_35  and  C_36
REMARK   33  A    between atoms: C_36  and  C_37
REMARK   34  A    between atoms: C_37  and  O_38
REMARK   35  A    between atoms: O_38  and  C_39
REMARK   36  A    between atoms: C_39  and  C_40
REMARK   37  A    between atoms: C_40  and  O_41
REMARK                            x       y       z     vdW  Elec       q    Type
REMARK                         _______ _______ _______ _____ _____    ______ ____
ROOT
ATOM      1  O   UNL     1      -8.992   2.522 122.275  0.00  0.00    +0.000 OA
ENDROOT
BRANCH   1   2
ATOM      2  C   UNL     1      -9.695   1.572 123.072  0.00  0.00    +0.000 C 
BRANCH   2   3
ATOM      3  C   UNL     1     -10.141   0.419 122.188  0.00  0.00    +0.000 C 
BRANCH   3   4
ATOM      4  O   UNL     1     -10.145  -0.785 122.949  0.00  0.00    +0.000 OA
BRANCH   4   5
ATOM      5  C   UNL     1      -8.864  -1.409 122.912  0.00  0.00    +0.000 C 
BRANCH   5   6
ATOM      6  C   UNL     1      -8.916  -2.708 123.697  0.00  0.00    +0.000 C 
BRANCH   6   7
ATOM      7  O   UNL     1      -7.627  -2.957 124.254  0.00  0.00    +0.000 OA
BRANCH   7  11
ATOM      8  C   UNL     1      -7.648  -2.957 128.422  0.00  0.00    +0.000 A 
ATOM      9  C   UNL     1      -8.717  -3.468 127.672  0.00  0.00    +0.000 A 
ATOM     10  C   UNL     1      -8.657  -3.476 126.280  0.00  0.00    +0.000 A 
ATOM     11  C   UNL     1      -7.557  -2.937 125.620  0.00  0.00    +0.000 A 
ATOM     12  C   UNL     1      -6.491  -2.422 126.364  0.00  0.00    +0.000 A 
ATOM     13  C   UNL     1      -6.539  -2.436 127.757  0.00  0.00    +0.000 A 
BRANCH   8  14
ATOM     14  C   UNL     1      -7.644  -3.026 129.923  0.00  0.00    +0.000 C 
BRANCH  14  15
ATOM     15  C   UNL     1      -7.082  -1.765 130.558  0.00  0.00    +0.000 C 
BRANCH  15  16
ATOM     16  C   UNL     1      -8.006  -1.271 131.655  0.00  0.00    +0.000 C 
BRANCH  16  17
ATOM     17  C   UNL     1      -8.740  -0.032 131.176  0.00  0.00    +0.000 C 
BRANCH  17  18
ATOM     18  C   UNL     1      -8.008   0.585 130.000  0.00  0.00    +0.000 C 
BRANCH  18  19
ATOM     19  C   UNL     1      -8.737   1.833 129.532  0.00  0.00    +0.000 C 
BRANCH  19  20
ATOM     20  C   UNL     1      -8.396   2.121 128.079  0.00  0.00    +0.000 C 
BRANCH  20  22
ATOM     21  C   UNL     1      -9.043   0.328 126.468  0.00  0.00    +0.000 C 
ATOM     22  C   UNL     1      -7.944   0.851 127.372  0.00  0.00    +0.000 C 
ENDBRANCH  20  22
ENDBRANCH  19  20
ENDBRANCH  18  19
ENDBRANCH  17  18
ENDBRANCH  16  17
ENDBRANCH  15  16
ENDBRANCH  14  15
ENDBRANCH   8  14
ENDBRANCH   7  11
ENDBRANCH   6   7
ENDBRANCH   5   6
ENDBRANCH   4   5
ENDBRANCH   3   4
ENDBRANCH   2   3
ENDBRANCH   1   2
BRANCH   1  23
ATOM     23  C   UNL     1      -7.915   3.097 123.009  0.00  0.00    +0.000 C 
BRANCH  23  24
ATOM     24  C   UNL     1      -8.375   3.367 124.430  0.00  0.00    +0.000 C 
BRANCH  24  25
ATOM     25  O   UNL     1      -7.366   4.109 125.108  0.00  0.00    +0.000 OA
BRANCH  25  26
ATOM     26  C   UNL     1      -6.215   3.302 125.333  0.00  0.00    +0.000 C 
BRANCH  26  27
ATOM     27  C   UNL     1      -4.975   4.163 125.184  0.00  0.00    +0.000 C 
BRANCH  27  28
ATOM     28  O   UNL     1      -4.831   4.968 126.349  0.00  0.00    +0.000 OA
BRANCH  28  29
ATOM     29  C   UNL     1      -3.727   4.526 127.132  0.00  0.00    +0.000 C 
BRANCH  29  30
ATOM     30  C   UNL     1      -3.960   4.925 128.577  0.00  0.00    +0.000 C 
BRANCH  30  31
ATOM     31  O   UNL     1      -4.078   3.747 129.366  0.00  0.00    +0.000 OA
BRANCH  31  32
ATOM     32  C   UNL     1      -5.434   3.523 129.733  0.00  0.00    +0.000 C 
BRANCH  32  33
ATOM     33  C   UNL     1      -5.555   3.615 131.242  0.00  0.00    +0.000 C 
BRANCH  33  34
ATOM     34  O   UNL     1      -6.873   4.039 131.574  0.00  0.00    +0.000 OA
BRANCH  34  35
ATOM     35  C   UNL     1      -7.161   5.297 130.974  0.00  0.00    +0.000 C 
BRANCH  35  36
ATOM     36  C   UNL     1      -8.621   5.320 130.561  0.00  0.00    +0.000 C 
BRANCH  36  37
ATOM     37  O   UNL     1      -8.756   6.113 129.386  0.00  0.00    +0.000 OA
BRANCH  37  38
ATOM     38  C   UNL     1      -9.963   6.868 129.426  0.00  0.00    +0.000 C 
BRANCH  38  39
ATOM     39  C   UNL     1     -11.047   6.028 130.075  0.00  0.00    +0.000 C 
BRANCH  39  40
ATOM     40  O   UNL     1     -12.074   5.770 129.121  0.00  0.00    +0.000 OA
BRANCH  40  41
ATOM     41  C   UNL     1     -12.786   6.963 128.814  0.00  0.00    +0.000 C 
BRANCH  41  42
ATOM     42  C   UNL     1     -13.243   6.931 127.362  0.00  0.00    +0.000 C 
BRANCH  42  43
ATOM     43  O   UNL     1     -12.163   6.579 126.506  0.00  0.00    +0.000 OA
ATOM     44  H   UNL     1     -12.546   6.278 125.665  0.00  0.00    +0.000 HD
ENDBRANCH  42  43
ENDBRANCH  41  42
ENDBRANCH  40  41
ENDBRANCH  39  40
ENDBRANCH  38  39
ENDBRANCH  37  38
ENDBRANCH  36  37
ENDBRANCH  35  36
ENDBRANCH  34  35
ENDBRANCH  33  34
ENDBRANCH  32  33
ENDBRANCH  31  32
ENDBRANCH  30  31
ENDBRANCH  29  30
ENDBRANCH  28  29
ENDBRANCH  27  28
ENDBRANCH  26  27
ENDBRANCH  25  26
ENDBRANCH  24  25
ENDBRANCH  23  24
ENDBRANCH   1  23
TORSDOF 36
ENDMDL
MODEL 4
REMARK VINA RESULT:      -5.2      1.712      3.412
REMARK  Name = Nonoxynol-9
REMARK  37 active torsions:
REMARK  status: ('A' for Active; 'I' for Inactive)
REMARK    1  A    between atoms: C_1  and  C_2
REMARK    2  A    between atoms: C_2  and  C_3
REMARK    3  A    between atoms: C_3  and  C_4
REMARK    4  A    between atoms: C_4  and  C_5
REMARK    5  A    between atoms: C_5  and  C_6
REMARK    6  A    between atoms: C_6  and  C_7
REMARK    7  A    between atoms: C_7  and  C_8
REMARK    8  A    between atoms: C_8  and  C_9
REMARK    9  A    between atoms: C_9  and  C_10
REMARK   10  A    between atoms: C_13  and  O_14
REMARK   11  A    between atoms: O_14  and  C_15
REMARK   12  A    between atoms: C_15  and  C_16
REMARK   13  A    between atoms: C_16  and  O_17
REMARK   14  A    between atoms: O_17  and  C_18
REMARK   15  A    between atoms: C_18  and  C_19
REMARK   16  A    between atoms: C_19  and  O_20
REMARK   17  A    between atoms: O_20  and  C_21
REMARK   18  A    between atoms: C_21  and  C_22
REMARK   19  A    between atoms: C_22  and  O_23
REMARK   20  A    between atoms: O_23  and  C_24
REMARK   21  A    between atoms: C_24  and  C_25
REMARK   22  A    between atoms: C_25  and  O_26
REMARK   23  A    between atoms: O_26  and  C_27
REMARK   24  A    between atoms: C_27  and  C_28
REMARK   25  A    between atoms: C_28  and  O_29
REMARK   26  A    between atoms: O_29  and  C_30
REMARK   27  A    between atoms: C_30  and  C_31
REMARK   28  A    between atoms: C_31  and  O_32
REMARK   29  A    between atoms: O_32  and  C_33
REMARK   30  A    between atoms: C_33  and  C_34
REMARK   31  A    between atoms: C_34  and  O_35
REMARK   32  A    between atoms: O_35  and  C_36
REMARK   33  A    between atoms: C_36  and  C_37
REMARK   34  A    between atoms: C_37  and  O_38
REMARK   35  A    between atoms: O_38  and  C_39
REMARK   36  A    between atoms: C_39  and  C_40
REMARK   37  A    between atoms: C_40  and  O_41
REMARK                            x       y       z     vdW  Elec       q    Type
REMARK                         _______ _______ _______ _____ _____    ______ ____
ROOT
ATOM      1  O   UNL     1      -7.329  -0.414 133.466  0.00  0.00    +0.000 OA
ENDROOT
BRANCH   1   2
ATOM      2  C   UNL     1      -5.958  -0.798 133.415  0.00  0.00    +0.000 C 
BRANCH   2   3
ATOM      3  C   UNL     1      -5.827  -2.230 133.908  0.00  0.00    +0.000 C 
BRANCH   3   4
ATOM      4  O   UNL     1      -5.861  -3.118 132.794  0.00  0.00    +0.000 OA
BRANCH   4   5
ATOM      5  C   UNL     1      -4.684  -2.978 132.002  0.00  0.00    +0.000 C 
BRANCH   5   6
ATOM      6  C   UNL     1      -5.053  -3.080 130.532  0.00  0.00    +0.000 C 
BRANCH   6   7
ATOM      7  O   UNL     1      -6.398  -3.540 130.429  0.00  0.00    +0.000 OA
BRANCH   7  11
ATOM      8  C   UNL     1      -8.518  -2.771 126.924  0.00  0.00    +0.000 A 
ATOM      9  C   UNL     1      -8.952  -3.718 127.864  0.00  0.00    +0.000 A 
ATOM     10  C   UNL     1      -8.229  -3.922 129.038  0.00  0.00    +0.000 A 
ATOM     11  C   UNL     1      -7.047  -3.224 129.267  0.00  0.00    +0.000 A 
ATOM     12  C   UNL     1      -6.609  -2.284 128.330  0.00  0.00    +0.000 A 
ATOM     13  C   UNL     1      -7.343  -2.060 127.167  0.00  0.00    +0.000 A 
BRANCH   8  14
ATOM     14  C   UNL     1      -9.329  -2.461 125.698  0.00  0.00    +0.000 C 
BRANCH  14  15
ATOM     15  C   UNL     1      -9.162  -3.511 124.612  0.00  0.00    +0.000 C 
BRANCH  15  16
ATOM     16  C   UNL     1      -9.293  -2.876 123.241  0.00  0.00    +0.000 C 
BRANCH  16  17
ATOM     17  C   UNL     1      -8.511  -1.575 123.211  0.00  0.00    +0.000 C 
BRANCH  17  18
ATOM     18  C   UNL     1      -7.133  -1.809 122.624  0.00  0.00    +0.000 C 
BRANCH  18  19
ATOM     19  C   UNL     1      -6.072  -1.592 123.690  0.00  0.00    +0.000 C 
BRANCH  19  20
ATOM     20  C   UNL     1      -5.562  -2.931 124.198  0.00  0.00    +0.000 C 
BRANCH  20  22
ATOM     21  C   UNL     1      -4.231  -4.939 123.546  0.00  0.00    +0.000 C 
ATOM     22  C   UNL     1      -4.457  -3.461 123.296  0.00  0.00    +0.000 C 
ENDBRANCH  20  22
ENDBRANCH  19  20
ENDBRANCH  18  19
ENDBRANCH  17  18
ENDBRANCH  16  17
ENDBRANCH  15  16
ENDBRANCH  14  15
ENDBRANCH   8  14
ENDBRANCH   7  11
ENDBRANCH   6   7
ENDBRANCH   5   6
ENDBRANCH   4   5
ENDBRANCH   3   4
ENDBRANCH   2   3
ENDBRANCH   1   2
BRANCH   1  23
ATOM     23  C   UNL     1      -7.716   0.233 132.258  0.00  0.00    +0.000 C 
BRANCH  23  24
ATOM     24  C   UNL     1      -6.541   0.230 131.297  0.00  0.00    +0.000 C 
BRANCH  24  25
ATOM     25  O   UNL     1      -6.727   1.265 130.336  0.00  0.00    +0.000 OA
BRANCH  25  26
ATOM     26  C   UNL     1      -7.870   2.050 130.661  0.00  0.00    +0.000 C 
BRANCH  26  27
ATOM     27  C   UNL     1      -8.937   1.822 129.606  0.00  0.00    +0.000 C 
BRANCH  27  28
ATOM     28  O   UNL     1      -8.643   2.631 128.472  0.00  0.00    +0.000 OA
BRANCH  28  29
ATOM     29  C   UNL     1      -8.269   1.822 127.362  0.00  0.00    +0.000 C 
BRANCH  29  30
ATOM     30  C   UNL     1      -6.821   2.108 127.014  0.00  0.00    +0.000 C 
BRANCH  30  31
ATOM     31  O   UNL     1      -6.499   3.430 127.433  0.00  0.00    +0.000 OA
BRANCH  31  32
ATOM     32  C   UNL     1      -6.308   4.279 126.308  0.00  0.00    +0.000 C 
BRANCH  32  33
ATOM     33  C   UNL     1      -4.848   4.687 126.245  0.00  0.00    +0.000 C 
BRANCH  33  34
ATOM     34  O   UNL     1      -4.645   5.808 127.099  0.00  0.00    +0.000 OA
BRANCH  34  35
ATOM     35  C   UNL     1      -3.623   5.535 128.051  0.00  0.00    +0.000 C 
BRANCH  35  36
ATOM     36  C   UNL     1      -3.878   6.365 129.295  0.00  0.00    +0.000 C 
BRANCH  36  37
ATOM     37  O   UNL     1      -5.284   6.482 129.492  0.00  0.00    +0.000 OA
BRANCH  37  38
ATOM     38  C   UNL     1      -5.687   5.785 130.666  0.00  0.00    +0.000 C 
BRANCH  38  39
ATOM     39  C   UNL     1      -6.609   6.677 131.476  0.00  0.00    +0.000 C 
BRANCH  39  40
ATOM     40  O   UNL     1      -7.568   7.273 130.605  0.00  0.00    +0.000 OA
BRANCH  40  41
ATOM     41  C   UNL     1      -8.826   6.616 130.718  0.00  0.00    +0.000 C 
BRANCH  41  42
ATOM     42  C   UNL     1      -8.992   5.623 129.577  0.00  0.00    +0.000 C 
BRANCH  42  43
ATOM     43  O   UNL     1     -10.293   5.048 129.601  0.00  0.00    +0.000 OA
ATOM     44  H   UNL     1     -10.406   4.550 128.774  0.00  0.00    +0.000 HD
ENDBRANCH  42  43
ENDBRANCH  41  42
ENDBRANCH  40  41
ENDBRANCH  39  40
ENDBRANCH  38  39
ENDBRANCH  37  38
ENDBRANCH  36  37
ENDBRANCH  35  36
ENDBRANCH  34  35
ENDBRANCH  33  34
ENDBRANCH  32  33
ENDBRANCH  31  32
ENDBRANCH  30  31
ENDBRANCH  29  30
ENDBRANCH  28  29
ENDBRANCH  27  28
ENDBRANCH  26  27
ENDBRANCH  25  26
ENDBRANCH  24  25
ENDBRANCH  23  24
ENDBRANCH   1  23
TORSDOF 36
ENDMDL
MODEL 5
REMARK VINA RESULT:      -5.2      2.349      5.910
REMARK  Name = Nonoxynol-9
REMARK  37 active torsions:
REMARK  status: ('A' for Active; 'I' for Inactive)
REMARK    1  A    between atoms: C_1  and  C_2
REMARK    2  A    between atoms: C_2  and  C_3
REMARK    3  A    between atoms: C_3  and  C_4
REMARK    4  A    between atoms: C_4  and  C_5
REMARK    5  A    between atoms: C_5  and  C_6
REMARK    6  A    between atoms: C_6  and  C_7
REMARK    7  A    between atoms: C_7  and  C_8
REMARK    8  A    between atoms: C_8  and  C_9
REMARK    9  A    between atoms: C_9  and  C_10
REMARK   10  A    between atoms: C_13  and  O_14
REMARK   11  A    between atoms: O_14  and  C_15
REMARK   12  A    between atoms: C_15  and  C_16
REMARK   13  A    between atoms: C_16  and  O_17
REMARK   14  A    between atoms: O_17  and  C_18
REMARK   15  A    between atoms: C_18  and  C_19
REMARK   16  A    between atoms: C_19  and  O_20
REMARK   17  A    between atoms: O_20  and  C_21
REMARK   18  A    between atoms: C_21  and  C_22
REMARK   19  A    between atoms: C_22  and  O_23
REMARK   20  A    between atoms: O_23  and  C_24
REMARK   21  A    between atoms: C_24  and  C_25
REMARK   22  A    between atoms: C_25  and  O_26
REMARK   23  A    between atoms: O_26  and  C_27
REMARK   24  A    between atoms: C_27  and  C_28
REMARK   25  A    between atoms: C_28  and  O_29
REMARK   26  A    between atoms: O_29  and  C_30
REMARK   27  A    between atoms: C_30  and  C_31
REMARK   28  A    between atoms: C_31  and  O_32
REMARK   29  A    between atoms: O_32  and  C_33
REMARK   30  A    between atoms: C_33  and  C_34
REMARK   31  A    between atoms: C_34  and  O_35
REMARK   32  A    between atoms: O_35  and  C_36
REMARK   33  A    between atoms: C_36  and  C_37
REMARK   34  A    between atoms: C_37  and  O_38
REMARK   35  A    between atoms: O_38  and  C_39
REMARK   36  A    between atoms: C_39  and  C_40
REMARK   37  A    between atoms: C_40  and  O_41
REMARK                            x       y       z     vdW  Elec       q    Type
REMARK                         _______ _______ _______ _____ _____    ______ ____
ROOT
ATOM      1  O   UNL     1      -5.821   4.647 127.441  0.00  0.00    +0.000 OA
ENDROOT
BRANCH   1   2
ATOM      2  C   UNL     1      -6.346   3.426 126.929  0.00  0.00    +0.000 C 
BRANCH   2   3
ATOM      3  C   UNL     1      -5.579   3.046 125.673  0.00  0.00    +0.000 C 
BRANCH   3   4
ATOM      4  O   UNL     1      -6.345   3.405 124.526  0.00  0.00    +0.000 OA
BRANCH   4   5
ATOM      5  C   UNL     1      -7.705   3.641 124.881  0.00  0.00    +0.000 C 
BRANCH   5   6
ATOM      6  C   UNL     1      -8.613   2.957 123.874  0.00  0.00    +0.000 C 
BRANCH   6   7
ATOM      7  O   UNL     1      -9.585   2.191 124.581  0.00  0.00    +0.000 OA
BRANCH   7  11
ATOM      8  C   UNL     1      -9.153  -1.934 124.161  0.00  0.00    +0.000 A 
ATOM      9  C   UNL     1      -9.233  -1.077 123.054  0.00  0.00    +0.000 A 
ATOM     10  C   UNL     1      -9.347   0.300 123.239  0.00  0.00    +0.000 A 
ATOM     11  C   UNL     1      -9.428   0.834 124.522  0.00  0.00    +0.000 A 
ATOM     12  C   UNL     1      -9.353  -0.018 125.628  0.00  0.00    +0.000 A 
ATOM     13  C   UNL     1      -9.214  -1.392 125.445  0.00  0.00    +0.000 A 
BRANCH   8  14
ATOM     14  C   UNL     1      -8.931  -3.410 123.991  0.00  0.00    +0.000 C 
BRANCH  14  15
ATOM     15  C   UNL     1      -7.596  -3.863 124.559  0.00  0.00    +0.000 C 
BRANCH  15  16
ATOM     16  C   UNL     1      -6.464  -3.063 123.943  0.00  0.00    +0.000 C 
BRANCH  16  17
ATOM     17  C   UNL     1      -5.477  -2.670 125.028  0.00  0.00    +0.000 C 
BRANCH  17  18
ATOM     18  C   UNL     1      -5.573  -1.182 125.304  0.00  0.00    +0.000 C 
BRANCH  18  19
ATOM     19  C   UNL     1      -5.543  -0.930 126.802  0.00  0.00    +0.000 C 
BRANCH  19  20
ATOM     20  C   UNL     1      -5.973  -2.182 127.549  0.00  0.00    +0.000 C 
BRANCH  20  22
ATOM     21  C   UNL     1      -8.068  -3.215 128.429  0.00  0.00    +0.000 C 
ATOM     22  C   UNL     1      -7.267  -1.933 128.311  0.00  0.00    +0.000 C 
ENDBRANCH  20  22
ENDBRANCH  19  20
ENDBRANCH  18  19
ENDBRANCH  17  18
ENDBRANCH  16  17
ENDBRANCH  15  16
ENDBRANCH  14  15
ENDBRANCH   8  14
ENDBRANCH   7  11
ENDBRANCH   6   7
ENDBRANCH   5   6
ENDBRANCH   4   5
ENDBRANCH   3   4
ENDBRANCH   2   3
ENDBRANCH   1   2
BRANCH   1  23
ATOM     23  C   UNL     1      -4.502   4.873 126.953  0.00  0.00    +0.000 C 
BRANCH  23  24
ATOM     24  C   UNL     1      -3.636   5.388 128.088  0.00  0.00    +0.000 C 
BRANCH  24  25
ATOM     25  O   UNL     1      -3.471   6.795 127.940  0.00  0.00    +0.000 OA
BRANCH  25  26
ATOM     26  C   UNL     1      -3.694   7.459 129.180  0.00  0.00    +0.000 C 
BRANCH  26  27
ATOM     27  C   UNL     1      -3.168   6.586 130.305  0.00  0.00    +0.000 C 
BRANCH  27  28
ATOM     28  O   UNL     1      -4.262   6.173 131.116  0.00  0.00    +0.000 OA
BRANCH  28  29
ATOM     29  C   UNL     1      -3.848   5.181 132.050  0.00  0.00    +0.000 C 
BRANCH  29  30
ATOM     30  C   UNL     1      -4.345   3.827 131.579  0.00  0.00    +0.000 C 
BRANCH  30  31
ATOM     31  O   UNL     1      -5.486   4.020 130.749  0.00  0.00    +0.000 OA
BRANCH  31  32
ATOM     32  C   UNL     1      -6.353   2.895 130.821  0.00  0.00    +0.000 C 
BRANCH  32  33
ATOM     33  C   UNL     1      -6.710   2.643 132.274  0.00  0.00    +0.000 C 
BRANCH  33  34
ATOM     34  O   UNL     1      -8.051   2.172 132.345  0.00  0.00    +0.000 OA
BRANCH  34  35
ATOM     35  C   UNL     1      -8.672   2.232 131.066  0.00  0.00    +0.000 C 
BRANCH  35  36
ATOM     36  C   UNL     1     -10.037   2.878 131.213  0.00  0.00    +0.000 C 
BRANCH  36  37
ATOM     37  O   UNL     1      -9.864   4.266 131.483  0.00  0.00    +0.000 OA
BRANCH  37  38
ATOM     38  C   UNL     1      -9.677   4.993 130.272  0.00  0.00    +0.000 C 
BRANCH  38  39
ATOM     39  C   UNL     1     -10.949   5.759 129.957  0.00  0.00    +0.000 C 
BRANCH  39  40
ATOM     40  O   UNL     1     -10.959   6.100 128.573  0.00  0.00    +0.000 OA
BRANCH  40  41
ATOM     41  C   UNL     1     -11.643   7.331 128.364  0.00  0.00    +0.000 C 
BRANCH  41  42
ATOM     42  C   UNL     1     -10.968   8.111 127.245  0.00  0.00    +0.000 C 
BRANCH  42  43
ATOM     43  O   UNL     1     -10.847   7.307 126.078  0.00  0.00    +0.000 OA
ATOM     44  H   UNL     1     -11.503   7.625 125.436  0.00  0.00    +0.000 HD
ENDBRANCH  42  43
ENDBRANCH  41  42
ENDBRANCH  40  41
ENDBRANCH  39  40
ENDBRANCH  38  39
ENDBRANCH  37  38
ENDBRANCH  36  37
ENDBRANCH  35  36
ENDBRANCH  34  35
ENDBRANCH  33  34
ENDBRANCH  32  33
ENDBRANCH  31  32
ENDBRANCH  30  31
ENDBRANCH  29  30
ENDBRANCH  28  29
ENDBRANCH  27  28
ENDBRANCH  26  27
ENDBRANCH  25  26
ENDBRANCH  24  25
ENDBRANCH  23  24
ENDBRANCH   1  23
TORSDOF 36
ENDMDL
MODEL 6
REMARK VINA RESULT:      -5.2      1.639      2.674
REMARK  Name = Nonoxynol-9
REMARK  37 active torsions:
REMARK  status: ('A' for Active; 'I' for Inactive)
REMARK    1  A    between atoms: C_1  and  C_2
REMARK    2  A    between atoms: C_2  and  C_3
REMARK    3  A    between atoms: C_3  and  C_4
REMARK    4  A    between atoms: C_4  and  C_5
REMARK    5  A    between atoms: C_5  and  C_6
REMARK    6  A    between atoms: C_6  and  C_7
REMARK    7  A    between atoms: C_7  and  C_8
REMARK    8  A    between atoms: C_8  and  C_9
REMARK    9  A    between atoms: C_9  and  C_10
REMARK   10  A    between atoms: C_13  and  O_14
REMARK   11  A    between atoms: O_14  and  C_15
REMARK   12  A    between atoms: C_15  and  C_16
REMARK   13  A    between atoms: C_16  and  O_17
REMARK   14  A    between atoms: O_17  and  C_18
REMARK   15  A    between atoms: C_18  and  C_19
REMARK   16  A    between atoms: C_19  and  O_20
REMARK   17  A    between atoms: O_20  and  C_21
REMARK   18  A    between atoms: C_21  and  C_22
REMARK   19  A    between atoms: C_22  and  O_23
REMARK   20  A    between atoms: O_23  and  C_24
REMARK   21  A    between atoms: C_24  and  C_25
REMARK   22  A    between atoms: C_25  and  O_26
REMARK   23  A    between atoms: O_26  and  C_27
REMARK   24  A    between atoms: C_27  and  C_28
REMARK   25  A    between atoms: C_28  and  O_29
REMARK   26  A    between atoms: O_29  and  C_30
REMARK   27  A    between atoms: C_30  and  C_31
REMARK   28  A    between atoms: C_31  and  O_32
REMARK   29  A    between atoms: O_32  and  C_33
REMARK   30  A    between atoms: C_33  and  C_34
REMARK   31  A    between atoms: C_34  and  O_35
REMARK   32  A    between atoms: O_35  and  C_36
REMARK   33  A    between atoms: C_36  and  C_37
REMARK   34  A    between atoms: C_37  and  O_38
REMARK   35  A    between atoms: O_38  and  C_39
REMARK   36  A    between atoms: C_39  and  C_40
REMARK   37  A    between atoms: C_40  and  O_41
REMARK                            x       y       z     vdW  Elec       q    Type
REMARK                         _______ _______ _______ _____ _____    ______ ____
ROOT
ATOM      1  O   UNL     1      -6.240   5.432 131.758  0.00  0.00    +0.000 OA
ENDROOT
BRANCH   1   2
ATOM      2  C   UNL     1      -5.147   5.629 132.651  0.00  0.00    +0.000 C 
BRANCH   2   3
ATOM      3  C   UNL     1      -4.280   4.380 132.654  0.00  0.00    +0.000 C 
BRANCH   3   4
ATOM      4  O   UNL     1      -4.336   3.764 131.371  0.00  0.00    +0.000 OA
BRANCH   4   5
ATOM      5  C   UNL     1      -4.507   2.354 131.496  0.00  0.00    +0.000 C 
BRANCH   5   6
ATOM      6  C   UNL     1      -5.511   1.877 130.462  0.00  0.00    +0.000 C 
BRANCH   6   7
ATOM      7  O   UNL     1      -6.178   0.723 130.970  0.00  0.00    +0.000 OA
BRANCH   7  11
ATOM      8  C   UNL     1      -7.215  -2.327 128.326  0.00  0.00    +0.000 A 
ATOM      9  C   UNL     1      -7.990  -2.026 129.455  0.00  0.00    +0.000 A 
ATOM     10  C   UNL     1      -7.623  -0.977 130.297  0.00  0.00    +0.000 A 
ATOM     11  C   UNL     1      -6.462  -0.250 130.053  0.00  0.00    +0.000 A 
ATOM     12  C   UNL     1      -5.685  -0.552 128.930  0.00  0.00    +0.000 A 
ATOM     13  C   UNL     1      -6.063  -1.583 128.073  0.00  0.00    +0.000 A 
BRANCH   8  14
ATOM     14  C   UNL     1      -7.641  -3.387 127.348  0.00  0.00    +0.000 C 
BRANCH  14  15
ATOM     15  C   UNL     1      -9.118  -3.297 127.007  0.00  0.00    +0.000 C 
BRANCH  15  16
ATOM     16  C   UNL     1      -9.305  -2.664 125.641  0.00  0.00    +0.000 C 
BRANCH  16  17
ATOM     17  C   UNL     1      -8.830  -3.629 124.569  0.00  0.00    +0.000 C 
BRANCH  17  18
ATOM     18  C   UNL     1      -8.115  -2.872 123.467  0.00  0.00    +0.000 C 
BRANCH  18  19
ATOM     19  C   UNL     1      -7.215  -1.807 124.070  0.00  0.00    +0.000 C 
BRANCH  19  20
ATOM     20  C   UNL     1      -5.769  -2.064 123.677  0.00  0.00    +0.000 C 
BRANCH  20  22
ATOM     21  C   UNL     1      -4.406  -4.148 123.507  0.00  0.00    +0.000 C 
ATOM     22  C   UNL     1      -5.212  -3.261 124.435  0.00  0.00    +0.000 C 
ENDBRANCH  20  22
ENDBRANCH  19  20
ENDBRANCH  18  19
ENDBRANCH  17  18
ENDBRANCH  16  17
ENDBRANCH  15  16
ENDBRANCH  14  15
ENDBRANCH   8  14
ENDBRANCH   7  11
ENDBRANCH   6   7
ENDBRANCH   5   6
ENDBRANCH   4   5
ENDBRANCH   3   4
ENDBRANCH   2   3
ENDBRANCH   1   2
BRANCH   1  23
ATOM     23  C   UNL     1      -7.247   6.416 131.970  0.00  0.00    +0.000 C 
BRANCH  23  24
ATOM     24  C   UNL     1      -8.186   5.935 133.062  0.00  0.00    +0.000 C 
BRANCH  24  25
ATOM     25  O   UNL     1      -9.499   6.413 132.784  0.00  0.00    +0.000 OA
BRANCH  25  26
ATOM     26  C   UNL     1      -9.737   6.438 131.381  0.00  0.00    +0.000 C 
BRANCH  26  27
ATOM     27  C   UNL     1     -10.714   5.331 131.029  0.00  0.00    +0.000 C 
BRANCH  27  28
ATOM     28  O   UNL     1     -10.412   4.847 129.725  0.00  0.00    +0.000 OA
BRANCH  28  29
ATOM     29  C   UNL     1      -9.052   4.433 129.647  0.00  0.00    +0.000 C 
BRANCH  29  30
ATOM     30  C   UNL     1      -8.997   2.918 129.707  0.00  0.00    +0.000 C 
BRANCH  30  31
ATOM     31  O   UNL     1      -9.118   2.401 128.386  0.00  0.00    +0.000 OA
BRANCH  31  32
ATOM     32  C   UNL     1      -7.838   2.266 127.781  0.00  0.00    +0.000 C 
BRANCH  32  33
ATOM     33  C   UNL     1      -7.702   3.303 126.682  0.00  0.00    +0.000 C 
BRANCH  33  34
ATOM     34  O   UNL     1      -6.617   4.169 126.997  0.00  0.00    +0.000 OA
BRANCH  34  35
ATOM     35  C   UNL     1      -5.754   4.320 125.876  0.00  0.00    +0.000 C 
BRANCH  35  36
ATOM     36  C   UNL     1      -5.290   2.947 125.427  0.00  0.00    +0.000 C 
BRANCH  36  37
ATOM     37  O   UNL     1      -4.107   2.603 126.141  0.00  0.00    +0.000 OA
BRANCH  37  38
ATOM     38  C   UNL     1      -3.262   3.739 126.290  0.00  0.00    +0.000 C 
BRANCH  38  39
ATOM     39  C   UNL     1      -2.358   3.526 127.490  0.00  0.00    +0.000 C 
BRANCH  39  40
ATOM     40  O   UNL     1      -2.805   4.350 128.565  0.00  0.00    +0.000 OA
BRANCH  40  41
ATOM     41  C   UNL     1      -2.822   5.718 128.175  0.00  0.00    +0.000 C 
BRANCH  41  42
ATOM     42  C   UNL     1      -3.932   6.451 128.916  0.00  0.00    +0.000 C 
BRANCH  42  43
ATOM     43  O   UNL     1      -5.072   5.614 129.060  0.00  0.00    +0.000 OA
ATOM     44  H   UNL     1      -5.682   6.057 129.674  0.00  0.00    +0.000 HD
ENDBRANCH  42  43
ENDBRANCH  41  42
ENDBRANCH  40  41
ENDBRANCH  39  40
ENDBRANCH  38  39
ENDBRANCH  37  38
ENDBRANCH  36  37
ENDBRANCH  35  36
ENDBRANCH  34  35
ENDBRANCH  33  34
ENDBRANCH  32  33
ENDBRANCH  31  32
ENDBRANCH  30  31
ENDBRANCH  29  30
ENDBRANCH  28  29
ENDBRANCH  27  28
ENDBRANCH  26  27
ENDBRANCH  25  26
ENDBRANCH  24  25
ENDBRANCH  23  24
ENDBRANCH   1  23
TORSDOF 36
ENDMDL
MODEL 7
REMARK VINA RESULT:      -5.2      1.825      4.394
REMARK  Name = Nonoxynol-9
REMARK  37 active torsions:
REMARK  status: ('A' for Active; 'I' for Inactive)
REMARK    1  A    between atoms: C_1  and  C_2
REMARK    2  A    between atoms: C_2  and  C_3
REMARK    3  A    between atoms: C_3  and  C_4
REMARK    4  A    between atoms: C_4  and  C_5
REMARK    5  A    between atoms: C_5  and  C_6
REMARK    6  A    between atoms: C_6  and  C_7
REMARK    7  A    between atoms: C_7  and  C_8
REMARK    8  A    between atoms: C_8  and  C_9
REMARK    9  A    between atoms: C_9  and  C_10
REMARK   10  A    between atoms: C_13  and  O_14
REMARK   11  A    between atoms: O_14  and  C_15
REMARK   12  A    between atoms: C_15  and  C_16
REMARK   13  A    between atoms: C_16  and  O_17
REMARK   14  A    between atoms: O_17  and  C_18
REMARK   15  A    between atoms: C_18  and  C_19
REMARK   16  A    between atoms: C_19  and  O_20
REMARK   17  A    between atoms: O_20  and  C_21
REMARK   18  A    between atoms: C_21  and  C_22
REMARK   19  A    between atoms: C_22  and  O_23
REMARK   20  A    between atoms: O_23  and  C_24
REMARK   21  A    between atoms: C_24  and  C_25
REMARK   22  A    between atoms: C_25  and  O_26
REMARK   23  A    between atoms: O_26  and  C_27
REMARK   24  A    between atoms: C_27  and  C_28
REMARK   25  A    between atoms: C_28  and  O_29
REMARK   26  A    between atoms: O_29  and  C_30
REMARK   27  A    between atoms: C_30  and  C_31
REMARK   28  A    between atoms: C_31  and  O_32
REMARK   29  A    between atoms: O_32  and  C_33
REMARK   30  A    between atoms: C_33  and  C_34
REMARK   31  A    between atoms: C_34  and  O_35
REMARK   32  A    between atoms: O_35  and  C_36
REMARK   33  A    between atoms: C_36  and  C_37
REMARK   34  A    between atoms: C_37  and  O_38
REMARK   35  A    between atoms: O_38  and  C_39
REMARK   36  A    between atoms: C_39  and  C_40
REMARK   37  A    between atoms: C_40  and  O_41
REMARK                            x       y       z     vdW  Elec       q    Type
REMARK                         _______ _______ _______ _____ _____    ______ ____
ROOT
ATOM      1  O   UNL     1      -6.453   4.051 133.261  0.00  0.00    +0.000 OA
ENDROOT
BRANCH   1   2
ATOM      2  C   UNL     1      -6.846   2.840 132.622  0.00  0.00    +0.000 C 
BRANCH   2   3
ATOM      3  C   UNL     1      -5.767   1.792 132.842  0.00  0.00    +0.000 C 
BRANCH   3   4
ATOM      4  O   UNL     1      -5.484   1.140 131.607  0.00  0.00    +0.000 OA
BRANCH   4   5
ATOM      5  C   UNL     1      -5.872  -0.231 131.660  0.00  0.00    +0.000 C 
BRANCH   5   6
ATOM      6  C   UNL     1      -5.327  -0.955 130.441  0.00  0.00    +0.000 C 
BRANCH   6   7
ATOM      7  O   UNL     1      -5.953  -2.233 130.351  0.00  0.00    +0.000 OA
BRANCH   7  11
ATOM      8  C   UNL     1      -8.378  -3.047 127.060  0.00  0.00    +0.000 A 
ATOM      9  C   UNL     1      -8.688  -3.512 128.346  0.00  0.00    +0.000 A 
ATOM     10  C   UNL     1      -7.865  -3.191 129.425  0.00  0.00    +0.000 A 
ATOM     11  C   UNL     1      -6.706  -2.447 129.230  0.00  0.00    +0.000 A 
ATOM     12  C   UNL     1      -6.391  -1.986 127.948  0.00  0.00    +0.000 A 
ATOM     13  C   UNL     1      -7.225  -2.284 126.872  0.00  0.00    +0.000 A 
BRANCH   8  14
ATOM     14  C   UNL     1      -9.298  -3.294 125.898  0.00  0.00    +0.000 C 
BRANCH  14  15
ATOM     15  C   UNL     1      -8.542  -3.648 124.628  0.00  0.00    +0.000 C 
BRANCH  15  16
ATOM     16  C   UNL     1      -9.339  -3.229 123.407  0.00  0.00    +0.000 C 
BRANCH  16  17
ATOM     17  C   UNL     1      -8.590  -2.135 122.668  0.00  0.00    +0.000 C 
BRANCH  17  18
ATOM     18  C   UNL     1      -7.140  -2.107 123.109  0.00  0.00    +0.000 C 
BRANCH  18  19
ATOM     19  C   UNL     1      -6.779  -0.723 123.619  0.00  0.00    +0.000 C 
BRANCH  19  20
ATOM     20  C   UNL     1      -8.035   0.121 123.768  0.00  0.00    +0.000 C 
BRANCH  20  22
ATOM     21  C   UNL     1      -9.182   0.605 125.932  0.00  0.00    +0.000 C 
ATOM     22  C   UNL     1      -7.987   0.930 125.057  0.00  0.00    +0.000 C 
ENDBRANCH  20  22
ENDBRANCH  19  20
ENDBRANCH  18  19
ENDBRANCH  17  18
ENDBRANCH  16  17
ENDBRANCH  15  16
ENDBRANCH  14  15
ENDBRANCH   8  14
ENDBRANCH   7  11
ENDBRANCH   6   7
ENDBRANCH   5   6
ENDBRANCH   4   5
ENDBRANCH   3   4
ENDBRANCH   2   3
ENDBRANCH   1   2
BRANCH   1  23
ATOM     23  C   UNL     1      -6.754   5.175 132.440  0.00  0.00    +0.000 C 
BRANCH  23  24
ATOM     24  C   UNL     1      -5.461   5.733 131.873  0.00  0.00    +0.000 C 
BRANCH  24  25
ATOM     25  O   UNL     1      -4.362   5.100 132.521  0.00  0.00    +0.000 OA
BRANCH  25  26
ATOM     26  C   UNL     1      -3.222   5.079 131.669  0.00  0.00    +0.000 C 
BRANCH  26  27
ATOM     27  C   UNL     1      -3.689   5.108 130.225  0.00  0.00    +0.000 C 
BRANCH  27  28
ATOM     28  O   UNL     1      -2.704   4.480 129.411  0.00  0.00    +0.000 OA
BRANCH  28  29
ATOM     29  C   UNL     1      -2.736   5.007 128.088  0.00  0.00    +0.000 C 
BRANCH  29  30
ATOM     30  C   UNL     1      -2.345   3.911 127.115  0.00  0.00    +0.000 C 
BRANCH  30  31
ATOM     31  O   UNL     1      -3.528   3.301 126.610  0.00  0.00    +0.000 OA
BRANCH  31  32
ATOM     32  C   UNL     1      -4.527   4.281 126.353  0.00  0.00    +0.000 C 
BRANCH  32  33
ATOM     33  C   UNL     1      -5.890   3.677 126.636  0.00  0.00    +0.000 C 
BRANCH  33  34
ATOM     34  O   UNL     1      -6.642   4.589 127.429  0.00  0.00    +0.000 OA
BRANCH  34  35
ATOM     35  C   UNL     1      -6.853   4.062 128.735  0.00  0.00    +0.000 C 
BRANCH  35  36
ATOM     36  C   UNL     1      -7.546   2.717 128.614  0.00  0.00    +0.000 C 
BRANCH  36  37
ATOM     37  O   UNL     1      -8.946   2.899 128.802  0.00  0.00    +0.000 OA
BRANCH  37  38
ATOM     38  C   UNL     1      -9.195   3.794 129.881  0.00  0.00    +0.000 C 
BRANCH  38  39
ATOM     39  C   UNL     1     -10.561   3.489 130.467  0.00  0.00    +0.000 C 
BRANCH  39  40
ATOM     40  O   UNL     1     -11.459   4.547 130.139  0.00  0.00    +0.000 OA
BRANCH  40  41
ATOM     41  C   UNL     1     -10.891   5.808 130.476  0.00  0.00    +0.000 C 
BRANCH  41  42
ATOM     42  C   UNL     1     -11.470   6.298 131.795  0.00  0.00    +0.000 C 
BRANCH  42  43
ATOM     43  O   UNL     1     -12.724   6.935 131.585  0.00  0.00    +0.000 OA
ATOM     44  H   UNL     1     -13.270   6.770 132.372  0.00  0.00    +0.000 HD
ENDBRANCH  42  43
ENDBRANCH  41  42
ENDBRANCH  40  41
ENDBRANCH  39  40
ENDBRANCH  38  39
ENDBRANCH  37  38
ENDBRANCH  36  37
ENDBRANCH  35  36
ENDBRANCH  34  35
ENDBRANCH  33  34
ENDBRANCH  32  33
ENDBRANCH  31  32
ENDBRANCH  30  31
ENDBRANCH  29  30
ENDBRANCH  28  29
ENDBRANCH  27  28
ENDBRANCH  26  27
ENDBRANCH  25  26
ENDBRANCH  24  25
ENDBRANCH  23  24
ENDBRANCH   1  23
TORSDOF 36
ENDMDL
MODEL 8
REMARK VINA RESULT:      -5.1      1.767      5.114
REMARK  Name = Nonoxynol-9
REMARK  37 active torsions:
REMARK  status: ('A' for Active; 'I' for Inactive)
REMARK    1  A    between atoms: C_1  and  C_2
REMARK    2  A    between atoms: C_2  and  C_3
REMARK    3  A    between atoms: C_3  and  C_4
REMARK    4  A    between atoms: C_4  and  C_5
REMARK    5  A    between atoms: C_5  and  C_6
REMARK    6  A    between atoms: C_6  and  C_7
REMARK    7  A    between atoms: C_7  and  C_8
REMARK    8  A    between atoms: C_8  and  C_9
REMARK    9  A    between atoms: C_9  and  C_10
REMARK   10  A    between atoms: C_13  and  O_14
REMARK   11  A    between atoms: O_14  and  C_15
REMARK   12  A    between atoms: C_15  and  C_16
REMARK   13  A    between atoms: C_16  and  O_17
REMARK   14  A    between atoms: O_17  and  C_18
REMARK   15  A    between atoms: C_18  and  C_19
REMARK   16  A    between atoms: C_19  and  O_20
REMARK   17  A    between atoms: O_20  and  C_21
REMARK   18  A    between atoms: C_21  and  C_22
REMARK   19  A    between atoms: C_22  and  O_23
REMARK   20  A    between atoms: O_23  and  C_24
REMARK   21  A    between atoms: C_24  and  C_25
REMARK   22  A    between atoms: C_25  and  O_26
REMARK   23  A    between atoms: O_26  and  C_27
REMARK   24  A    between atoms: C_27  and  C_28
REMARK   25  A    between atoms: C_28  and  O_29
REMARK   26  A    between atoms: O_29  and  C_30
REMARK   27  A    between atoms: C_30  and  C_31
REMARK   28  A    between atoms: C_31  and  O_32
REMARK   29  A    between atoms: O_32  and  C_33
REMARK   30  A    between atoms: C_33  and  C_34
REMARK   31  A    between atoms: C_34  and  O_35
REMARK   32  A    between atoms: O_35  and  C_36
REMARK   33  A    between atoms: C_36  and  C_37
REMARK   34  A    between atoms: C_37  and  O_38
REMARK   35  A    between atoms: O_38  and  C_39
REMARK   36  A    between atoms: C_39  and  C_40
REMARK   37  A    between atoms: C_40  and  O_41
REMARK                            x       y       z     vdW  Elec       q    Type
REMARK                         _______ _______ _______ _____ _____    ______ ____
ROOT
ATOM      1  O   UNL     1      -6.203   2.451 126.936  0.00  0.00    +0.000 OA
ENDROOT
BRANCH   1   2
ATOM      2  C   UNL     1      -5.328   1.335 127.073  0.00  0.00    +0.000 C 
BRANCH   2   3
ATOM      3  C   UNL     1      -4.979   1.158 128.542  0.00  0.00    +0.000 C 
BRANCH   3   4
ATOM      4  O   UNL     1      -5.001  -0.229 128.868  0.00  0.00    +0.000 OA
BRANCH   4   5
ATOM      5  C   UNL     1      -5.562  -0.433 130.163  0.00  0.00    +0.000 C 
BRANCH   5   6
ATOM      6  C   UNL     1      -6.286  -1.768 130.192  0.00  0.00    +0.000 C 
BRANCH   6   7
ATOM      7  O   UNL     1      -7.647  -1.558 129.825  0.00  0.00    +0.000 OA
BRANCH   7  11
ATOM      8  C   UNL     1      -8.769  -2.811 126.012  0.00  0.00    +0.000 A 
ATOM      9  C   UNL     1      -8.362  -1.495 126.273  0.00  0.00    +0.000 A 
ATOM     10  C   UNL     1      -7.966  -1.125 127.557  0.00  0.00    +0.000 A 
ATOM     11  C   UNL     1      -8.015  -2.044 128.601  0.00  0.00    +0.000 A 
ATOM     12  C   UNL     1      -8.425  -3.356 128.345  0.00  0.00    +0.000 A 
ATOM     13  C   UNL     1      -8.797  -3.734 127.057  0.00  0.00    +0.000 A 
BRANCH   8  14
ATOM     14  C   UNL     1      -9.107  -3.261 124.618  0.00  0.00    +0.000 C 
BRANCH  14  15
ATOM     15  C   UNL     1      -9.722  -2.149 123.785  0.00  0.00    +0.000 C 
BRANCH  15  16
ATOM     16  C   UNL     1      -8.638  -1.376 123.058  0.00  0.00    +0.000 C 
BRANCH  16  17
ATOM     17  C   UNL     1      -7.730  -2.348 122.326  0.00  0.00    +0.000 C 
BRANCH  17  18
ATOM     18  C   UNL     1      -6.288  -1.891 122.427  0.00  0.00    +0.000 C 
BRANCH  18  19
ATOM     19  C   UNL     1      -5.930  -1.623 123.879  0.00  0.00    +0.000 C 
BRANCH  19  20
ATOM     20  C   UNL     1      -5.139  -2.791 124.444  0.00  0.00    +0.000 C 
BRANCH  20  22
ATOM     21  C   UNL     1      -4.334  -4.994 123.588  0.00  0.00    +0.000 C 
ATOM     22  C   UNL     1      -4.364  -3.498 123.341  0.00  0.00    +0.000 C 
ENDBRANCH  20  22
ENDBRANCH  19  20
ENDBRANCH  18  19
ENDBRANCH  17  18
ENDBRANCH  16  17
ENDBRANCH  15  16
ENDBRANCH  14  15
ENDBRANCH   8  14
ENDBRANCH   7  11
ENDBRANCH   6   7
ENDBRANCH   5   6
ENDBRANCH   4   5
ENDBRANCH   3   4
ENDBRANCH   2   3
ENDBRANCH   1   2
BRANCH   1  23
ATOM     23  C   UNL     1      -6.790   2.788 128.189  0.00  0.00    +0.000 C 
BRANCH  23  24
ATOM     24  C   UNL     1      -6.692   4.289 128.393  0.00  0.00    +0.000 C 
BRANCH  24  25
ATOM     25  O   UNL     1      -5.645   4.799 127.572  0.00  0.00    +0.000 OA
BRANCH  25  26
ATOM     26  C   UNL     1      -4.429   4.882 128.307  0.00  0.00    +0.000 C 
BRANCH  26  27
ATOM     27  C   UNL     1      -3.663   6.110 127.850  0.00  0.00    +0.000 C 
BRANCH  27  28
ATOM     28  O   UNL     1      -4.219   7.259 128.481  0.00  0.00    +0.000 OA
BRANCH  28  29
ATOM     29  C   UNL     1      -3.590   7.496 129.737  0.00  0.00    +0.000 C 
BRANCH  29  30
ATOM     30  C   UNL     1      -4.626   7.359 130.836  0.00  0.00    +0.000 C 
BRANCH  30  31
ATOM     31  O   UNL     1      -5.911   7.647 130.295  0.00  0.00    +0.000 OA
BRANCH  31  32
ATOM     32  C   UNL     1      -6.929   7.005 131.054  0.00  0.00    +0.000 C 
BRANCH  32  33
ATOM     33  C   UNL     1      -6.284   5.998 131.987  0.00  0.00    +0.000 C 
BRANCH  33  34
ATOM     34  O   UNL     1      -7.288   5.116 132.479  0.00  0.00    +0.000 OA
BRANCH  34  35
ATOM     35  C   UNL     1      -8.427   5.848 132.918  0.00  0.00    +0.000 C 
BRANCH  35  36
ATOM     36  C   UNL     1      -9.679   5.089 132.521  0.00  0.00    +0.000 C 
BRANCH  36  37
ATOM     37  O   UNL     1      -9.465   4.475 131.253  0.00  0.00    +0.000 OA
BRANCH  37  38
ATOM     38  C   UNL     1     -10.657   4.499 130.476  0.00  0.00    +0.000 C 
BRANCH  38  39
ATOM     39  C   UNL     1     -10.922   5.924 130.026  0.00  0.00    +0.000 C 
BRANCH  39  40
ATOM     40  O   UNL     1     -12.121   5.957 129.255  0.00  0.00    +0.000 OA
BRANCH  40  41
ATOM     41  C   UNL     1     -12.064   6.994 128.281  0.00  0.00    +0.000 C 
BRANCH  41  42
ATOM     42  C   UNL     1     -13.118   8.048 128.589  0.00  0.00    +0.000 C 
BRANCH  42  43
ATOM     43  O   UNL     1     -12.922   8.585 129.891  0.00  0.00    +0.000 OA
ATOM     44  H   UNL     1     -12.202   9.235 129.832  0.00  0.00    +0.000 HD
ENDBRANCH  42  43
ENDBRANCH  41  42
ENDBRANCH  40  41
ENDBRANCH  39  40
ENDBRANCH  38  39
ENDBRANCH  37  38
ENDBRANCH  36  37
ENDBRANCH  35  36
ENDBRANCH  34  35
ENDBRANCH  33  34
ENDBRANCH  32  33
ENDBRANCH  31  32
ENDBRANCH  30  31
ENDBRANCH  29  30
ENDBRANCH  28  29
ENDBRANCH  27  28
ENDBRANCH  26  27
ENDBRANCH  25  26
ENDBRANCH  24  25
ENDBRANCH  23  24
ENDBRANCH   1  23
TORSDOF 36
ENDMDL
MODEL 9
REMARK VINA RESULT:      -5.1      2.848      5.336
REMARK  Name = Nonoxynol-9
REMARK  37 active torsions:
REMARK  status: ('A' for Active; 'I' for Inactive)
REMARK    1  A    between atoms: C_1  and  C_2
REMARK    2  A    between atoms: C_2  and  C_3
REMARK    3  A    between atoms: C_3  and  C_4
REMARK    4  A    between atoms: C_4  and  C_5
REMARK    5  A    between atoms: C_5  and  C_6
REMARK    6  A    between atoms: C_6  and  C_7
REMARK    7  A    between atoms: C_7  and  C_8
REMARK    8  A    between atoms: C_8  and  C_9
REMARK    9  A    between atoms: C_9  and  C_10
REMARK   10  A    between atoms: C_13  and  O_14
REMARK   11  A    between atoms: O_14  and  C_15
REMARK   12  A    between atoms: C_15  and  C_16
REMARK   13  A    between atoms: C_16  and  O_17
REMARK   14  A    between atoms: O_17  and  C_18
REMARK   15  A    between atoms: C_18  and  C_19
REMARK   16  A    between atoms: C_19  and  O_20
REMARK   17  A    between atoms: O_20  and  C_21
REMARK   18  A    between atoms: C_21  and  C_22
REMARK   19  A    between atoms: C_22  and  O_23
REMARK   20  A    between atoms: O_23  and  C_24
REMARK   21  A    between atoms: C_24  and  C_25
REMARK   22  A    between atoms: C_25  and  O_26
REMARK   23  A    between atoms: O_26  and  C_27
REMARK   24  A    between atoms: C_27  and  C_28
REMARK   25  A    between atoms: C_28  and  O_29
REMARK   26  A    between atoms: O_29  and  C_30
REMARK   27  A    between atoms: C_30  and  C_31
REMARK   28  A    between atoms: C_31  and  O_32
REMARK   29  A    between atoms: O_32  and  C_33
REMARK   30  A    between atoms: C_33  and  C_34
REMARK   31  A    between atoms: C_34  and  O_35
REMARK   32  A    between atoms: O_35  and  C_36
REMARK   33  A    between atoms: C_36  and  C_37
REMARK   34  A    between atoms: C_37  and  O_38
REMARK   35  A    between atoms: O_38  and  C_39
REMARK   36  A    between atoms: C_39  and  C_40
REMARK   37  A    between atoms: C_40  and  O_41
REMARK                            x       y       z     vdW  Elec       q    Type
REMARK                         _______ _______ _______ _____ _____    ______ ____
ROOT
ATOM      1  O   UNL     1      -2.992  -1.271 132.061  0.00  0.00    +0.000 OA
ENDROOT
BRANCH   1   2
ATOM      2  C   UNL     1      -3.056  -1.638 133.436  0.00  0.00    +0.000 C 
BRANCH   2   3
ATOM      3  C   UNL     1      -3.379  -3.119 133.538  0.00  0.00    +0.000 C 
BRANCH   3   4
ATOM      4  O   UNL     1      -3.410  -3.687 132.231  0.00  0.00    +0.000 OA
BRANCH   4   5
ATOM      5  C   UNL     1      -4.711  -4.187 131.931  0.00  0.00    +0.000 C 
BRANCH   5   6
ATOM      6  C   UNL     1      -4.935  -4.134 130.430  0.00  0.00    +0.000 C 
BRANCH   6   7
ATOM      7  O   UNL     1      -5.557  -2.893 130.104  0.00  0.00    +0.000 OA
BRANCH   7  11
ATOM      8  C   UNL     1      -8.345  -2.876 127.005  0.00  0.00    +0.000 A 
ATOM      9  C   UNL     1      -7.136  -2.169 126.924  0.00  0.00    +0.000 A 
ATOM     10  C   UNL     1      -6.218  -2.226 127.971  0.00  0.00    +0.000 A 
ATOM     11  C   UNL     1      -6.510  -2.946 129.125  0.00  0.00    +0.000 A 
ATOM     12  C   UNL     1      -7.716  -3.648 129.212  0.00  0.00    +0.000 A 
ATOM     13  C   UNL     1      -8.625  -3.613 128.156  0.00  0.00    +0.000 A 
BRANCH   8  14
ATOM     14  C   UNL     1      -9.307  -2.912 125.852  0.00  0.00    +0.000 C 
BRANCH  14  15
ATOM     15  C   UNL     1      -8.729  -3.619 124.638  0.00  0.00    +0.000 C 
BRANCH  15  16
ATOM     16  C   UNL     1      -9.442  -3.169 123.377  0.00  0.00    +0.000 C 
BRANCH  16  17
ATOM     17  C   UNL     1      -8.906  -1.814 122.952  0.00  0.00    +0.000 C 
BRANCH  17  18
ATOM     18  C   UNL     1      -7.391  -1.817 122.993  0.00  0.00    +0.000 C 
BRANCH  18  19
ATOM     19  C   UNL     1      -6.882  -0.465 123.464  0.00  0.00    +0.000 C 
BRANCH  19  20
ATOM     20  C   UNL     1      -8.053   0.460 123.753  0.00  0.00    +0.000 C 
BRANCH  20  22
ATOM     21  C   UNL     1      -9.408   0.767 125.827  0.00  0.00    +0.000 C 
ATOM     22  C   UNL     1      -8.032   0.913 125.206  0.00  0.00    +0.000 C 
ENDBRANCH  20  22
ENDBRANCH  19  20
ENDBRANCH  18  19
ENDBRANCH  17  18
ENDBRANCH  16  17
ENDBRANCH  15  16
ENDBRANCH  14  15
ENDBRANCH   8  14
ENDBRANCH   7  11
ENDBRANCH   6   7
ENDBRANCH   5   6
ENDBRANCH   4   5
ENDBRANCH   3   4
ENDBRANCH   2   3
ENDBRANCH   1   2
BRANCH   1  23
ATOM     23  C   UNL     1      -3.854  -0.170 131.792  0.00  0.00    +0.000 C 
BRANCH  23  24
ATOM     24  C   UNL     1      -4.568   0.223 133.072  0.00  0.00    +0.000 C 
BRANCH  24  25
ATOM     25  O   UNL     1      -5.974   0.188 132.846  0.00  0.00    +0.000 OA
BRANCH  25  26
ATOM     26  C   UNL     1      -6.278   0.595 131.516  0.00  0.00    +0.000 C 
BRANCH  26  27
ATOM     27  C   UNL     1      -7.635   0.036 131.130  0.00  0.00    +0.000 C 
BRANCH  27  28
ATOM     28  O   UNL     1      -8.537   1.117 130.927  0.00  0.00    +0.000 OA
BRANCH  28  29
ATOM     29  C   UNL     1      -9.582   1.088 131.894  0.00  0.00    +0.000 C 
BRANCH  29  30
ATOM     30  C   UNL     1      -9.643   2.433 132.591  0.00  0.00    +0.000 C 
BRANCH  30  31
ATOM     31  O   UNL     1      -8.403   2.665 133.252  0.00  0.00    +0.000 OA
BRANCH  31  32
ATOM     32  C   UNL     1      -7.975   4.008 133.057  0.00  0.00    +0.000 C 
BRANCH  32  33
ATOM     33  C   UNL     1      -9.056   4.945 133.560  0.00  0.00    +0.000 C 
BRANCH  33  34
ATOM     34  O   UNL     1      -8.955   6.182 132.862  0.00  0.00    +0.000 OA
BRANCH  34  35
ATOM     35  C   UNL     1      -9.117   5.983 131.462  0.00  0.00    +0.000 C 
BRANCH  35  36
ATOM     36  C   UNL     1      -8.113   6.850 130.725  0.00  0.00    +0.000 C 
BRANCH  36  37
ATOM     37  O   UNL     1      -8.817   7.826 129.963  0.00  0.00    +0.000 OA
BRANCH  37  38
ATOM     38  C   UNL     1      -9.775   7.203 129.113  0.00  0.00    +0.000 C 
BRANCH  38  39
ATOM     39  C   UNL     1     -10.547   8.278 128.370  0.00  0.00    +0.000 C 
BRANCH  39  40
ATOM     40  O   UNL     1     -11.942   8.105 128.612  0.00  0.00    +0.000 OA
BRANCH  40  41
ATOM     41  C   UNL     1     -12.174   6.942 129.400  0.00  0.00    +0.000 C 
BRANCH  41  42
ATOM     42  C   UNL     1     -13.309   7.202 130.380  0.00  0.00    +0.000 C 
BRANCH  42  43
ATOM     43  O   UNL     1     -12.842   7.110 131.720  0.00  0.00    +0.000 OA
ATOM     44  H   UNL     1     -13.280   6.344 132.129  0.00  0.00    +0.000 HD
ENDBRANCH  42  43
ENDBRANCH  41  42
ENDBRANCH  40  41
ENDBRANCH  39  40
ENDBRANCH  38  39
ENDBRANCH  37  38
ENDBRANCH  36  37
ENDBRANCH  35  36
ENDBRANCH  34  35
ENDBRANCH  33  34
ENDBRANCH  32  33
ENDBRANCH  31  32
ENDBRANCH  30  31
ENDBRANCH  29  30
ENDBRANCH  28  29
ENDBRANCH  27  28
ENDBRANCH  26  27
ENDBRANCH  25  26
ENDBRANCH  24  25
ENDBRANCH  23  24
ENDBRANCH   1  23
TORSDOF 36
ENDMDL
