MODEL 1
REMARK VINA RESULT:      -7.7      0.000      0.000
REMARK  Name = Norethisterone
REMARK  3 active torsions:
REMARK  status: ('A' for Active; 'I' for Inactive)
REMARK    1  A    between atoms: C_5  and  O_6
REMARK    2  A    between atoms: C_5  and  C_7
REMARK    3  A    between atoms: C_9  and  C_10
REMARK                            x       y       z     vdW  Elec       q    Type
REMARK                         _______ _______ _______ _____ _____    ______ ____
ROOT
ATOM      1  C   UNL     1      -8.319  -3.159 125.730  0.00  0.00    +0.000 C 
ATOM      2  C   UNL     1      -9.726  -3.287 125.813  0.00  0.00    +0.000 C 
ATOM      3  C   UNL     1      -9.211  -1.901 125.848  0.00  0.00    +0.000 C 
ATOM      4  C   UNL     1      -7.239  -1.696 125.199  0.00  0.00    +0.000 C 
ATOM      5  C   UNL     1      -8.410  -1.708 124.496  0.00  0.00    +0.000 C 
ATOM      6  C   UNL     1      -8.646  -2.008 123.089  0.00  0.00    +0.000 C 
ATOM      7  C   UNL     1      -8.571   0.014 125.072  0.00  0.00    +0.000 C 
ATOM      8  C   UNL     1      -7.856   0.121 126.538  0.00  0.00    +0.000 C 
ATOM      9  C   UNL     1      -7.889  -1.106 127.634  0.00  0.00    +0.000 C 
ATOM     10  C   UNL     1      -7.134  -0.783 128.848  0.00  0.00    +0.000 C 
ATOM     11  C   UNL     1      -7.534   0.534 129.088  0.00  0.00    +0.000 C 
ATOM     12  C   UNL     1      -7.592   1.924 128.986  0.00  0.00    +0.000 C 
ATOM     13  C   UNL     1      -8.487   1.582 130.390  0.00  0.00    +0.000 C 
ATOM     14  O   UNL     1      -9.178   2.458 130.780  0.00  0.00    +0.000 OA
ATOM     15  C   UNL     1      -8.520  -0.286 130.907  0.00  0.00    +0.000 C 
ATOM     16  C   UNL     1      -7.887  -1.322 130.094  0.00  0.00    +0.000 C 
ATOM     17  C   UNL     1      -7.600  -2.899 129.869  0.00  0.00    +0.000 C 
ATOM     18  C   UNL     1      -7.981  -3.497 128.446  0.00  0.00    +0.000 C 
ATOM     19  C   UNL     1      -7.563  -2.605 127.286  0.00  0.00    +0.000 C 
ENDROOT
BRANCH   4  20
ATOM     20  O   UNL     1      -6.526  -0.731 124.343  0.00  0.00    +0.000 OA
ATOM     21  H   UNL     1      -6.891  -0.412 123.509  0.00  0.00    +0.000 HD
ENDBRANCH   4  20
BRANCH   4  22
ATOM     22  C   UNL     1      -6.296  -2.879 124.678  0.00  0.00    +0.000 C 
ATOM     23  C   UNL     1      -5.503  -3.662 124.243  0.00  0.00    +0.000 C 
ENDBRANCH   4  22
TORSDOF 2
ENDMDL
MODEL 2
REMARK VINA RESULT:      -7.7      2.528      3.571
REMARK  Name = Norethisterone
REMARK  3 active torsions:
REMARK  status: ('A' for Active; 'I' for Inactive)
REMARK    1  A    between atoms: C_5  and  O_6
REMARK    2  A    between atoms: C_5  and  C_7
REMARK    3  A    between atoms: C_9  and  C_10
REMARK                            x       y       z     vdW  Elec       q    Type
REMARK                         _______ _______ _______ _____ _____    ______ ____
ROOT
ATOM      1  C   UNL     1      -6.988  -2.317 125.871  0.00  0.00    +0.000 C 
ATOM      2  C   UNL     1      -8.021  -2.418 126.832  0.00  0.00    +0.000 C 
ATOM      3  C   UNL     1      -8.291  -1.502 125.701  0.00  0.00    +0.000 C 
ATOM      4  C   UNL     1      -7.031  -1.762 124.060  0.00  0.00    +0.000 C 
ATOM      5  C   UNL     1      -8.195  -2.393 124.396  0.00  0.00    +0.000 C 
ATOM      6  C   UNL     1      -8.700  -3.695 123.980  0.00  0.00    +0.000 C 
ATOM      7  C   UNL     1      -8.995  -0.888 123.751  0.00  0.00    +0.000 C 
ATOM      8  C   UNL     1      -7.991   0.372 124.029  0.00  0.00    +0.000 C 
ATOM      9  C   UNL     1      -7.041   0.471 125.369  0.00  0.00    +0.000 C 
ATOM     10  C   UNL     1      -6.195   1.669 125.360  0.00  0.00    +0.000 C 
ATOM     11  C   UNL     1      -7.095   2.646 124.926  0.00  0.00    +0.000 C 
ATOM     12  C   UNL     1      -7.871   3.421 124.065  0.00  0.00    +0.000 C 
ATOM     13  C   UNL     1      -7.950   4.255 125.544  0.00  0.00    +0.000 C 
ATOM     14  O   UNL     1      -8.812   5.059 125.630  0.00  0.00    +0.000 OA
ATOM     15  C   UNL     1      -6.871   3.503 126.968  0.00  0.00    +0.000 C 
ATOM     16  C   UNL     1      -6.116   2.266 126.791  0.00  0.00    +0.000 C 
ATOM     17  C   UNL     1      -5.171   1.133 127.458  0.00  0.00    +0.000 C 
ATOM     18  C   UNL     1      -5.648  -0.375 127.300  0.00  0.00    +0.000 C 
ATOM     19  C   UNL     1      -6.144  -0.708 125.901  0.00  0.00    +0.000 C 
ENDROOT
BRANCH   4  20
ATOM     20  O   UNL     1      -7.228  -1.793 122.599  0.00  0.00    +0.000 OA
ATOM     21  H   UNL     1      -7.198  -2.612 122.091  0.00  0.00    +0.000 HD
ENDBRANCH   4  20
BRANCH   4  22
ATOM     22  C   UNL     1      -5.858  -2.842 123.940  0.00  0.00    +0.000 C 
ATOM     23  C   UNL     1      -4.945  -3.587 123.730  0.00  0.00    +0.000 C 
ENDBRANCH   4  22
TORSDOF 2
ENDMDL
MODEL 3
REMARK VINA RESULT:      -7.7      2.031      5.924
REMARK  Name = Norethisterone
REMARK  3 active torsions:
REMARK  status: ('A' for Active; 'I' for Inactive)
REMARK    1  A    between atoms: C_5  and  O_6
REMARK    2  A    between atoms: C_5  and  C_7
REMARK    3  A    between atoms: C_9  and  C_10
REMARK                            x       y       z     vdW  Elec       q    Type
REMARK                         _______ _______ _______ _____ _____    ______ ____
ROOT
ATOM      1  C   UNL     1      -7.036  -3.069 130.463  0.00  0.00    +0.000 C 
ATOM      2  C   UNL     1      -6.389  -4.327 130.462  0.00  0.00    +0.000 C 
ATOM      3  C   UNL     1      -5.758  -3.287 129.619  0.00  0.00    +0.000 C 
ATOM      4  C   UNL     1      -6.386  -1.342 130.034  0.00  0.00    +0.000 C 
ATOM      5  C   UNL     1      -5.401  -2.099 130.601  0.00  0.00    +0.000 C 
ATOM      6  C   UNL     1      -4.775  -1.978 131.912  0.00  0.00    +0.000 C 
ATOM      7  C   UNL     1      -4.441  -1.647 129.119  0.00  0.00    +0.000 C 
ATOM      8  C   UNL     1      -5.489  -1.473 127.877  0.00  0.00    +0.000 C 
ATOM      9  C   UNL     1      -6.838  -2.402 127.716  0.00  0.00    +0.000 C 
ATOM     10  C   UNL     1      -7.639  -2.017 126.550  0.00  0.00    +0.000 C 
ATOM     11  C   UNL     1      -6.653  -1.838 125.576  0.00  0.00    +0.000 C 
ATOM     12  C   UNL     1      -5.637  -1.232 124.838  0.00  0.00    +0.000 C 
ATOM     13  C   UNL     1      -6.070  -2.583 123.901  0.00  0.00    +0.000 C 
ATOM     14  O   UNL     1      -5.294  -2.892 123.065  0.00  0.00    +0.000 OA
ATOM     15  C   UNL     1      -7.562  -3.612 124.587  0.00  0.00    +0.000 C 
ATOM     16  C   UNL     1      -8.203  -3.287 125.858  0.00  0.00    +0.000 C 
ATOM     17  C   UNL     1      -9.309  -3.681 126.973  0.00  0.00    +0.000 C 
ATOM     18  C   UNL     1      -8.796  -3.810 128.471  0.00  0.00    +0.000 C 
ATOM     19  C   UNL     1      -7.852  -2.690 128.884  0.00  0.00    +0.000 C 
ENDROOT
BRANCH   4  20
ATOM     20  O   UNL     1      -5.706  -0.040 130.160  0.00  0.00    +0.000 OA
ATOM     21  H   UNL     1      -5.683   0.602 129.441  0.00  0.00    +0.000 HD
ENDBRANCH   4  20
BRANCH   4  22
ATOM     22  C   UNL     1      -7.441  -0.918 131.158  0.00  0.00    +0.000 C 
ATOM     23  C   UNL     1      -8.198  -0.466 131.969  0.00  0.00    +0.000 C 
ENDBRANCH   4  22
TORSDOF 2
ENDMDL
MODEL 4
REMARK VINA RESULT:      -7.6      3.438      5.479
REMARK  Name = Norethisterone
REMARK  3 active torsions:
REMARK  status: ('A' for Active; 'I' for Inactive)
REMARK    1  A    between atoms: C_5  and  O_6
REMARK    2  A    between atoms: C_5  and  C_7
REMARK    3  A    between atoms: C_9  and  C_10
REMARK                            x       y       z     vdW  Elec       q    Type
REMARK                         _______ _______ _______ _____ _____    ______ ____
ROOT
ATOM      1  C   UNL     1      -8.511  -2.322 123.381  0.00  0.00    +0.000 C 
ATOM      2  C   UNL     1      -7.969  -2.570 122.098  0.00  0.00    +0.000 C 
ATOM      3  C   UNL     1      -7.116  -1.770 123.005  0.00  0.00    +0.000 C 
ATOM      4  C   UNL     1      -7.667  -1.864 125.014  0.00  0.00    +0.000 C 
ATOM      5  C   UNL     1      -6.865  -2.684 124.273  0.00  0.00    +0.000 C 
ATOM      6  C   UNL     1      -6.492  -4.075 124.501  0.00  0.00    +0.000 C 
ATOM      7  C   UNL     1      -5.611  -1.383 124.509  0.00  0.00    +0.000 C 
ATOM      8  C   UNL     1      -6.389   0.051 124.602  0.00  0.00    +0.000 C 
ATOM      9  C   UNL     1      -7.746   0.384 123.734  0.00  0.00    +0.000 C 
ATOM     10  C   UNL     1      -8.281   1.716 124.032  0.00  0.00    +0.000 C 
ATOM     11  C   UNL     1      -7.117   2.490 124.051  0.00  0.00    +0.000 C 
ATOM     12  C   UNL     1      -5.939   3.069 124.519  0.00  0.00    +0.000 C 
ATOM     13  C   UNL     1      -6.283   3.938 123.099  0.00  0.00    +0.000 C 
ATOM     14  O   UNL     1      -5.387   4.571 122.660  0.00  0.00    +0.000 OA
ATOM     15  C   UNL     1      -7.949   3.462 122.230  0.00  0.00    +0.000 C 
ATOM     16  C   UNL     1      -8.795   2.379 122.725  0.00  0.00    +0.000 C 
ATOM     17  C   UNL     1     -10.118   1.471 122.514  0.00  0.00    +0.000 C 
ATOM     18  C   UNL     1      -9.909  -0.104 122.522  0.00  0.00    +0.000 C 
ATOM     19  C   UNL     1      -8.982  -0.585 123.629  0.00  0.00    +0.000 C 
ENDROOT
BRANCH   4  20
ATOM     20  O   UNL     1      -6.930  -1.995 126.284  0.00  0.00    +0.000 OA
ATOM     21  H   UNL     1      -7.349  -1.857 127.142  0.00  0.00    +0.000 HD
ENDBRANCH   4  20
BRANCH   4  22
ATOM     22  C   UNL     1      -8.883  -2.713 125.614  0.00  0.00    +0.000 C 
ATOM     23  C   UNL     1      -9.763  -3.287 126.187  0.00  0.00    +0.000 C 
ENDBRANCH   4  22
TORSDOF 2
ENDMDL
MODEL 5
REMARK VINA RESULT:      -7.6      5.937      8.610
REMARK  Name = Norethisterone
REMARK  3 active torsions:
REMARK  status: ('A' for Active; 'I' for Inactive)
REMARK    1  A    between atoms: C_5  and  O_6
REMARK    2  A    between atoms: C_5  and  C_7
REMARK    3  A    between atoms: C_9  and  C_10
REMARK                            x       y       z     vdW  Elec       q    Type
REMARK                         _______ _______ _______ _____ _____    ______ ____
ROOT
ATOM      1  C   UNL     1      -9.291   6.652 131.297  0.00  0.00    +0.000 C 
ATOM      2  C   UNL     1      -8.005   7.032 130.845  0.00  0.00    +0.000 C 
ATOM      3  C   UNL     1      -8.436   5.668 130.465  0.00  0.00    +0.000 C 
ATOM      4  C   UNL     1     -10.482   5.322 130.665  0.00  0.00    +0.000 C 
ATOM      5  C   UNL     1      -9.768   5.856 129.631  0.00  0.00    +0.000 C 
ATOM      6  C   UNL     1     -10.209   6.726 128.548  0.00  0.00    +0.000 C 
ATOM      7  C   UNL     1      -9.346   4.123 129.256  0.00  0.00    +0.000 C 
ATOM      8  C   UNL     1      -9.304   3.301 130.667  0.00  0.00    +0.000 C 
ATOM      9  C   UNL     1      -8.778   3.976 132.073  0.00  0.00    +0.000 C 
ATOM     10  C   UNL     1      -8.887   3.050 133.205  0.00  0.00    +0.000 C 
ATOM     11  C   UNL     1      -8.410   1.862 132.645  0.00  0.00    +0.000 C 
ATOM     12  C   UNL     1      -8.395   0.670 131.921  0.00  0.00    +0.000 C 
ATOM     13  C   UNL     1      -6.956   0.615 132.824  0.00  0.00    +0.000 C 
ATOM     14  O   UNL     1      -6.157  -0.176 132.461  0.00  0.00    +0.000 OA
ATOM     15  C   UNL     1      -6.704   2.091 134.055  0.00  0.00    +0.000 C 
ATOM     16  C   UNL     1      -7.648   3.203 134.129  0.00  0.00    +0.000 C 
ATOM     17  C   UNL     1      -8.019   4.642 134.770  0.00  0.00    +0.000 C 
ATOM     18  C   UNL     1      -8.341   5.816 133.748  0.00  0.00    +0.000 C 
ATOM     19  C   UNL     1      -9.240   5.385 132.598  0.00  0.00    +0.000 C 
ENDROOT
BRANCH   4  20
ATOM     20  O   UNL     1     -11.502   4.643 129.845  0.00  0.00    +0.000 OA
ATOM     21  H   UNL     1     -11.486   3.693 129.682  0.00  0.00    +0.000 HD
ENDBRANCH   4  20
BRANCH   4  22
ATOM     22  C   UNL     1     -11.568   6.385 131.164  0.00  0.00    +0.000 C 
ATOM     23  C   UNL     1     -12.438   7.075 131.611  0.00  0.00    +0.000 C 
ENDBRANCH   4  22
TORSDOF 2
ENDMDL
MODEL 6
REMARK VINA RESULT:      -7.5      2.289      5.797
REMARK  Name = Norethisterone
REMARK  3 active torsions:
REMARK  status: ('A' for Active; 'I' for Inactive)
REMARK    1  A    between atoms: C_5  and  O_6
REMARK    2  A    between atoms: C_5  and  C_7
REMARK    3  A    between atoms: C_9  and  C_10
REMARK                            x       y       z     vdW  Elec       q    Type
REMARK                         _______ _______ _______ _____ _____    ______ ____
ROOT
ATOM      1  C   UNL     1      -6.205  -1.068 129.737  0.00  0.00    +0.000 C 
ATOM      2  C   UNL     1      -7.197  -0.080 129.934  0.00  0.00    +0.000 C 
ATOM      3  C   UNL     1      -7.670  -1.343 129.326  0.00  0.00    +0.000 C 
ATOM      4  C   UNL     1      -6.351  -2.946 129.530  0.00  0.00    +0.000 C 
ATOM      5  C   UNL     1      -7.320  -2.479 130.371  0.00  0.00    +0.000 C 
ATOM      6  C   UNL     1      -7.464  -2.655 131.811  0.00  0.00    +0.000 C 
ATOM      7  C   UNL     1      -8.466  -3.353 129.255  0.00  0.00    +0.000 C 
ATOM      8  C   UNL     1      -7.826  -3.317 127.752  0.00  0.00    +0.000 C 
ATOM      9  C   UNL     1      -6.962  -2.037 127.184  0.00  0.00    +0.000 C 
ATOM     10  C   UNL     1      -6.454  -2.271 125.829  0.00  0.00    +0.000 C 
ATOM     11  C   UNL     1      -7.565  -2.843 125.205  0.00  0.00    +0.000 C 
ATOM     12  C   UNL     1      -8.495  -3.806 124.814  0.00  0.00    +0.000 C 
ATOM     13  C   UNL     1      -8.818  -2.489 123.789  0.00  0.00    +0.000 C 
ATOM     14  O   UNL     1      -9.860  -2.522 123.231  0.00  0.00    +0.000 OA
ATOM     15  C   UNL     1      -7.612  -0.984 123.983  0.00  0.00    +0.000 C 
ATOM     16  C   UNL     1      -6.561  -0.964 124.997  0.00  0.00    +0.000 C 
ATOM     17  C   UNL     1      -5.371  -0.137 125.718  0.00  0.00    +0.000 C 
ATOM     18  C   UNL     1      -5.440  -0.023 127.301  0.00  0.00    +0.000 C 
ATOM     19  C   UNL     1      -5.805  -1.333 127.985  0.00  0.00    +0.000 C 
ENDROOT
BRANCH   4  20
ATOM     20  O   UNL     1      -6.502  -4.375 129.859  0.00  0.00    +0.000 OA
ATOM     21  H   UNL     1      -6.667  -5.046 129.186  0.00  0.00    +0.000 HD
ENDBRANCH   4  20
BRANCH   4  22
ATOM     22  C   UNL     1      -4.937  -2.907 130.277  0.00  0.00    +0.000 C 
ATOM     23  C   UNL     1      -3.851  -3.000 130.771  0.00  0.00    +0.000 C 
ENDBRANCH   4  22
TORSDOF 2
ENDMDL
MODEL 7
REMARK VINA RESULT:      -7.0      3.999      7.111
REMARK  Name = Norethisterone
REMARK  3 active torsions:
REMARK  status: ('A' for Active; 'I' for Inactive)
REMARK    1  A    between atoms: C_5  and  O_6
REMARK    2  A    between atoms: C_5  and  C_7
REMARK    3  A    between atoms: C_9  and  C_10
REMARK                            x       y       z     vdW  Elec       q    Type
REMARK                         _______ _______ _______ _____ _____    ______ ____
ROOT
ATOM      1  C   UNL     1      -4.415   4.410 126.363  0.00  0.00    +0.000 C 
ATOM      2  C   UNL     1      -5.232   5.500 126.745  0.00  0.00    +0.000 C 
ATOM      3  C   UNL     1      -5.792   4.158 127.022  0.00  0.00    +0.000 C 
ATOM      4  C   UNL     1      -4.396   2.610 126.955  0.00  0.00    +0.000 C 
ATOM      5  C   UNL     1      -4.747   3.447 127.976  0.00  0.00    +0.000 C 
ATOM      6  C   UNL     1      -4.002   3.820 129.171  0.00  0.00    +0.000 C 
ATOM      7  C   UNL     1      -6.195   2.353 128.142  0.00  0.00    +0.000 C 
ATOM      8  C   UNL     1      -6.561   1.776 126.657  0.00  0.00    +0.000 C 
ATOM      9  C   UNL     1      -6.374   2.668 125.287  0.00  0.00    +0.000 C 
ATOM     10  C   UNL     1      -6.722   1.909 124.082  0.00  0.00    +0.000 C 
ATOM     11  C   UNL     1      -7.898   1.268 124.482  0.00  0.00    +0.000 C 
ATOM     12  C   UNL     1      -8.738   0.331 125.081  0.00  0.00    +0.000 C 
ATOM     13  C   UNL     1      -9.774   1.213 124.062  0.00  0.00    +0.000 C 
ATOM     14  O   UNL     1     -10.929   1.090 124.280  0.00  0.00    +0.000 OA
ATOM     15  C   UNL     1      -8.901   2.554 122.967  0.00  0.00    +0.000 C 
ATOM     16  C   UNL     1      -7.471   2.829 123.081  0.00  0.00    +0.000 C 
ATOM     17  C   UNL     1      -6.211   3.734 122.617  0.00  0.00    +0.000 C 
ATOM     18  C   UNL     1      -5.362   4.418 123.772  0.00  0.00    +0.000 C 
ATOM     19  C   UNL     1      -5.077   3.489 124.943  0.00  0.00    +0.000 C 
ENDROOT
BRANCH   4  20
ATOM     20  O   UNL     1      -4.129   1.421 127.785  0.00  0.00    +0.000 OA
ATOM     21  H   UNL     1      -4.645   1.214 128.573  0.00  0.00    +0.000 HD
ENDBRANCH   4  20
BRANCH   4  22
ATOM     22  C   UNL     1      -2.833   2.770 126.654  0.00  0.00    +0.000 C 
ATOM     23  C   UNL     1      -1.648   2.913 126.567  0.00  0.00    +0.000 C 
ENDBRANCH   4  22
TORSDOF 2
ENDMDL
MODEL 8
REMARK VINA RESULT:      -6.9      1.903      2.914
REMARK  Name = Norethisterone
REMARK  3 active torsions:
REMARK  status: ('A' for Active; 'I' for Inactive)
REMARK    1  A    between atoms: C_5  and  O_6
REMARK    2  A    between atoms: C_5  and  C_7
REMARK    3  A    between atoms: C_9  and  C_10
REMARK                            x       y       z     vdW  Elec       q    Type
REMARK                         _______ _______ _______ _____ _____    ______ ____
ROOT
ATOM      1  C   UNL     1      -7.029  -2.831 128.784  0.00  0.00    +0.000 C 
ATOM      2  C   UNL     1      -8.298  -3.332 128.409  0.00  0.00    +0.000 C 
ATOM      3  C   UNL     1      -8.029  -1.928 128.024  0.00  0.00    +0.000 C 
ATOM      4  C   UNL     1      -6.018  -1.383 128.098  0.00  0.00    +0.000 C 
ATOM      5  C   UNL     1      -6.743  -1.975 127.103  0.00  0.00    +0.000 C 
ATOM      6  C   UNL     1      -6.290  -2.787 125.980  0.00  0.00    +0.000 C 
ATOM      7  C   UNL     1      -7.356  -0.289 126.784  0.00  0.00    +0.000 C 
ATOM      8  C   UNL     1      -7.386   0.511 128.209  0.00  0.00    +0.000 C 
ATOM      9  C   UNL     1      -7.750  -0.226 129.634  0.00  0.00    +0.000 C 
ATOM     10  C   UNL     1      -7.659   0.695 130.772  0.00  0.00    +0.000 C 
ATOM     11  C   UNL     1      -8.285   1.836 130.263  0.00  0.00    +0.000 C 
ATOM     12  C   UNL     1      -8.465   3.027 129.560  0.00  0.00    +0.000 C 
ATOM     13  C   UNL     1      -9.839   2.930 130.555  0.00  0.00    +0.000 C 
ATOM     14  O   UNL     1     -10.735   3.641 130.257  0.00  0.00    +0.000 OA
ATOM     15  C   UNL     1      -9.864   1.424 131.775  0.00  0.00    +0.000 C 
ATOM     16  C   UNL     1      -8.813   0.410 131.770  0.00  0.00    +0.000 C 
ATOM     17  C   UNL     1      -8.261  -0.991 132.363  0.00  0.00    +0.000 C 
ATOM     18  C   UNL     1      -7.893  -2.117 131.304  0.00  0.00    +0.000 C 
ATOM     19  C   UNL     1      -7.118  -1.588 130.106  0.00  0.00    +0.000 C 
ENDROOT
BRANCH   4  20
ATOM     20  O   UNL     1      -5.125  -0.598 127.225  0.00  0.00    +0.000 OA
ATOM     21  H   UNL     1      -4.695   0.213 127.520  0.00  0.00    +0.000 HD
ENDBRANCH   4  20
BRANCH   4  22
ATOM     22  C   UNL     1      -4.802  -2.338 128.508  0.00  0.00    +0.000 C 
ATOM     23  C   UNL     1      -3.896  -2.990 128.941  0.00  0.00    +0.000 C 
ENDBRANCH   4  22
TORSDOF 2
ENDMDL
MODEL 9
REMARK VINA RESULT:      -6.8      2.138      2.809
REMARK  Name = Norethisterone
REMARK  3 active torsions:
REMARK  status: ('A' for Active; 'I' for Inactive)
REMARK    1  A    between atoms: C_5  and  O_6
REMARK    2  A    between atoms: C_5  and  C_7
REMARK    3  A    between atoms: C_9  and  C_10
REMARK                            x       y       z     vdW  Elec       q    Type
REMARK                         _______ _______ _______ _____ _____    ______ ____
ROOT
ATOM      1  C   UNL     1      -8.137  -1.014 125.286  0.00  0.00    +0.000 C 
ATOM      2  C   UNL     1      -9.201  -0.184 125.710  0.00  0.00    +0.000 C 
ATOM      3  C   UNL     1      -7.919   0.011 126.424  0.00  0.00    +0.000 C 
ATOM      4  C   UNL     1      -6.261  -0.808 125.460  0.00  0.00    +0.000 C 
ATOM      5  C   UNL     1      -6.866   0.408 125.312  0.00  0.00    +0.000 C 
ATOM      6  C   UNL     1      -6.834   1.330 124.183  0.00  0.00    +0.000 C 
ATOM      7  C   UNL     1      -5.968   0.846 126.836  0.00  0.00    +0.000 C 
ATOM      8  C   UNL     1      -5.822  -0.508 127.739  0.00  0.00    +0.000 C 
ATOM      9  C   UNL     1      -6.985  -1.671 127.791  0.00  0.00    +0.000 C 
ATOM     10  C   UNL     1      -6.595  -2.807 128.631  0.00  0.00    +0.000 C 
ATOM     11  C   UNL     1      -6.039  -2.161 129.739  0.00  0.00    +0.000 C 
ATOM     12  C   UNL     1      -5.106  -1.499 130.536  0.00  0.00    +0.000 C 
ATOM     13  C   UNL     1      -6.340  -1.926 131.624  0.00  0.00    +0.000 C 
ATOM     14  O   UNL     1      -6.323  -1.359 132.661  0.00  0.00    +0.000 OA
ATOM     15  C   UNL     1      -7.776  -2.982 130.862  0.00  0.00    +0.000 C 
ATOM     16  C   UNL     1      -7.822  -3.308 129.439  0.00  0.00    +0.000 C 
ATOM     17  C   UNL     1      -8.634  -3.993 128.218  0.00  0.00    +0.000 C 
ATOM     18  C   UNL     1      -8.899  -3.085 126.941  0.00  0.00    +0.000 C 
ATOM     19  C   UNL     1      -7.684  -2.272 126.516  0.00  0.00    +0.000 C 
ENDROOT
BRANCH   4  20
ATOM     20  O   UNL     1      -4.882  -0.353 125.208  0.00  0.00    +0.000 OA
ATOM     21  H   UNL     1      -4.458  -0.441 124.346  0.00  0.00    +0.000 HD
ENDBRANCH   4  20
BRANCH   4  22
ATOM     22  C   UNL     1      -6.278  -1.582 124.061  0.00  0.00    +0.000 C 
ATOM     23  C   UNL     1      -6.155  -2.125 123.001  0.00  0.00    +0.000 C 
ENDBRANCH   4  22
TORSDOF 2
ENDMDL
