MODEL 1
REMARK VINA RESULT:      -5.6      0.000      0.000
REMARK  Name = Norepinephrine
REMARK  6 active torsions:
REMARK  status: ('A' for Active; 'I' for Inactive)
REMARK    1  A    between atoms: N_1  and  C_2
REMARK    2  A    between atoms: C_2  and  C_3
REMARK    3  A    between atoms: C_3  and  O_4
REMARK    4  A    between atoms: C_3  and  C_5
REMARK    5  A    between atoms: C_7  and  O_8
REMARK    6  A    between atoms: C_9  and  O_10
REMARK                            x       y       z     vdW  Elec       q    Type
REMARK                         _______ _______ _______ _____ _____    ______ ____
ROOT
ATOM      1  C   UNL     1     -11.560   7.669 129.490  0.00  0.00    +0.000 A 
ATOM      2  C   UNL     1     -10.214   7.415 129.815  0.00  0.00    +0.000 A 
ATOM      3  C   UNL     1      -9.852   6.675 130.924  0.00  0.00    +0.000 A 
ATOM      4  C   UNL     1     -10.820   6.339 131.864  0.00  0.00    +0.000 A 
ATOM      5  C   UNL     1     -12.140   6.698 131.653  0.00  0.00    +0.000 A 
ATOM      6  C   UNL     1     -12.520   7.334 130.465  0.00  0.00    +0.000 A 
ENDROOT
BRANCH   3   7
ATOM      7  O   UNL     1      -8.567   6.265 131.134  0.00  0.00    +0.000 OA
ATOM      8  H   UNL     1      -8.594   5.380 131.546  0.00  0.00    +0.000 HD
ENDBRANCH   3   7
BRANCH   4   9
ATOM      9  O   UNL     1     -10.452   5.691 133.002  0.00  0.00    +0.000 OA
ATOM     10  H   UNL     1     -10.691   4.755 132.842  0.00  0.00    +0.000 HD
ENDBRANCH   4   9
BRANCH   1  11
ATOM     11  C   UNL     1     -12.013   8.320 128.185  0.00  0.00    +0.000 C 
BRANCH  11  12
ATOM     12  O   UNL     1     -10.859   8.813 127.509  0.00  0.00    +0.000 OA
ATOM     13  H   UNL     1     -10.961   9.780 127.513  0.00  0.00    +0.000 HD
ENDBRANCH  11  12
BRANCH  11  14
ATOM     14  C   UNL     1     -12.844   7.431 127.203  0.00  0.00    +0.000 C 
BRANCH  14  15
ATOM     15  N   UNL     1     -11.997   6.674 126.269  0.00  0.00    +0.000 NA
ATOM     16  H   UNL     1     -11.023   6.957 126.330  0.00  0.00    +0.000 HD
ATOM     17  H   UNL     1     -12.281   6.998 125.343  0.00  0.00    +0.000 HD
ENDBRANCH  14  15
ENDBRANCH  11  14
ENDBRANCH   1  11
TORSDOF 6
ENDMDL
MODEL 2
REMARK VINA RESULT:      -5.5      9.109     10.631
REMARK  Name = Norepinephrine
REMARK  6 active torsions:
REMARK  status: ('A' for Active; 'I' for Inactive)
REMARK    1  A    between atoms: N_1  and  C_2
REMARK    2  A    between atoms: C_2  and  C_3
REMARK    3  A    between atoms: C_3  and  O_4
REMARK    4  A    between atoms: C_3  and  C_5
REMARK    5  A    between atoms: C_7  and  O_8
REMARK    6  A    between atoms: C_9  and  O_10
REMARK                            x       y       z     vdW  Elec       q    Type
REMARK                         _______ _______ _______ _____ _____    ______ ____
ROOT
ATOM      1  C   UNL     1      -6.383   3.645 122.204  0.00  0.00    +0.000 A 
ATOM      2  C   UNL     1      -5.215   4.428 122.160  0.00  0.00    +0.000 A 
ATOM      3  C   UNL     1      -4.893   5.207 121.065  0.00  0.00    +0.000 A 
ATOM      4  C   UNL     1      -5.623   5.066 119.891  0.00  0.00    +0.000 A 
ATOM      5  C   UNL     1      -6.696   4.192 119.847  0.00  0.00    +0.000 A 
ATOM      6  C   UNL     1      -7.097   3.505 120.999  0.00  0.00    +0.000 A 
ENDROOT
BRANCH   3   7
ATOM      7  O   UNL     1      -3.870   6.111 121.095  0.00  0.00    +0.000 OA
ATOM      8  H   UNL     1      -3.028   5.618 121.073  0.00  0.00    +0.000 HD
ENDBRANCH   3   7
BRANCH   4   9
ATOM      9  O   UNL     1      -5.251   5.761 118.783  0.00  0.00    +0.000 OA
ATOM     10  H   UNL     1      -5.359   6.702 119.035  0.00  0.00    +0.000 HD
ENDBRANCH   4   9
BRANCH   1  11
ATOM     11  C   UNL     1      -6.874   2.916 123.455  0.00  0.00    +0.000 C 
BRANCH  11  12
ATOM     12  O   UNL     1      -6.366   3.602 124.597  0.00  0.00    +0.000 OA
ATOM     13  H   UNL     1      -6.165   2.900 125.241  0.00  0.00    +0.000 HD
ENDBRANCH  11  12
BRANCH  11  14
ATOM     14  C   UNL     1      -8.420   2.737 123.607  0.00  0.00    +0.000 C 
BRANCH  14  15
ATOM     15  N   UNL     1      -8.947   3.377 124.822  0.00  0.00    +0.000 NA
ATOM     16  H   UNL     1      -9.793   2.920 125.152  0.00  0.00    +0.000 HD
ATOM     17  H   UNL     1      -9.278   4.291 124.509  0.00  0.00    +0.000 HD
ENDBRANCH  14  15
ENDBRANCH  11  14
ENDBRANCH   1  11
TORSDOF 6
ENDMDL
MODEL 3
REMARK VINA RESULT:      -5.5      1.960      4.204
REMARK  Name = Norepinephrine
REMARK  6 active torsions:
REMARK  status: ('A' for Active; 'I' for Inactive)
REMARK    1  A    between atoms: N_1  and  C_2
REMARK    2  A    between atoms: C_2  and  C_3
REMARK    3  A    between atoms: C_3  and  O_4
REMARK    4  A    between atoms: C_3  and  C_5
REMARK    5  A    between atoms: C_7  and  O_8
REMARK    6  A    between atoms: C_9  and  O_10
REMARK                            x       y       z     vdW  Elec       q    Type
REMARK                         _______ _______ _______ _____ _____    ______ ____
ROOT
ATOM      1  C   UNL     1     -10.931   6.717 130.693  0.00  0.00    +0.000 A 
ATOM      2  C   UNL     1     -10.484   7.220 129.457  0.00  0.00    +0.000 A 
ATOM      3  C   UNL     1     -11.109   8.278 128.823  0.00  0.00    +0.000 A 
ATOM      4  C   UNL     1     -12.330   8.733 129.304  0.00  0.00    +0.000 A 
ATOM      5  C   UNL     1     -12.881   8.164 130.440  0.00  0.00    +0.000 A 
ATOM      6  C   UNL     1     -12.179   7.182 131.151  0.00  0.00    +0.000 A 
ENDROOT
BRANCH   3   7
ATOM      7  O   UNL     1     -10.566   8.890 127.731  0.00  0.00    +0.000 OA
ATOM      8  H   UNL     1      -9.906   8.285 127.340  0.00  0.00    +0.000 HD
ENDBRANCH   3   7
BRANCH   4   9
ATOM      9  O   UNL     1     -12.994   9.710 128.629  0.00  0.00    +0.000 OA
ATOM     10  H   UNL     1     -13.406   9.249 127.870  0.00  0.00    +0.000 HD
ENDBRANCH   4   9
BRANCH   1  11
ATOM     11  C   UNL     1     -10.171   5.679 131.516  0.00  0.00    +0.000 C 
BRANCH  11  12
ATOM     12  O   UNL     1     -10.783   5.594 132.801  0.00  0.00    +0.000 OA
ATOM     13  H   UNL     1     -10.892   6.517 133.087  0.00  0.00    +0.000 HD
ENDBRANCH  11  12
BRANCH  11  14
ATOM     14  C   UNL     1     -10.050   4.245 130.906  0.00  0.00    +0.000 C 
BRANCH  14  15
ATOM     15  N   UNL     1     -11.319   3.762 130.339  0.00  0.00    +0.000 NA
ATOM     16  H   UNL     1     -12.070   4.434 130.469  0.00  0.00    +0.000 HD
ATOM     17  H   UNL     1     -11.590   2.983 130.941  0.00  0.00    +0.000 HD
ENDBRANCH  14  15
ENDBRANCH  11  14
ENDBRANCH   1  11
TORSDOF 6
ENDMDL
MODEL 4
REMARK VINA RESULT:      -5.4      2.844      4.893
REMARK  Name = Norepinephrine
REMARK  6 active torsions:
REMARK  status: ('A' for Active; 'I' for Inactive)
REMARK    1  A    between atoms: N_1  and  C_2
REMARK    2  A    between atoms: C_2  and  C_3
REMARK    3  A    between atoms: C_3  and  O_4
REMARK    4  A    between atoms: C_3  and  C_5
REMARK    5  A    between atoms: C_7  and  O_8
REMARK    6  A    between atoms: C_9  and  O_10
REMARK                            x       y       z     vdW  Elec       q    Type
REMARK                         _______ _______ _______ _____ _____    ______ ____
ROOT
ATOM      1  C   UNL     1     -11.763   7.439 129.620  0.00  0.00    +0.000 A 
ATOM      2  C   UNL     1     -12.566   6.929 128.582  0.00  0.00    +0.000 A 
ATOM      3  C   UNL     1     -12.207   7.038 127.253  0.00  0.00    +0.000 A 
ATOM      4  C   UNL     1     -11.133   7.848 126.902  0.00  0.00    +0.000 A 
ATOM      5  C   UNL     1     -10.402   8.489 127.888  0.00  0.00    +0.000 A 
ATOM      6  C   UNL     1     -10.691   8.269 129.240  0.00  0.00    +0.000 A 
ENDROOT
BRANCH   3   7
ATOM      7  O   UNL     1     -12.879   6.379 126.264  0.00  0.00    +0.000 OA
ATOM      8  H   UNL     1     -12.625   5.437 126.301  0.00  0.00    +0.000 HD
ENDBRANCH   3   7
BRANCH   4   9
ATOM      9  O   UNL     1     -10.834   8.033 125.588  0.00  0.00    +0.000 OA
ATOM     10  H   UNL     1     -10.289   7.255 125.348  0.00  0.00    +0.000 HD
ENDBRANCH   4   9
BRANCH   1  11
ATOM     11  C   UNL     1     -12.023   7.183 131.104  0.00  0.00    +0.000 C 
BRANCH  11  12
ATOM     12  O   UNL     1     -13.429   7.039 131.290  0.00  0.00    +0.000 OA
ATOM     13  H   UNL     1     -13.549   6.980 132.254  0.00  0.00    +0.000 HD
ENDBRANCH  11  12
BRANCH  11  14
ATOM     14  C   UNL     1     -11.290   5.962 131.748  0.00  0.00    +0.000 C 
BRANCH  14  15
ATOM     15  N   UNL     1     -10.361   6.359 132.818  0.00  0.00    +0.000 NA
ATOM     16  H   UNL     1     -10.648   5.993 133.722  0.00  0.00    +0.000 HD
ATOM     17  H   UNL     1     -10.497   7.367 132.916  0.00  0.00    +0.000 HD
ENDBRANCH  14  15
ENDBRANCH  11  14
ENDBRANCH   1  11
TORSDOF 6
ENDMDL
MODEL 5
REMARK VINA RESULT:      -5.2      1.587      1.608
REMARK  Name = Norepinephrine
REMARK  6 active torsions:
REMARK  status: ('A' for Active; 'I' for Inactive)
REMARK    1  A    between atoms: N_1  and  C_2
REMARK    2  A    between atoms: C_2  and  C_3
REMARK    3  A    between atoms: C_3  and  O_4
REMARK    4  A    between atoms: C_3  and  C_5
REMARK    5  A    between atoms: C_7  and  O_8
REMARK    6  A    between atoms: C_9  and  O_10
REMARK                            x       y       z     vdW  Elec       q    Type
REMARK                         _______ _______ _______ _____ _____    ______ ____
ROOT
ATOM      1  C   UNL     1     -11.369   7.789 129.668  0.00  0.00    +0.000 A 
ATOM      2  C   UNL     1     -10.036   7.414 129.918  0.00  0.00    +0.000 A 
ATOM      3  C   UNL     1      -9.694   6.560 130.949  0.00  0.00    +0.000 A 
ATOM      4  C   UNL     1     -10.652   6.218 131.896  0.00  0.00    +0.000 A 
ATOM      5  C   UNL     1     -11.948   6.688 131.767  0.00  0.00    +0.000 A 
ATOM      6  C   UNL     1     -12.318   7.445 130.649  0.00  0.00    +0.000 A 
ENDROOT
BRANCH   3   7
ATOM      7  O   UNL     1      -8.436   6.042 131.074  0.00  0.00    +0.000 OA
ATOM      8  H   UNL     1      -8.499   5.216 131.591  0.00  0.00    +0.000 HD
ENDBRANCH   3   7
BRANCH   4   9
ATOM      9  O   UNL     1     -10.296   5.454 132.963  0.00  0.00    +0.000 OA
ATOM     10  H   UNL     1     -10.488   6.015 133.743  0.00  0.00    +0.000 HD
ENDBRANCH   4   9
BRANCH   1  11
ATOM     11  C   UNL     1     -11.816   8.577 128.437  0.00  0.00    +0.000 C 
BRANCH  11  12
ATOM     12  O   UNL     1     -11.649   7.746 127.292  0.00  0.00    +0.000 OA
ATOM     13  H   UNL     1     -12.307   8.067 126.651  0.00  0.00    +0.000 HD
ENDBRANCH  11  12
BRANCH  11  14
ATOM     14  C   UNL     1     -13.272   9.146 128.453  0.00  0.00    +0.000 C 
BRANCH  14  15
ATOM     15  N   UNL     1     -13.336  10.528 128.954  0.00  0.00    +0.000 NA
ATOM     16  H   UNL     1     -14.049  11.070 128.474  0.00  0.00    +0.000 HD
ATOM     17  H   UNL     1     -12.462  10.955 128.641  0.00  0.00    +0.000 HD
ENDBRANCH  14  15
ENDBRANCH  11  14
ENDBRANCH   1  11
TORSDOF 6
ENDMDL
MODEL 6
REMARK VINA RESULT:      -5.2      0.932      1.991
REMARK  Name = Norepinephrine
REMARK  6 active torsions:
REMARK  status: ('A' for Active; 'I' for Inactive)
REMARK    1  A    between atoms: N_1  and  C_2
REMARK    2  A    between atoms: C_2  and  C_3
REMARK    3  A    between atoms: C_3  and  O_4
REMARK    4  A    between atoms: C_3  and  C_5
REMARK    5  A    between atoms: C_7  and  O_8
REMARK    6  A    between atoms: C_9  and  O_10
REMARK                            x       y       z     vdW  Elec       q    Type
REMARK                         _______ _______ _______ _____ _____    ______ ____
ROOT
ATOM      1  C   UNL     1     -11.439   7.434 129.903  0.00  0.00    +0.000 A 
ATOM      2  C   UNL     1     -11.589   6.570 131.005  0.00  0.00    +0.000 A 
ATOM      3  C   UNL     1     -10.522   6.204 131.802  0.00  0.00    +0.000 A 
ATOM      4  C   UNL     1      -9.230   6.523 131.400  0.00  0.00    +0.000 A 
ATOM      5  C   UNL     1      -9.029   7.250 130.239  0.00  0.00    +0.000 A 
ATOM      6  C   UNL     1     -10.121   7.730 129.506  0.00  0.00    +0.000 A 
ENDROOT
BRANCH   3   7
ATOM      7  O   UNL     1     -10.693   5.530 132.977  0.00  0.00    +0.000 OA
ATOM      8  H   UNL     1     -11.553   5.795 133.356  0.00  0.00    +0.000 HD
ENDBRANCH   3   7
BRANCH   4   9
ATOM      9  O   UNL     1      -8.172   6.084 132.134  0.00  0.00    +0.000 OA
ATOM     10  H   UNL     1      -7.736   5.418 131.563  0.00  0.00    +0.000 HD
ENDBRANCH   4   9
BRANCH   1  11
ATOM     11  C   UNL     1     -12.609   8.011 129.107  0.00  0.00    +0.000 C 
BRANCH  11  12
ATOM     12  O   UNL     1     -12.149   9.172 128.420  0.00  0.00    +0.000 OA
ATOM     13  H   UNL     1     -11.229   8.970 128.175  0.00  0.00    +0.000 HD
ENDBRANCH  11  12
BRANCH  11  14
ATOM     14  C   UNL     1     -13.311   7.053 128.090  0.00  0.00    +0.000 C 
BRANCH  14  15
ATOM     15  N   UNL     1     -12.488   6.790 126.900  0.00  0.00    +0.000 NA
ATOM     16  H   UNL     1     -11.497   6.893 127.096  0.00  0.00    +0.000 HD
ATOM     17  H   UNL     1     -12.688   7.570 126.271  0.00  0.00    +0.000 HD
ENDBRANCH  14  15
ENDBRANCH  11  14
ENDBRANCH   1  11
TORSDOF 6
ENDMDL
MODEL 7
REMARK VINA RESULT:      -5.1      3.244      4.597
REMARK  Name = Norepinephrine
REMARK  6 active torsions:
REMARK  status: ('A' for Active; 'I' for Inactive)
REMARK    1  A    between atoms: N_1  and  C_2
REMARK    2  A    between atoms: C_2  and  C_3
REMARK    3  A    between atoms: C_3  and  O_4
REMARK    4  A    between atoms: C_3  and  C_5
REMARK    5  A    between atoms: C_7  and  O_8
REMARK    6  A    between atoms: C_9  and  O_10
REMARK                            x       y       z     vdW  Elec       q    Type
REMARK                         _______ _______ _______ _____ _____    ______ ____
ROOT
ATOM      1  C   UNL     1     -12.530   8.604 128.994  0.00  0.00    +0.000 A 
ATOM      2  C   UNL     1     -13.075   7.955 127.871  0.00  0.00    +0.000 A 
ATOM      3  C   UNL     1     -12.298   7.217 126.998  0.00  0.00    +0.000 A 
ATOM      4  C   UNL     1     -10.914   7.278 127.103  0.00  0.00    +0.000 A 
ATOM      5  C   UNL     1     -10.330   8.027 128.110  0.00  0.00    +0.000 A 
ATOM      6  C   UNL     1     -11.125   8.665 129.069  0.00  0.00    +0.000 A 
ENDROOT
BRANCH   3   7
ATOM      7  O   UNL     1     -12.847   6.431 126.026  0.00  0.00    +0.000 OA
ATOM      8  H   UNL     1     -12.886   6.952 125.201  0.00  0.00    +0.000 HD
ENDBRANCH   3   7
BRANCH   4   9
ATOM      9  O   UNL     1     -10.144   6.629 126.189  0.00  0.00    +0.000 OA
ATOM     10  H   UNL     1     -10.725   6.522 125.408  0.00  0.00    +0.000 HD
ENDBRANCH   4   9
BRANCH   1  11
ATOM     11  C   UNL     1     -13.369   9.272 130.082  0.00  0.00    +0.000 C 
BRANCH  11  12
ATOM     12  O   UNL     1     -12.979   8.729 131.341  0.00  0.00    +0.000 OA
ATOM     13  H   UNL     1     -13.732   8.903 131.933  0.00  0.00    +0.000 HD
ENDBRANCH  11  12
BRANCH  11  14
ATOM     14  C   UNL     1     -13.316  10.833 130.156  0.00  0.00    +0.000 C 
BRANCH  14  15
ATOM     15  N   UNL     1     -13.716  11.474 128.893  0.00  0.00    +0.000 NA
ATOM     16  H   UNL     1     -14.302  12.288 129.053  0.00  0.00    +0.000 HD
ATOM     17  H   UNL     1     -14.352  10.805 128.456  0.00  0.00    +0.000 HD
ENDBRANCH  14  15
ENDBRANCH  11  14
ENDBRANCH   1  11
TORSDOF 6
ENDMDL
MODEL 8
REMARK VINA RESULT:      -5.0      8.495     10.320
REMARK  Name = Norepinephrine
REMARK  6 active torsions:
REMARK  status: ('A' for Active; 'I' for Inactive)
REMARK    1  A    between atoms: N_1  and  C_2
REMARK    2  A    between atoms: C_2  and  C_3
REMARK    3  A    between atoms: C_3  and  O_4
REMARK    4  A    between atoms: C_3  and  C_5
REMARK    5  A    between atoms: C_7  and  O_8
REMARK    6  A    between atoms: C_9  and  O_10
REMARK                            x       y       z     vdW  Elec       q    Type
REMARK                         _______ _______ _______ _____ _____    ______ ____
ROOT
ATOM      1  C   UNL     1      -8.117   2.930 122.582  0.00  0.00    +0.000 A 
ATOM      2  C   UNL     1      -8.998   3.365 121.574  0.00  0.00    +0.000 A 
ATOM      3  C   UNL     1      -8.548   3.813 120.347  0.00  0.00    +0.000 A 
ATOM      4  C   UNL     1      -7.189   4.039 120.162  0.00  0.00    +0.000 A 
ATOM      5  C   UNL     1      -6.298   3.761 121.184  0.00  0.00    +0.000 A 
ATOM      6  C   UNL     1      -6.747   3.184 122.378  0.00  0.00    +0.000 A 
ENDROOT
BRANCH   3   7
ATOM      7  O   UNL     1      -9.399   4.049 119.306  0.00  0.00    +0.000 OA
ATOM      8  H   UNL     1     -10.249   3.611 119.504  0.00  0.00    +0.000 HD
ENDBRANCH   3   7
BRANCH   4   9
ATOM      9  O   UNL     1      -6.753   4.569 118.988  0.00  0.00    +0.000 OA
ATOM     10  H   UNL     1      -6.993   5.517 119.040  0.00  0.00    +0.000 HD
ENDBRANCH   4   9
BRANCH   1  11
ATOM     11  C   UNL     1      -8.569   2.257 123.878  0.00  0.00    +0.000 C 
BRANCH  11  12
ATOM     12  O   UNL     1      -9.204   3.241 124.691  0.00  0.00    +0.000 OA
ATOM     13  H   UNL     1     -10.149   3.013 124.668  0.00  0.00    +0.000 HD
ENDBRANCH  11  12
BRANCH  11  14
ATOM     14  C   UNL     1      -9.512   1.018 123.738  0.00  0.00    +0.000 C 
BRANCH  14  15
ATOM     15  N   UNL     1     -10.925   1.352 123.976  0.00  0.00    +0.000 NA
ATOM     16  H   UNL     1     -11.550   0.659 123.572  0.00  0.00    +0.000 HD
ATOM     17  H   UNL     1     -11.093   2.183 123.407  0.00  0.00    +0.000 HD
ENDBRANCH  14  15
ENDBRANCH  11  14
ENDBRANCH   1  11
TORSDOF 6
ENDMDL
MODEL 9
REMARK VINA RESULT:      -4.9      8.504      9.362
REMARK  Name = Norepinephrine
REMARK  6 active torsions:
REMARK  status: ('A' for Active; 'I' for Inactive)
REMARK    1  A    between atoms: N_1  and  C_2
REMARK    2  A    between atoms: C_2  and  C_3
REMARK    3  A    between atoms: C_3  and  O_4
REMARK    4  A    between atoms: C_3  and  C_5
REMARK    5  A    between atoms: C_7  and  O_8
REMARK    6  A    between atoms: C_9  and  O_10
REMARK                            x       y       z     vdW  Elec       q    Type
REMARK                         _______ _______ _______ _____ _____    ______ ____
ROOT
ATOM      1  C   UNL     1      -6.519   3.598 122.221  0.00  0.00    +0.000 A 
ATOM      2  C   UNL     1      -6.424   3.713 123.621  0.00  0.00    +0.000 A 
ATOM      3  C   UNL     1      -7.410   3.240 124.466  0.00  0.00    +0.000 A 
ATOM      4  C   UNL     1      -8.623   2.824 123.930  0.00  0.00    +0.000 A 
ATOM      5  C   UNL     1      -8.812   2.834 122.558  0.00  0.00    +0.000 A 
ATOM      6  C   UNL     1      -7.763   3.190 121.702  0.00  0.00    +0.000 A 
ENDROOT
BRANCH   3   7
ATOM      7  O   UNL     1      -7.235   3.173 125.818  0.00  0.00    +0.000 OA
ATOM      8  H   UNL     1      -7.071   4.078 126.147  0.00  0.00    +0.000 HD
ENDBRANCH   3   7
BRANCH   4   9
ATOM      9  O   UNL     1      -9.629   2.447 124.764  0.00  0.00    +0.000 OA
ATOM     10  H   UNL     1      -9.290   2.640 125.662  0.00  0.00    +0.000 HD
ENDBRANCH   4   9
BRANCH   1  11
ATOM     11  C   UNL     1      -5.380   3.937 121.260  0.00  0.00    +0.000 C 
BRANCH  11  12
ATOM     12  O   UNL     1      -5.951   4.444 120.056  0.00  0.00    +0.000 OA
ATOM     13  H   UNL     1      -6.891   4.197 120.101  0.00  0.00    +0.000 HD
ENDBRANCH  11  12
BRANCH  11  14
ATOM     14  C   UNL     1      -4.294   4.935 121.776  0.00  0.00    +0.000 C 
BRANCH  14  15
ATOM     15  N   UNL     1      -4.248   6.178 120.990  0.00  0.00    +0.000 NA
ATOM     16  H   UNL     1      -5.122   6.348 120.501  0.00  0.00    +0.000 HD
ATOM     17  H   UNL     1      -3.588   5.981 120.235  0.00  0.00    +0.000 HD
ENDBRANCH  14  15
ENDBRANCH  11  14
ENDBRANCH   1  11
TORSDOF 6
ENDMDL
