MODEL 1
REMARK VINA RESULT:      -7.8      0.000      0.000
REMARK  Name = Norelgestromin
REMARK  5 active torsions:
REMARK  status: ('A' for Active; 'I' for Inactive)
REMARK    1  A    between atoms: C_5  and  O_6
REMARK    2  A    between atoms: C_5  and  C_7
REMARK    3  A    between atoms: C_9  and  C_10
REMARK    4  A    between atoms: C_10  and  C_11
REMARK    5  A    between atoms: N_27  and  O_28
REMARK                            x       y       z     vdW  Elec       q    Type
REMARK                         _______ _______ _______ _____ _____    ______ ____
ROOT
ATOM      1  C   UNL     1      -6.835  -2.595 125.585  0.00  0.00    +0.000 C 
ATOM      2  C   UNL     1      -7.983  -2.802 126.385  0.00  0.00    +0.000 C 
ATOM      3  C   UNL     1      -8.031  -1.628 125.483  0.00  0.00    +0.000 C 
ATOM      4  C   UNL     1      -6.494  -1.518 124.063  0.00  0.00    +0.000 C 
ATOM      5  C   UNL     1      -7.735  -2.078 123.981  0.00  0.00    +0.000 C 
ATOM      6  C   UNL     1      -8.299  -0.378 123.733  0.00  0.00    +0.000 C 
ATOM      7  C   UNL     1      -7.306   0.591 124.564  0.00  0.00    +0.000 C 
ATOM      8  C   UNL     1      -6.645   0.184 126.009  0.00  0.00    +0.000 C 
ATOM      9  C   UNL     1      -5.776   1.234 126.532  0.00  0.00    +0.000 C 
ATOM     10  C   UNL     1      -6.540   2.359 126.282  0.00  0.00    +0.000 C 
ATOM     11  C   UNL     1      -7.038   3.321 125.461  0.00  0.00    +0.000 C 
ATOM     12  C   UNL     1      -7.469   4.075 127.057  0.00  0.00    +0.000 C 
ATOM     13  C   UNL     1      -6.796   2.720 128.361  0.00  0.00    +0.000 C 
ATOM     14  C   UNL     1      -6.020   1.430 128.038  0.00  0.00    +0.000 C 
ATOM     15  C   UNL     1      -5.234  -0.026 128.473  0.00  0.00    +0.000 C 
ATOM     16  C   UNL     1      -5.709  -1.366 127.750  0.00  0.00    +0.000 C 
ATOM     17  C   UNL     1      -5.925  -1.187 126.260  0.00  0.00    +0.000 C 
ATOM     18  N   UNL     1      -8.270   4.523 126.099  0.00  0.00    +0.000 NA
ENDROOT
BRANCH   4  19
ATOM     19  O   UNL     1      -6.406  -1.072 122.654  0.00  0.00    +0.000 OA
ATOM     20  H   UNL     1      -6.897  -0.318 122.303  0.00  0.00    +0.000 HD
ENDBRANCH   4  19
BRANCH   4  21
ATOM     21  C   UNL     1      -5.418  -2.639 123.787  0.00  0.00    +0.000 C 
ATOM     22  C   UNL     1      -4.515  -3.436 123.463  0.00  0.00    +0.000 C 
ENDBRANCH   4  21
BRANCH   5  23
ATOM     23  C   UNL     1      -8.248  -3.087 123.064  0.00  0.00    +0.000 C 
ATOM     24  C   UNL     1      -9.668  -3.216 123.544  0.00  0.00    +0.000 C 
ENDBRANCH   5  23
BRANCH  18  25
ATOM     25  O   UNL     1      -8.693   5.780 125.607  0.00  0.00    +0.000 OA
ATOM     26  H   UNL     1      -8.242   6.460 126.198  0.00  0.00    +0.000 HD
ENDBRANCH  18  25
TORSDOF 4
ENDMDL
MODEL 2
REMARK VINA RESULT:      -7.8      2.049      2.432
REMARK  Name = Norelgestromin
REMARK  5 active torsions:
REMARK  status: ('A' for Active; 'I' for Inactive)
REMARK    1  A    between atoms: C_5  and  O_6
REMARK    2  A    between atoms: C_5  and  C_7
REMARK    3  A    between atoms: C_9  and  C_10
REMARK    4  A    between atoms: C_10  and  C_11
REMARK    5  A    between atoms: N_27  and  O_28
REMARK                            x       y       z     vdW  Elec       q    Type
REMARK                         _______ _______ _______ _____ _____    ______ ____
ROOT
ATOM      1  C   UNL     1      -7.881  -3.210 126.008  0.00  0.00    +0.000 C 
ATOM      2  C   UNL     1      -9.217  -3.559 126.314  0.00  0.00    +0.000 C 
ATOM      3  C   UNL     1      -8.977  -2.126 126.028  0.00  0.00    +0.000 C 
ATOM      4  C   UNL     1      -7.089  -1.667 125.245  0.00  0.00    +0.000 C 
ATOM      5  C   UNL     1      -8.260  -1.962 124.612  0.00  0.00    +0.000 C 
ATOM      6  C   UNL     1      -8.695  -0.247 124.985  0.00  0.00    +0.000 C 
ATOM      7  C   UNL     1      -7.973   0.147 126.377  0.00  0.00    +0.000 C 
ATOM      8  C   UNL     1      -7.775  -0.902 127.622  0.00  0.00    +0.000 C 
ATOM      9  C   UNL     1      -7.079  -0.292 128.752  0.00  0.00    +0.000 C 
ATOM     10  C   UNL     1      -7.715   0.933 128.823  0.00  0.00    +0.000 C 
ATOM     11  C   UNL     1      -7.932   2.206 128.400  0.00  0.00    +0.000 C 
ATOM     12  C   UNL     1      -8.800   2.298 129.993  0.00  0.00    +0.000 C 
ATOM     13  C   UNL     1      -8.566   0.448 130.710  0.00  0.00    +0.000 C 
ATOM     14  C   UNL     1      -7.752  -0.694 130.074  0.00  0.00    +0.000 C 
ATOM     15  C   UNL     1      -7.156  -2.298 130.026  0.00  0.00    +0.000 C 
ATOM     16  C   UNL     1      -7.420  -3.144 128.700  0.00  0.00    +0.000 C 
ATOM     17  C   UNL     1      -7.185  -2.344 127.433  0.00  0.00    +0.000 C 
ATOM     18  N   UNL     1      -9.276   3.206 129.152  0.00  0.00    +0.000 NA
ENDROOT
BRANCH   4  19
ATOM     19  O   UNL     1      -6.581  -0.703 124.241  0.00  0.00    +0.000 OA
ATOM     20  H   UNL     1      -6.531  -0.897 123.296  0.00  0.00    +0.000 HD
ENDBRANCH   4  19
BRANCH   4  21
ATOM     21  C   UNL     1      -5.999  -2.719 124.801  0.00  0.00    +0.000 C 
ATOM     22  C   UNL     1      -5.095  -3.450 124.349  0.00  0.00    +0.000 C 
ENDBRANCH   4  21
BRANCH   5  23
ATOM     23  C   UNL     1      -8.498  -2.425 123.252  0.00  0.00    +0.000 C 
ATOM     24  C   UNL     1      -9.749  -3.240 123.441  0.00  0.00    +0.000 C 
ENDBRANCH   5  23
BRANCH  18  25
ATOM     25  O   UNL     1      -9.513   4.600 129.159  0.00  0.00    +0.000 OA
ATOM     26  H   UNL     1      -8.601   5.023 129.094  0.00  0.00    +0.000 HD
ENDBRANCH  18  25
TORSDOF 4
ENDMDL
MODEL 3
REMARK VINA RESULT:      -7.6      2.523      3.927
REMARK  Name = Norelgestromin
REMARK  5 active torsions:
REMARK  status: ('A' for Active; 'I' for Inactive)
REMARK    1  A    between atoms: C_5  and  O_6
REMARK    2  A    between atoms: C_5  and  C_7
REMARK    3  A    between atoms: C_9  and  C_10
REMARK    4  A    between atoms: C_10  and  C_11
REMARK    5  A    between atoms: N_27  and  O_28
REMARK                            x       y       z     vdW  Elec       q    Type
REMARK                         _______ _______ _______ _____ _____    ______ ____
ROOT
ATOM      1  C   UNL     1      -7.783  -1.522 123.724  0.00  0.00    +0.000 C 
ATOM      2  C   UNL     1      -7.128  -1.390 122.478  0.00  0.00    +0.000 C 
ATOM      3  C   UNL     1      -6.274  -1.211 123.674  0.00  0.00    +0.000 C 
ATOM      4  C   UNL     1      -7.155  -1.743 125.499  0.00  0.00    +0.000 C 
ATOM      5  C   UNL     1      -6.402  -2.479 124.634  0.00  0.00    +0.000 C 
ATOM      6  C   UNL     1      -5.002  -1.614 125.383  0.00  0.00    +0.000 C 
ATOM      7  C   UNL     1      -5.514  -0.141 125.813  0.00  0.00    +0.000 C 
ATOM      8  C   UNL     1      -6.604   0.727 124.947  0.00  0.00    +0.000 C 
ATOM      9  C   UNL     1      -6.900   2.015 125.568  0.00  0.00    +0.000 C 
ATOM     10  C   UNL     1      -5.632   2.435 125.922  0.00  0.00    +0.000 C 
ATOM     11  C   UNL     1      -4.535   2.417 126.724  0.00  0.00    +0.000 C 
ATOM     12  C   UNL     1      -4.161   3.927 125.786  0.00  0.00    +0.000 C 
ATOM     13  C   UNL     1      -5.716   4.048 124.540  0.00  0.00    +0.000 C 
ATOM     14  C   UNL     1      -6.947   3.123 124.503  0.00  0.00    +0.000 C 
ATOM     15  C   UNL     1      -8.447   2.606 123.862  0.00  0.00    +0.000 C 
ATOM     16  C   UNL     1      -8.579   1.075 123.435  0.00  0.00    +0.000 C 
ATOM     17  C   UNL     1      -7.963   0.126 124.444  0.00  0.00    +0.000 C 
ATOM     18  N   UNL     1      -3.046   3.388 126.264  0.00  0.00    +0.000 NA
ENDROOT
BRANCH   4  19
ATOM     19  O   UNL     1      -6.671  -2.381 126.745  0.00  0.00    +0.000 OA
ATOM     20  H   UNL     1      -6.814  -2.006 127.624  0.00  0.00    +0.000 HD
ENDBRANCH   4  19
BRANCH   4  21
ATOM     21  C   UNL     1      -8.557  -2.447 125.671  0.00  0.00    +0.000 C 
ATOM     22  C   UNL     1      -9.634  -3.013 125.950  0.00  0.00    +0.000 C 
ENDBRANCH   4  21
BRANCH   5  23
ATOM     23  C   UNL     1      -6.287  -3.925 124.489  0.00  0.00    +0.000 C 
ATOM     24  C   UNL     1      -4.979  -4.036 123.753  0.00  0.00    +0.000 C 
ENDBRANCH   5  23
BRANCH  18  25
ATOM     25  O   UNL     1      -1.935   3.815 127.028  0.00  0.00    +0.000 OA
ATOM     26  H   UNL     1      -1.151   3.299 126.664  0.00  0.00    +0.000 HD
ENDBRANCH  18  25
TORSDOF 4
ENDMDL
MODEL 4
REMARK VINA RESULT:      -7.3      3.135      4.174
REMARK  Name = Norelgestromin
REMARK  5 active torsions:
REMARK  status: ('A' for Active; 'I' for Inactive)
REMARK    1  A    between atoms: C_5  and  O_6
REMARK    2  A    between atoms: C_5  and  C_7
REMARK    3  A    between atoms: C_9  and  C_10
REMARK    4  A    between atoms: C_10  and  C_11
REMARK    5  A    between atoms: N_27  and  O_28
REMARK                            x       y       z     vdW  Elec       q    Type
REMARK                         _______ _______ _______ _____ _____    ______ ____
ROOT
ATOM      1  C   UNL     1      -6.995  -2.997 128.856  0.00  0.00    +0.000 C 
ATOM      2  C   UNL     1      -8.321  -3.437 128.634  0.00  0.00    +0.000 C 
ATOM      3  C   UNL     1      -8.016  -2.059 128.183  0.00  0.00    +0.000 C 
ATOM      4  C   UNL     1      -5.987  -1.534 128.194  0.00  0.00    +0.000 C 
ATOM      5  C   UNL     1      -6.756  -2.069 127.203  0.00  0.00    +0.000 C 
ATOM      6  C   UNL     1      -7.354  -0.376 126.988  0.00  0.00    +0.000 C 
ATOM      7  C   UNL     1      -7.324   0.340 128.438  0.00  0.00    +0.000 C 
ATOM      8  C   UNL     1      -7.663  -0.442 129.839  0.00  0.00    +0.000 C 
ATOM      9  C   UNL     1      -7.547   0.435 131.001  0.00  0.00    +0.000 C 
ATOM     10  C   UNL     1      -8.181   1.572 130.538  0.00  0.00    +0.000 C 
ATOM     11  C   UNL     1      -8.224   2.716 129.806  0.00  0.00    +0.000 C 
ATOM     12  C   UNL     1      -9.702   2.991 130.825  0.00  0.00    +0.000 C 
ATOM     13  C   UNL     1      -9.758   1.337 131.944  0.00  0.00    +0.000 C 
ATOM     14  C   UNL     1      -8.719   0.200 131.968  0.00  0.00    +0.000 C 
ATOM     15  C   UNL     1      -8.122  -1.307 132.513  0.00  0.00    +0.000 C 
ATOM     16  C   UNL     1      -7.759  -2.400 131.410  0.00  0.00    +0.000 C 
ATOM     17  C   UNL     1      -7.013  -1.818 130.225  0.00  0.00    +0.000 C 
ATOM     18  N   UNL     1      -9.786   3.675 129.691  0.00  0.00    +0.000 NA
ENDROOT
BRANCH   4  19
ATOM     19  O   UNL     1      -5.117  -0.713 127.321  0.00  0.00    +0.000 OA
ATOM     20  H   UNL     1      -4.363  -1.070 126.835  0.00  0.00    +0.000 HD
ENDBRANCH   4  19
BRANCH   4  21
ATOM     21  C   UNL     1      -4.787  -2.517 128.484  0.00  0.00    +0.000 C 
ATOM     22  C   UNL     1      -3.789  -3.192 128.809  0.00  0.00    +0.000 C 
ENDBRANCH   4  21
BRANCH   5  23
ATOM     23  C   UNL     1      -6.364  -2.791 126.000  0.00  0.00    +0.000 C 
ATOM     24  C   UNL     1      -7.698  -2.977 125.329  0.00  0.00    +0.000 C 
ENDBRANCH   5  23
BRANCH  18  25
ATOM     25  O   UNL     1     -10.037   5.011 129.305  0.00  0.00    +0.000 OA
ATOM     26  H   UNL     1     -10.836   5.297 129.849  0.00  0.00    +0.000 HD
ENDBRANCH  18  25
TORSDOF 4
ENDMDL
MODEL 5
REMARK VINA RESULT:      -6.9      3.364      6.024
REMARK  Name = Norelgestromin
REMARK  5 active torsions:
REMARK  status: ('A' for Active; 'I' for Inactive)
REMARK    1  A    between atoms: C_5  and  O_6
REMARK    2  A    between atoms: C_5  and  C_7
REMARK    3  A    between atoms: C_9  and  C_10
REMARK    4  A    between atoms: C_10  and  C_11
REMARK    5  A    between atoms: N_27  and  O_28
REMARK                            x       y       z     vdW  Elec       q    Type
REMARK                         _______ _______ _______ _____ _____    ______ ____
ROOT
ATOM      1  C   UNL     1      -6.016  -0.784 130.061  0.00  0.00    +0.000 C 
ATOM      2  C   UNL     1      -6.982   0.242 130.184  0.00  0.00    +0.000 C 
ATOM      3  C   UNL     1      -7.459  -1.021 129.574  0.00  0.00    +0.000 C 
ATOM      4  C   UNL     1      -6.138  -2.642 129.707  0.00  0.00    +0.000 C 
ATOM      5  C   UNL     1      -7.142  -2.250 130.542  0.00  0.00    +0.000 C 
ATOM      6  C   UNL     1      -8.228  -3.033 129.325  0.00  0.00    +0.000 C 
ATOM      7  C   UNL     1      -7.534  -2.864 127.874  0.00  0.00    +0.000 C 
ATOM      8  C   UNL     1      -6.679  -1.537 127.428  0.00  0.00    +0.000 C 
ATOM      9  C   UNL     1      -6.150  -1.653 126.072  0.00  0.00    +0.000 C 
ATOM     10  C   UNL     1      -7.244  -2.170 125.404  0.00  0.00    +0.000 C 
ATOM     11  C   UNL     1      -8.075  -3.188 125.057  0.00  0.00    +0.000 C 
ATOM     12  C   UNL     1      -8.608  -1.968 123.821  0.00  0.00    +0.000 C 
ATOM     13  C   UNL     1      -7.455  -0.396 124.253  0.00  0.00    +0.000 C 
ATOM     14  C   UNL     1      -6.337  -0.331 125.310  0.00  0.00    +0.000 C 
ATOM     15  C   UNL     1      -5.105   0.480 126.178  0.00  0.00    +0.000 C 
ATOM     16  C   UNL     1      -5.184   0.452 127.771  0.00  0.00    +0.000 C 
ATOM     17  C   UNL     1      -5.549  -0.914 128.320  0.00  0.00    +0.000 C 
ATOM     18  N   UNL     1      -9.575  -2.846 124.055  0.00  0.00    +0.000 NA
ENDROOT
BRANCH   4  19
ATOM     19  O   UNL     1      -6.293  -4.101 129.913  0.00  0.00    +0.000 OA
ATOM     20  H   UNL     1      -5.780  -4.603 130.559  0.00  0.00    +0.000 HD
ENDBRANCH   4  19
BRANCH   4  21
ATOM     21  C   UNL     1      -4.786  -2.660 130.521  0.00  0.00    +0.000 C 
ATOM     22  C   UNL     1      -3.653  -2.623 131.042  0.00  0.00    +0.000 C 
ENDBRANCH   4  21
BRANCH   5  23
ATOM     23  C   UNL     1      -7.375  -2.575 131.943  0.00  0.00    +0.000 C 
ATOM     24  C   UNL     1      -8.201  -1.395 132.377  0.00  0.00    +0.000 C 
ENDBRANCH   5  23
BRANCH  18  25
ATOM     25  O   UNL     1     -10.404  -3.700 123.292  0.00  0.00    +0.000 OA
ATOM     26  H   UNL     1     -11.262  -3.187 123.161  0.00  0.00    +0.000 HD
ENDBRANCH  18  25
TORSDOF 4
ENDMDL
MODEL 6
REMARK VINA RESULT:      -6.8      3.354      5.023
REMARK  Name = Norelgestromin
REMARK  5 active torsions:
REMARK  status: ('A' for Active; 'I' for Inactive)
REMARK    1  A    between atoms: C_5  and  O_6
REMARK    2  A    between atoms: C_5  and  C_7
REMARK    3  A    between atoms: C_9  and  C_10
REMARK    4  A    between atoms: C_10  and  C_11
REMARK    5  A    between atoms: N_27  and  O_28
REMARK                            x       y       z     vdW  Elec       q    Type
REMARK                         _______ _______ _______ _____ _____    ______ ____
ROOT
ATOM      1  C   UNL     1      -8.145  -1.036 125.283  0.00  0.00    +0.000 C 
ATOM      2  C   UNL     1      -9.242  -0.301 125.792  0.00  0.00    +0.000 C 
ATOM      3  C   UNL     1      -7.935  -0.036 126.438  0.00  0.00    +0.000 C 
ATOM      4  C   UNL     1      -6.267  -0.854 125.468  0.00  0.00    +0.000 C 
ATOM      5  C   UNL     1      -6.853   0.370 125.337  0.00  0.00    +0.000 C 
ATOM      6  C   UNL     1      -5.967   0.766 126.863  0.00  0.00    +0.000 C 
ATOM      7  C   UNL     1      -5.859  -0.594 127.731  0.00  0.00    +0.000 C 
ATOM      8  C   UNL     1      -7.038  -1.733 127.779  0.00  0.00    +0.000 C 
ATOM      9  C   UNL     1      -6.677  -2.865 128.627  0.00  0.00    +0.000 C 
ATOM     10  C   UNL     1      -6.138  -2.215 129.721  0.00  0.00    +0.000 C 
ATOM     11  C   UNL     1      -5.138  -1.550 130.358  0.00  0.00    +0.000 C 
ATOM     12  C   UNL     1      -6.184  -1.912 131.798  0.00  0.00    +0.000 C 
ATOM     13  C   UNL     1      -7.721  -2.883 130.972  0.00  0.00    +0.000 C 
ATOM     14  C   UNL     1      -7.874  -3.288 129.494  0.00  0.00    +0.000 C 
ATOM     15  C   UNL     1      -8.723  -3.992 128.186  0.00  0.00    +0.000 C 
ATOM     16  C   UNL     1      -8.949  -3.097 126.886  0.00  0.00    +0.000 C 
ATOM     17  C   UNL     1      -7.714  -2.313 126.487  0.00  0.00    +0.000 C 
ATOM     18  N   UNL     1      -5.422  -0.851 132.032  0.00  0.00    +0.000 NA
ENDROOT
BRANCH   4  19
ATOM     19  O   UNL     1      -4.873  -0.412 125.237  0.00  0.00    +0.000 OA
ATOM     20  H   UNL     1      -4.118  -0.758 125.730  0.00  0.00    +0.000 HD
ENDBRANCH   4  19
BRANCH   4  21
ATOM     21  C   UNL     1      -6.283  -1.571 124.062  0.00  0.00    +0.000 C 
ATOM     22  C   UNL     1      -6.150  -2.116 122.947  0.00  0.00    +0.000 C 
ENDBRANCH   4  21
BRANCH   5  23
ATOM     23  C   UNL     1      -6.767   1.338 124.251  0.00  0.00    +0.000 C 
ATOM     24  C   UNL     1      -7.491   2.510 124.854  0.00  0.00    +0.000 C 
ENDBRANCH   5  23
BRANCH  18  25
ATOM     25  O   UNL     1      -4.519  -0.426 133.033  0.00  0.00    +0.000 OA
ATOM     26  H   UNL     1      -4.028  -1.259 133.317  0.00  0.00    +0.000 HD
ENDBRANCH  18  25
TORSDOF 4
ENDMDL
MODEL 7
REMARK VINA RESULT:      -6.6      8.289      9.819
REMARK  Name = Norelgestromin
REMARK  5 active torsions:
REMARK  status: ('A' for Active; 'I' for Inactive)
REMARK    1  A    between atoms: C_5  and  O_6
REMARK    2  A    between atoms: C_5  and  C_7
REMARK    3  A    between atoms: C_9  and  C_10
REMARK    4  A    between atoms: C_10  and  C_11
REMARK    5  A    between atoms: N_27  and  O_28
REMARK                            x       y       z     vdW  Elec       q    Type
REMARK                         _______ _______ _______ _____ _____    ______ ____
ROOT
ATOM      1  C   UNL     1      -3.330   5.423 132.492  0.00  0.00    +0.000 C 
ATOM      2  C   UNL     1      -3.301   4.061 132.110  0.00  0.00    +0.000 C 
ATOM      3  C   UNL     1      -4.200   4.932 131.317  0.00  0.00    +0.000 C 
ATOM      4  C   UNL     1      -3.986   6.990 131.651  0.00  0.00    +0.000 C 
ATOM      5  C   UNL     1      -3.385   6.176 130.737  0.00  0.00    +0.000 C 
ATOM      6  C   UNL     1      -4.944   6.325 129.833  0.00  0.00    +0.000 C 
ATOM      7  C   UNL     1      -6.126   6.490 130.924  0.00  0.00    +0.000 C 
ATOM      8  C   UNL     1      -6.129   5.729 132.377  0.00  0.00    +0.000 C 
ATOM      9  C   UNL     1      -7.306   6.066 133.173  0.00  0.00    +0.000 C 
ATOM     10  C   UNL     1      -8.302   5.986 132.218  0.00  0.00    +0.000 C 
ATOM     11  C   UNL     1      -9.003   6.476 131.162  0.00  0.00    +0.000 C 
ATOM     12  C   UNL     1     -10.131   5.133 131.636  0.00  0.00    +0.000 C 
ATOM     13  C   UNL     1      -9.181   4.312 133.189  0.00  0.00    +0.000 C 
ATOM     14  C   UNL     1      -7.877   4.805 133.843  0.00  0.00    +0.000 C 
ATOM     15  C   UNL     1      -6.609   4.696 134.987  0.00  0.00    +0.000 C 
ATOM     16  C   UNL     1      -5.113   4.705 134.433  0.00  0.00    +0.000 C 
ATOM     17  C   UNL     1      -4.893   5.736 133.344  0.00  0.00    +0.000 C 
ATOM     18  N   UNL     1     -10.290   5.443 130.356  0.00  0.00    +0.000 NA
ENDROOT
BRANCH   4  19
ATOM     19  O   UNL     1      -4.055   8.198 130.797  0.00  0.00    +0.000 OA
ATOM     20  H   UNL     1      -3.583   8.283 129.958  0.00  0.00    +0.000 HD
ENDBRANCH   4  19
BRANCH   4  21
ATOM     21  C   UNL     1      -2.867   7.665 132.536  0.00  0.00    +0.000 C 
ATOM     22  C   UNL     1      -2.023   8.327 133.173  0.00  0.00    +0.000 C 
ENDBRANCH   4  21
BRANCH   5  23
ATOM     23  C   UNL     1      -2.157   6.368 129.977  0.00  0.00    +0.000 C 
ATOM     24  C   UNL     1      -2.355   5.381 128.859  0.00  0.00    +0.000 C 
ENDBRANCH   5  23
BRANCH  18  25
ATOM     25  O   UNL     1     -11.362   5.784 129.499  0.00  0.00    +0.000 OA
ATOM     26  H   UNL     1     -12.192   5.479 129.981  0.00  0.00    +0.000 HD
ENDBRANCH  18  25
TORSDOF 4
ENDMDL
MODEL 8
REMARK VINA RESULT:      -6.6      5.056      7.904
REMARK  Name = Norelgestromin
REMARK  5 active torsions:
REMARK  status: ('A' for Active; 'I' for Inactive)
REMARK    1  A    between atoms: C_5  and  O_6
REMARK    2  A    between atoms: C_5  and  C_7
REMARK    3  A    between atoms: C_9  and  C_10
REMARK    4  A    between atoms: C_10  and  C_11
REMARK    5  A    between atoms: N_27  and  O_28
REMARK                            x       y       z     vdW  Elec       q    Type
REMARK                         _______ _______ _______ _____ _____    ______ ____
ROOT
ATOM      1  C   UNL     1      -7.740   3.651 131.583  0.00  0.00    +0.000 C 
ATOM      2  C   UNL     1      -8.667   2.583 131.597  0.00  0.00    +0.000 C 
ATOM      3  C   UNL     1      -8.517   3.288 130.302  0.00  0.00    +0.000 C 
ATOM      4  C   UNL     1      -6.912   4.629 130.186  0.00  0.00    +0.000 C 
ATOM      5  C   UNL     1      -6.983   3.306 129.863  0.00  0.00    +0.000 C 
ATOM      6  C   UNL     1      -7.787   3.894 128.354  0.00  0.00    +0.000 C 
ATOM      7  C   UNL     1      -8.602   5.239 128.728  0.00  0.00    +0.000 C 
ATOM      8  C   UNL     1      -9.362   5.467 130.164  0.00  0.00    +0.000 C 
ATOM      9  C   UNL     1     -10.007   6.774 130.245  0.00  0.00    +0.000 C 
ATOM     10  C   UNL     1     -10.598   6.855 128.997  0.00  0.00    +0.000 C 
ATOM     11  C   UNL     1     -10.560   7.070 127.656  0.00  0.00    +0.000 C 
ATOM     12  C   UNL     1     -12.360   7.125 127.888  0.00  0.00    +0.000 C 
ATOM     13  C   UNL     1     -12.544   6.793 129.849  0.00  0.00    +0.000 C 
ATOM     14  C   UNL     1     -11.404   6.644 130.874  0.00  0.00    +0.000 C 
ATOM     15  C   UNL     1     -10.797   6.373 132.450  0.00  0.00    +0.000 C 
ATOM     16  C   UNL     1      -9.719   5.211 132.637  0.00  0.00    +0.000 C 
ATOM     17  C   UNL     1      -8.667   5.203 131.546  0.00  0.00    +0.000 C 
ATOM     18  N   UNL     1     -12.063   6.793 126.639  0.00  0.00    +0.000 NA
ENDROOT
BRANCH   4  19
ATOM     19  O   UNL     1      -5.953   5.020 129.127  0.00  0.00    +0.000 OA
ATOM     20  H   UNL     1      -5.320   4.407 128.731  0.00  0.00    +0.000 HD
ENDBRANCH   4  19
BRANCH   4  21
ATOM     21  C   UNL     1      -5.793   4.819 131.283  0.00  0.00    +0.000 C 
ATOM     22  C   UNL     1      -4.835   5.049 132.049  0.00  0.00    +0.000 C 
ENDBRANCH   4  21
BRANCH   5  23
ATOM     23  C   UNL     1      -5.921   2.322 129.708  0.00  0.00    +0.000 C 
ATOM     24  C   UNL     1      -6.701   1.133 129.218  0.00  0.00    +0.000 C 
ENDBRANCH   5  23
BRANCH  18  25
ATOM     25  O   UNL     1     -12.409   7.233 125.341  0.00  0.00    +0.000 OA
ATOM     26  H   UNL     1     -11.583   7.691 124.989  0.00  0.00    +0.000 HD
ENDBRANCH  18  25
TORSDOF 4
ENDMDL
MODEL 9
REMARK VINA RESULT:      -6.5      2.573      3.544
REMARK  Name = Norelgestromin
REMARK  5 active torsions:
REMARK  status: ('A' for Active; 'I' for Inactive)
REMARK    1  A    between atoms: C_5  and  O_6
REMARK    2  A    between atoms: C_5  and  C_7
REMARK    3  A    between atoms: C_9  and  C_10
REMARK    4  A    between atoms: C_10  and  C_11
REMARK    5  A    between atoms: N_27  and  O_28
REMARK                            x       y       z     vdW  Elec       q    Type
REMARK                         _______ _______ _______ _____ _____    ______ ____
ROOT
ATOM      1  C   UNL     1      -8.664  -0.699 126.025  0.00  0.00    +0.000 C 
ATOM      2  C   UNL     1      -9.096   0.119 124.955  0.00  0.00    +0.000 C 
ATOM      3  C   UNL     1      -7.631  -0.067 125.071  0.00  0.00    +0.000 C 
ATOM      4  C   UNL     1      -7.014  -1.540 126.428  0.00  0.00    +0.000 C 
ATOM      5  C   UNL     1      -7.276  -1.623 125.092  0.00  0.00    +0.000 C 
ATOM      6  C   UNL     1      -5.634  -0.892 124.898  0.00  0.00    +0.000 C 
ATOM      7  C   UNL     1      -5.379   0.077 126.167  0.00  0.00    +0.000 C 
ATOM      8  C   UNL     1      -6.558   0.970 126.876  0.00  0.00    +0.000 C 
ATOM      9  C   UNL     1      -6.059   1.743 128.009  0.00  0.00    +0.000 C 
ATOM     10  C   UNL     1      -4.875   2.234 127.493  0.00  0.00    +0.000 C 
ATOM     11  C   UNL     1      -3.570   2.108 127.135  0.00  0.00    +0.000 C 
ATOM     12  C   UNL     1      -3.698   3.919 127.062  0.00  0.00    +0.000 C 
ATOM     13  C   UNL     1      -5.608   4.229 127.554  0.00  0.00    +0.000 C 
ATOM     14  C   UNL     1      -6.638   3.167 127.982  0.00  0.00    +0.000 C 
ATOM     15  C   UNL     1      -8.201   2.667 128.466  0.00  0.00    +0.000 C 
ATOM     16  C   UNL     1      -8.896   1.501 127.628  0.00  0.00    +0.000 C 
ATOM     17  C   UNL     1      -7.946   0.367 127.295  0.00  0.00    +0.000 C 
ATOM     18  N   UNL     1      -2.715   3.490 126.280  0.00  0.00    +0.000 NA
ENDROOT
BRANCH   4  19
ATOM     19  O   UNL     1      -5.921  -2.539 126.457  0.00  0.00    +0.000 OA
ATOM     20  H   UNL     1      -5.122  -2.437 126.991  0.00  0.00    +0.000 HD
ENDBRANCH   4  19
BRANCH   4  21
ATOM     21  C   UNL     1      -7.965  -2.543 127.190  0.00  0.00    +0.000 C 
ATOM     22  C   UNL     1      -8.595  -3.395 127.848  0.00  0.00    +0.000 C 
ENDBRANCH   4  21
BRANCH   5  23
ATOM     23  C   UNL     1      -7.586  -2.785 124.269  0.00  0.00    +0.000 C 
ATOM     24  C   UNL     1      -7.686  -2.153 122.908  0.00  0.00    +0.000 C 
ENDBRANCH   5  23
BRANCH  18  25
ATOM     25  O   UNL     1      -1.342   3.769 126.096  0.00  0.00    +0.000 OA
ATOM     26  H   UNL     1      -0.870   3.278 126.838  0.00  0.00    +0.000 HD
ENDBRANCH  18  25
TORSDOF 4
ENDMDL
