MODEL 1
REMARK VINA RESULT:      -8.1      0.000      0.000
REMARK  Name = Norethynodrel
REMARK  3 active torsions:
REMARK  status: ('A' for Active; 'I' for Inactive)
REMARK    1  A    between atoms: C_5  and  O_6
REMARK    2  A    between atoms: C_5  and  C_7
REMARK    3  A    between atoms: C_9  and  C_10
REMARK                            x       y       z     vdW  Elec       q    Type
REMARK                         _______ _______ _______ _____ _____    ______ ____
ROOT
ATOM      1  C   UNL     1      -7.977  -3.316 124.929  0.00  0.00    +0.000 C 
ATOM      2  C   UNL     1      -9.323  -3.400 124.492  0.00  0.00    +0.000 C 
ATOM      3  C   UNL     1      -8.725  -2.065 124.748  0.00  0.00    +0.000 C 
ATOM      4  C   UNL     1      -6.633  -2.083 124.725  0.00  0.00    +0.000 C 
ATOM      5  C   UNL     1      -7.590  -1.801 123.803  0.00  0.00    +0.000 C 
ATOM      6  C   UNL     1      -7.576  -2.015 122.344  0.00  0.00    +0.000 C 
ATOM      7  C   UNL     1      -7.713  -0.133 124.555  0.00  0.00    +0.000 C 
ATOM      8  C   UNL     1      -7.379  -0.184 126.165  0.00  0.00    +0.000 C 
ATOM      9  C   UNL     1      -8.060  -1.311 127.073  0.00  0.00    +0.000 C 
ATOM     10  C   UNL     1      -7.831  -1.193 128.539  0.00  0.00    +0.000 C 
ATOM     11  C   UNL     1      -7.897  -2.273 129.348  0.00  0.00    +0.000 C 
ATOM     12  C   UNL     1      -8.180  -3.691 128.883  0.00  0.00    +0.000 C 
ATOM     13  C   UNL     1      -8.632  -3.801 127.447  0.00  0.00    +0.000 C 
ATOM     14  C   UNL     1      -7.762  -2.875 126.636  0.00  0.00    +0.000 C 
ATOM     15  C   UNL     1      -7.663  -2.156 130.822  0.00  0.00    +0.000 C 
ATOM     16  C   UNL     1      -7.110  -0.783 131.141  0.00  0.00    +0.000 C 
ATOM     17  O   UNL     1      -6.136  -0.605 131.867  0.00  0.00    +0.000 OA
ATOM     18  C   UNL     1      -7.856   0.354 130.501  0.00  0.00    +0.000 C 
ATOM     19  C   UNL     1      -7.635   0.220 129.019  0.00  0.00    +0.000 C 
ENDROOT
BRANCH   4  20
ATOM     20  O   UNL     1      -5.657  -1.172 124.092  0.00  0.00    +0.000 OA
ATOM     21  H   UNL     1      -5.416  -1.278 123.165  0.00  0.00    +0.000 HD
ENDBRANCH   4  20
BRANCH   4  22
ATOM     22  C   UNL     1      -5.771  -3.350 124.250  0.00  0.00    +0.000 C 
ATOM     23  C   UNL     1      -5.036  -4.259 123.885  0.00  0.00    +0.000 C 
ENDBRANCH   4  22
TORSDOF 2
ENDMDL
MODEL 2
REMARK VINA RESULT:      -7.7      1.555      6.118
REMARK  Name = Norethynodrel
REMARK  3 active torsions:
REMARK  status: ('A' for Active; 'I' for Inactive)
REMARK    1  A    between atoms: C_5  and  O_6
REMARK    2  A    between atoms: C_5  and  C_7
REMARK    3  A    between atoms: C_9  and  C_10
REMARK                            x       y       z     vdW  Elec       q    Type
REMARK                         _______ _______ _______ _____ _____    ______ ____
ROOT
ATOM      1  C   UNL     1      -7.476  -2.417 130.348  0.00  0.00    +0.000 C 
ATOM      2  C   UNL     1      -6.881  -3.587 130.882  0.00  0.00    +0.000 C 
ATOM      3  C   UNL     1      -6.060  -2.671 130.052  0.00  0.00    +0.000 C 
ATOM      4  C   UNL     1      -6.859  -0.742 129.919  0.00  0.00    +0.000 C 
ATOM      5  C   UNL     1      -5.927  -1.331 130.713  0.00  0.00    +0.000 C 
ATOM      6  C   UNL     1      -5.593  -1.061 132.123  0.00  0.00    +0.000 C 
ATOM      7  C   UNL     1      -4.725  -1.084 129.349  0.00  0.00    +0.000 C 
ATOM      8  C   UNL     1      -5.471  -1.150 127.885  0.00  0.00    +0.000 C 
ATOM      9  C   UNL     1      -6.500  -2.336 127.580  0.00  0.00    +0.000 C 
ATOM     10  C   UNL     1      -7.009  -2.413 126.183  0.00  0.00    +0.000 C 
ATOM     11  C   UNL     1      -8.196  -2.996 125.901  0.00  0.00    +0.000 C 
ATOM     12  C   UNL     1      -9.133  -3.601 126.932  0.00  0.00    +0.000 C 
ATOM     13  C   UNL     1      -8.542  -3.734 128.315  0.00  0.00    +0.000 C 
ATOM     14  C   UNL     1      -7.791  -2.459 128.601  0.00  0.00    +0.000 C 
ATOM     15  C   UNL     1      -8.711  -3.071 124.498  0.00  0.00    +0.000 C 
ATOM     16  C   UNL     1      -7.863  -2.197 123.598  0.00  0.00    +0.000 C 
ATOM     17  O   UNL     1      -8.340  -1.404 122.791  0.00  0.00    +0.000 OA
ATOM     18  C   UNL     1      -6.381  -2.384 123.765  0.00  0.00    +0.000 C 
ATOM     19  C   UNL     1      -6.049  -1.892 125.148  0.00  0.00    +0.000 C 
ENDROOT
BRANCH   4  20
ATOM     20  O   UNL     1      -6.225   0.587 130.042  0.00  0.00    +0.000 OA
ATOM     21  H   UNL     1      -6.309   1.239 129.338  0.00  0.00    +0.000 HD
ENDBRANCH   4  20
BRANCH   4  22
ATOM     22  C   UNL     1      -8.098  -0.242 130.809  0.00  0.00    +0.000 C 
ATOM     23  C   UNL     1      -9.010   0.229 131.475  0.00  0.00    +0.000 C 
ENDBRANCH   4  22
TORSDOF 2
ENDMDL
MODEL 3
REMARK VINA RESULT:      -7.3      1.533      3.126
REMARK  Name = Norethynodrel
REMARK  3 active torsions:
REMARK  status: ('A' for Active; 'I' for Inactive)
REMARK    1  A    between atoms: C_5  and  O_6
REMARK    2  A    between atoms: C_5  and  C_7
REMARK    3  A    between atoms: C_9  and  C_10
REMARK                            x       y       z     vdW  Elec       q    Type
REMARK                         _______ _______ _______ _____ _____    ______ ____
ROOT
ATOM      1  C   UNL     1      -6.491  -1.188 124.487  0.00  0.00    +0.000 C 
ATOM      2  C   UNL     1      -5.450  -2.010 123.984  0.00  0.00    +0.000 C 
ATOM      3  C   UNL     1      -6.651  -2.645 124.584  0.00  0.00    +0.000 C 
ATOM      4  C   UNL     1      -8.309  -1.372 124.650  0.00  0.00    +0.000 C 
ATOM      5  C   UNL     1      -7.877  -2.325 123.783  0.00  0.00    +0.000 C 
ATOM      6  C   UNL     1      -8.031  -2.397 122.318  0.00  0.00    +0.000 C 
ATOM      7  C   UNL     1      -8.607  -3.572 124.914  0.00  0.00    +0.000 C 
ATOM      8  C   UNL     1      -8.551  -3.058 126.475  0.00  0.00    +0.000 C 
ATOM      9  C   UNL     1      -7.194  -2.438 127.050  0.00  0.00    +0.000 C 
ATOM     10  C   UNL     1      -7.179  -2.144 128.509  0.00  0.00    +0.000 C 
ATOM     11  C   UNL     1      -6.355  -1.206 129.027  0.00  0.00    +0.000 C 
ATOM     12  C   UNL     1      -5.395  -0.351 128.218  0.00  0.00    +0.000 C 
ATOM     13  C   UNL     1      -5.232  -0.781 126.780  0.00  0.00    +0.000 C 
ATOM     14  C   UNL     1      -6.606  -1.114 126.258  0.00  0.00    +0.000 C 
ATOM     15  C   UNL     1      -6.341  -0.907 130.493  0.00  0.00    +0.000 C 
ATOM     16  C   UNL     1      -7.516  -1.589 131.161  0.00  0.00    +0.000 C 
ATOM     17  O   UNL     1      -8.263  -1.016 131.951  0.00  0.00    +0.000 OA
ATOM     18  C   UNL     1      -7.696  -3.033 130.787  0.00  0.00    +0.000 C 
ATOM     19  C   UNL     1      -8.064  -3.045 129.328  0.00  0.00    +0.000 C 
ENDROOT
BRANCH   4  20
ATOM     20  O   UNL     1      -9.727  -1.599 124.301  0.00  0.00    +0.000 OA
ATOM     21  H   UNL     1     -10.141  -1.110 123.581  0.00  0.00    +0.000 HD
ENDBRANCH   4  20
BRANCH   4  22
ATOM     22  C   UNL     1      -8.350   0.055 123.918  0.00  0.00    +0.000 C 
ATOM     23  C   UNL     1      -8.470   1.123 123.331  0.00  0.00    +0.000 C 
ENDBRANCH   4  22
TORSDOF 2
ENDMDL
MODEL 4
REMARK VINA RESULT:      -7.0      7.245     10.409
REMARK  Name = Norethynodrel
REMARK  3 active torsions:
REMARK  status: ('A' for Active; 'I' for Inactive)
REMARK    1  A    between atoms: C_5  and  O_6
REMARK    2  A    between atoms: C_5  and  C_7
REMARK    3  A    between atoms: C_9  and  C_10
REMARK                            x       y       z     vdW  Elec       q    Type
REMARK                         _______ _______ _______ _____ _____    ______ ____
ROOT
ATOM      1  C   UNL     1      -6.249   5.072 132.563  0.00  0.00    +0.000 C 
ATOM      2  C   UNL     1      -5.674   5.969 133.498  0.00  0.00    +0.000 C 
ATOM      3  C   UNL     1      -6.980   5.335 133.809  0.00  0.00    +0.000 C 
ATOM      4  C   UNL     1      -7.339   3.601 132.695  0.00  0.00    +0.000 C 
ATOM      5  C   UNL     1      -6.832   3.847 133.931  0.00  0.00    +0.000 C 
ATOM      6  C   UNL     1      -5.798   3.112 134.682  0.00  0.00    +0.000 C 
ATOM      7  C   UNL     1      -8.561   3.999 134.524  0.00  0.00    +0.000 C 
ATOM      8  C   UNL     1      -9.543   4.582 133.340  0.00  0.00    +0.000 C 
ATOM      9  C   UNL     1      -9.078   5.853 132.489  0.00  0.00    +0.000 C 
ATOM     10  C   UNL     1     -10.088   6.411 131.548  0.00  0.00    +0.000 C 
ATOM     11  C   UNL     1      -9.714   7.116 130.456  0.00  0.00    +0.000 C 
ATOM     12  C   UNL     1      -8.277   7.397 130.054  0.00  0.00    +0.000 C 
ATOM     13  C   UNL     1      -7.251   7.038 131.102  0.00  0.00    +0.000 C 
ATOM     14  C   UNL     1      -7.651   5.702 131.674  0.00  0.00    +0.000 C 
ATOM     15  C   UNL     1     -10.728   7.674 129.507  0.00  0.00    +0.000 C 
ATOM     16  C   UNL     1     -12.093   7.102 129.827  0.00  0.00    +0.000 C 
ATOM     17  O   UNL     1     -12.844   6.643 128.971  0.00  0.00    +0.000 OA
ATOM     18  C   UNL     1     -12.462   7.145 131.283  0.00  0.00    +0.000 C 
ATOM     19  C   UNL     1     -11.514   6.210 131.984  0.00  0.00    +0.000 C 
ENDROOT
BRANCH   4  20
ATOM     20  O   UNL     1      -7.852   2.274 133.094  0.00  0.00    +0.000 OA
ATOM     21  H   UNL     1      -7.763   1.965 134.002  0.00  0.00    +0.000 HD
ENDBRANCH   4  20
BRANCH   4  22
ATOM     22  C   UNL     1      -6.224   2.902 131.776  0.00  0.00    +0.000 C 
ATOM     23  C   UNL     1      -5.425   2.287 131.083  0.00  0.00    +0.000 C 
ENDBRANCH   4  22
TORSDOF 2
ENDMDL
MODEL 5
REMARK VINA RESULT:      -6.9      6.423      9.189
REMARK  Name = Norethynodrel
REMARK  3 active torsions:
REMARK  status: ('A' for Active; 'I' for Inactive)
REMARK    1  A    between atoms: C_5  and  O_6
REMARK    2  A    between atoms: C_5  and  C_7
REMARK    3  A    between atoms: C_9  and  C_10
REMARK                            x       y       z     vdW  Elec       q    Type
REMARK                         _______ _______ _______ _____ _____    ______ ____
ROOT
ATOM      1  C   UNL     1      -7.275   3.694 132.201  0.00  0.00    +0.000 C 
ATOM      2  C   UNL     1      -7.384   3.873 133.603  0.00  0.00    +0.000 C 
ATOM      3  C   UNL     1      -8.513   3.258 132.859  0.00  0.00    +0.000 C 
ATOM      4  C   UNL     1      -7.948   2.478 131.003  0.00  0.00    +0.000 C 
ATOM      5  C   UNL     1      -8.098   1.954 132.247  0.00  0.00    +0.000 C 
ATOM      6  C   UNL     1      -7.355   0.859 132.898  0.00  0.00    +0.000 C 
ATOM      7  C   UNL     1      -9.897   1.857 131.903  0.00  0.00    +0.000 C 
ATOM      8  C   UNL     1     -10.372   3.065 130.894  0.00  0.00    +0.000 C 
ATOM      9  C   UNL     1      -9.887   4.563 131.179  0.00  0.00    +0.000 C 
ATOM     10  C   UNL     1     -10.486   5.616 130.314  0.00  0.00    +0.000 C 
ATOM     11  C   UNL     1      -9.847   6.786 130.091  0.00  0.00    +0.000 C 
ATOM     12  C   UNL     1      -8.484   7.153 130.651  0.00  0.00    +0.000 C 
ATOM     13  C   UNL     1      -7.962   6.201 131.702  0.00  0.00    +0.000 C 
ATOM     14  C   UNL     1      -8.255   4.804 131.219  0.00  0.00    +0.000 C 
ATOM     15  C   UNL     1     -10.446   7.845 129.219  0.00  0.00    +0.000 C 
ATOM     16  C   UNL     1     -11.645   7.281 128.485  0.00  0.00    +0.000 C 
ATOM     17  O   UNL     1     -11.824   7.432 127.280  0.00  0.00    +0.000 OA
ATOM     18  C   UNL     1     -12.608   6.522 129.354  0.00  0.00    +0.000 C 
ATOM     19  C   UNL     1     -11.873   5.297 129.824  0.00  0.00    +0.000 C 
ENDROOT
BRANCH   4  20
ATOM     20  O   UNL     1      -8.267   1.192 130.348  0.00  0.00    +0.000 OA
ATOM     21  H   UNL     1      -7.570   0.560 130.141  0.00  0.00    +0.000 HD
ENDBRANCH   4  20
BRANCH   4  22
ATOM     22  C   UNL     1      -6.418   2.346 130.535  0.00  0.00    +0.000 C 
ATOM     23  C   UNL     1      -5.267   2.151 130.168  0.00  0.00    +0.000 C 
ENDBRANCH   4  22
TORSDOF 2
ENDMDL
MODEL 6
REMARK VINA RESULT:      -6.9      7.878     10.034
REMARK  Name = Norethynodrel
REMARK  3 active torsions:
REMARK  status: ('A' for Active; 'I' for Inactive)
REMARK    1  A    between atoms: C_5  and  O_6
REMARK    2  A    between atoms: C_5  and  C_7
REMARK    3  A    between atoms: C_9  and  C_10
REMARK                            x       y       z     vdW  Elec       q    Type
REMARK                         _______ _______ _______ _____ _____    ______ ____
ROOT
ATOM      1  C   UNL     1      -2.952   6.749 131.382  0.00  0.00    +0.000 C 
ATOM      2  C   UNL     1      -1.694   6.203 131.740  0.00  0.00    +0.000 C 
ATOM      3  C   UNL     1      -2.647   5.376 130.958  0.00  0.00    +0.000 C 
ATOM      4  C   UNL     1      -4.103   6.509 129.972  0.00  0.00    +0.000 C 
ATOM      5  C   UNL     1      -2.901   5.988 129.613  0.00  0.00    +0.000 C 
ATOM      6  C   UNL     1      -1.899   6.514 128.667  0.00  0.00    +0.000 C 
ATOM      7  C   UNL     1      -3.761   4.389 129.351  0.00  0.00    +0.000 C 
ATOM      8  C   UNL     1      -5.035   4.229 130.379  0.00  0.00    +0.000 C 
ATOM      9  C   UNL     1      -4.842   4.569 131.929  0.00  0.00    +0.000 C 
ATOM     10  C   UNL     1      -5.995   4.248 132.814  0.00  0.00    +0.000 C 
ATOM     11  C   UNL     1      -6.184   4.900 133.983  0.00  0.00    +0.000 C 
ATOM     12  C   UNL     1      -5.294   6.012 134.511  0.00  0.00    +0.000 C 
ATOM     13  C   UNL     1      -4.005   6.199 133.747  0.00  0.00    +0.000 C 
ATOM     14  C   UNL     1      -4.341   6.101 132.281  0.00  0.00    +0.000 C 
ATOM     15  C   UNL     1      -7.345   4.581 134.873  0.00  0.00    +0.000 C 
ATOM     16  C   UNL     1      -8.317   3.684 134.136  0.00  0.00    +0.000 C 
ATOM     17  O   UNL     1      -9.528   3.887 134.111  0.00  0.00    +0.000 OA
ATOM     18  C   UNL     1      -7.682   2.514 133.440  0.00  0.00    +0.000 C 
ATOM     19  C   UNL     1      -6.832   3.090 132.341  0.00  0.00    +0.000 C 
ENDROOT
BRANCH   4  20
ATOM     20  O   UNL     1      -4.625   6.437 128.592  0.00  0.00    +0.000 OA
ATOM     21  H   UNL     1      -5.529   6.706 128.393  0.00  0.00    +0.000 HD
ENDBRANCH   4  20
BRANCH   4  22
ATOM     22  C   UNL     1      -4.056   8.110 129.880  0.00  0.00    +0.000 C 
ATOM     23  C   UNL     1      -4.073   9.325 129.729  0.00  0.00    +0.000 C 
ENDBRANCH   4  22
TORSDOF 2
ENDMDL
MODEL 7
REMARK VINA RESULT:      -6.9      1.833      6.082
REMARK  Name = Norethynodrel
REMARK  3 active torsions:
REMARK  status: ('A' for Active; 'I' for Inactive)
REMARK    1  A    between atoms: C_5  and  O_6
REMARK    2  A    between atoms: C_5  and  C_7
REMARK    3  A    between atoms: C_9  and  C_10
REMARK                            x       y       z     vdW  Elec       q    Type
REMARK                         _______ _______ _______ _____ _____    ______ ____
ROOT
ATOM      1  C   UNL     1      -6.460  -1.070 129.681  0.00  0.00    +0.000 C 
ATOM      2  C   UNL     1      -7.345  -0.194 130.359  0.00  0.00    +0.000 C 
ATOM      3  C   UNL     1      -7.888  -1.413 129.707  0.00  0.00    +0.000 C 
ATOM      4  C   UNL     1      -6.434  -2.876 129.360  0.00  0.00    +0.000 C 
ATOM      5  C   UNL     1      -7.335  -2.650 130.351  0.00  0.00    +0.000 C 
ATOM      6  C   UNL     1      -7.230  -2.935 131.794  0.00  0.00    +0.000 C 
ATOM      7  C   UNL     1      -8.596  -3.440 129.278  0.00  0.00    +0.000 C 
ATOM      8  C   UNL     1      -8.263  -3.183 127.688  0.00  0.00    +0.000 C 
ATOM      9  C   UNL     1      -7.879  -1.712 127.192  0.00  0.00    +0.000 C 
ATOM     10  C   UNL     1      -7.747  -1.534 125.720  0.00  0.00    +0.000 C 
ATOM     11  C   UNL     1      -6.979  -0.552 125.199  0.00  0.00    +0.000 C 
ATOM     12  C   UNL     1      -6.167   0.441 126.013  0.00  0.00    +0.000 C 
ATOM     13  C   UNL     1      -6.459   0.422 127.495  0.00  0.00    +0.000 C 
ATOM     14  C   UNL     1      -6.561  -1.023 127.909  0.00  0.00    +0.000 C 
ATOM     15  C   UNL     1      -6.842  -0.374 123.719  0.00  0.00    +0.000 C 
ATOM     16  C   UNL     1      -7.441  -1.569 123.007  0.00  0.00    +0.000 C 
ATOM     17  O   UNL     1      -6.868  -2.163 122.098  0.00  0.00    +0.000 OA
ATOM     18  C   UNL     1      -8.803  -1.969 123.498  0.00  0.00    +0.000 C 
ATOM     19  C   UNL     1      -8.614  -2.458 124.908  0.00  0.00    +0.000 C 
ENDROOT
BRANCH   4  20
ATOM     20  O   UNL     1      -6.446  -4.336 129.588  0.00  0.00    +0.000 OA
ATOM     21  H   UNL     1      -7.253  -4.784 129.862  0.00  0.00    +0.000 HD
ENDBRANCH   4  20
BRANCH   4  22
ATOM     22  C   UNL     1      -4.943  -2.788 129.945  0.00  0.00    +0.000 C 
ATOM     23  C   UNL     1      -3.784  -2.800 130.341  0.00  0.00    +0.000 C 
ENDBRANCH   4  22
TORSDOF 2
ENDMDL
MODEL 8
REMARK VINA RESULT:      -6.6      1.936      3.542
REMARK  Name = Norethynodrel
REMARK  3 active torsions:
REMARK  status: ('A' for Active; 'I' for Inactive)
REMARK    1  A    between atoms: C_5  and  O_6
REMARK    2  A    between atoms: C_5  and  C_7
REMARK    3  A    between atoms: C_9  and  C_10
REMARK                            x       y       z     vdW  Elec       q    Type
REMARK                         _______ _______ _______ _____ _____    ______ ____
ROOT
ATOM      1  C   UNL     1      -6.853  -1.353 124.632  0.00  0.00    +0.000 C 
ATOM      2  C   UNL     1      -5.854  -2.301 124.296  0.00  0.00    +0.000 C 
ATOM      3  C   UNL     1      -6.760  -2.576 125.440  0.00  0.00    +0.000 C 
ATOM      4  C   UNL     1      -8.526  -1.458 125.378  0.00  0.00    +0.000 C 
ATOM      5  C   UNL     1      -8.179  -2.708 124.974  0.00  0.00    +0.000 C 
ATOM      6  C   UNL     1      -8.673  -3.492 123.827  0.00  0.00    +0.000 C 
ATOM      7  C   UNL     1      -8.411  -3.249 126.712  0.00  0.00    +0.000 C 
ATOM      8  C   UNL     1      -8.053  -2.034 127.761  0.00  0.00    +0.000 C 
ATOM      9  C   UNL     1      -6.708  -1.193 127.561  0.00  0.00    +0.000 C 
ATOM     10  C   UNL     1      -6.381  -0.220 128.639  0.00  0.00    +0.000 C 
ATOM     11  C   UNL     1      -5.609   0.863 128.396  0.00  0.00    +0.000 C 
ATOM     12  C   UNL     1      -5.019   1.224 127.044  0.00  0.00    +0.000 C 
ATOM     13  C   UNL     1      -5.149   0.144 125.996  0.00  0.00    +0.000 C 
ATOM     14  C   UNL     1      -6.542  -0.421 126.111  0.00  0.00    +0.000 C 
ATOM     15  C   UNL     1      -5.283   1.844 129.479  0.00  0.00    +0.000 C 
ATOM     16  C   UNL     1      -6.140   1.562 130.695  0.00  0.00    +0.000 C 
ATOM     17  O   UNL     1      -6.749   2.438 131.302  0.00  0.00    +0.000 OA
ATOM     18  C   UNL     1      -6.183   0.118 131.107  0.00  0.00    +0.000 C 
ATOM     19  C   UNL     1      -6.890  -0.615 130.000  0.00  0.00    +0.000 C 
ENDROOT
BRANCH   4  20
ATOM     20  O   UNL     1      -9.935  -1.847 125.602  0.00  0.00    +0.000 OA
ATOM     21  H   UNL     1     -10.162  -2.519 126.253  0.00  0.00    +0.000 HD
ENDBRANCH   4  20
BRANCH   4  22
ATOM     22  C   UNL     1      -8.963  -0.575 124.111  0.00  0.00    +0.000 C 
ATOM     23  C   UNL     1      -9.384   0.102 123.183  0.00  0.00    +0.000 C 
ENDBRANCH   4  22
TORSDOF 2
ENDMDL
MODEL 9
REMARK VINA RESULT:      -6.5      7.214      9.490
REMARK  Name = Norethynodrel
REMARK  3 active torsions:
REMARK  status: ('A' for Active; 'I' for Inactive)
REMARK    1  A    between atoms: C_5  and  O_6
REMARK    2  A    between atoms: C_5  and  C_7
REMARK    3  A    between atoms: C_9  and  C_10
REMARK                            x       y       z     vdW  Elec       q    Type
REMARK                         _______ _______ _______ _____ _____    ______ ____
ROOT
ATOM      1  C   UNL     1      -5.855   3.602 131.253  0.00  0.00    +0.000 C 
ATOM      2  C   UNL     1      -5.204   3.277 130.036  0.00  0.00    +0.000 C 
ATOM      3  C   UNL     1      -5.466   4.701 130.361  0.00  0.00    +0.000 C 
ATOM      4  C   UNL     1      -5.797   5.033 132.399  0.00  0.00    +0.000 C 
ATOM      5  C   UNL     1      -4.710   5.114 131.589  0.00  0.00    +0.000 C 
ATOM      6  C   UNL     1      -3.292   4.849 131.896  0.00  0.00    +0.000 C 
ATOM      7  C   UNL     1      -5.316   6.767 131.073  0.00  0.00    +0.000 C 
ATOM      8  C   UNL     1      -6.958   6.835 131.119  0.00  0.00    +0.000 C 
ATOM      9  C   UNL     1      -7.813   5.647 130.475  0.00  0.00    +0.000 C 
ATOM     10  C   UNL     1      -9.285   5.860 130.419  0.00  0.00    +0.000 C 
ATOM     11  C   UNL     1     -10.143   4.816 130.382  0.00  0.00    +0.000 C 
ATOM     12  C   UNL     1      -9.735   3.354 130.414  0.00  0.00    +0.000 C 
ATOM     13  C   UNL     1      -8.253   3.113 130.246  0.00  0.00    +0.000 C 
ATOM     14  C   UNL     1      -7.540   4.139 131.089  0.00  0.00    +0.000 C 
ATOM     15  C   UNL     1     -11.624   5.029 130.329  0.00  0.00    +0.000 C 
ATOM     16  C   UNL     1     -11.938   6.486 130.592  0.00  0.00    +0.000 C 
ATOM     17  O   UNL     1     -12.804   6.853 131.382  0.00  0.00    +0.000 OA
ATOM     18  C   UNL     1     -11.106   7.456 129.802  0.00  0.00    +0.000 C 
ATOM     19  C   UNL     1      -9.695   7.303 130.301  0.00  0.00    +0.000 C 
ENDROOT
BRANCH   4  20
ATOM     20  O   UNL     1      -5.277   6.069 133.316  0.00  0.00    +0.000 OA
ATOM     21  H   UNL     1      -4.553   5.872 133.921  0.00  0.00    +0.000 HD
ENDBRANCH   4  20
BRANCH   4  22
ATOM     22  C   UNL     1      -5.561   3.911 133.521  0.00  0.00    +0.000 C 
ATOM     23  C   UNL     1      -5.405   3.120 134.443  0.00  0.00    +0.000 C 
ENDBRANCH   4  22
TORSDOF 2
ENDMDL
