MODEL 1
REMARK VINA RESULT:      -6.9      0.000      0.000
REMARK  Name = Norfloxacin
REMARK  5 active torsions:
REMARK  status: ('A' for Active; 'I' for Inactive)
REMARK    1  A    between atoms: C_1  and  C_2
REMARK    2  A    between atoms: C_2  and  N_3
REMARK    3  A    between atoms: C_5  and  C_6
REMARK    4  A    between atoms: C_6  and  O_7
REMARK    5  A    between atoms: C_15  and  N_18
REMARK                            x       y       z     vdW  Elec       q    Type
REMARK                         _______ _______ _______ _____ _____    ______ ____
ROOT
ATOM      1  N   UNL     1      -6.285  -2.129 125.037  0.00  0.00    +0.000 N 
ATOM      2  C   UNL     1      -7.354  -2.218 124.142  0.00  0.00    +0.000 A 
ATOM      3  C   UNL     1      -8.645  -2.435 124.439  0.00  0.00    +0.000 A 
ATOM      4  C   UNL     1      -8.970  -2.580 125.867  0.00  0.00    +0.000 A 
ATOM      5  O   UNL     1     -10.135  -2.789 126.211  0.00  0.00    +0.000 OA
ATOM      6  C   UNL     1      -7.867  -2.501 126.853  0.00  0.00    +0.000 A 
ATOM      7  C   UNL     1      -8.172  -2.720 128.194  0.00  0.00    +0.000 A 
ATOM      8  C   UNL     1      -7.134  -2.849 129.104  0.00  0.00    +0.000 A 
ATOM      9  F   UNL     1      -7.440  -3.219 130.357  0.00  0.00    +0.000 F 
ATOM     10  C   UNL     1      -5.793  -2.623 128.748  0.00  0.00    +0.000 A 
ATOM     11  C   UNL     1      -5.540  -2.237 127.424  0.00  0.00    +0.000 A 
ATOM     12  C   UNL     1      -6.540  -2.273 126.423  0.00  0.00    +0.000 A 
ENDROOT
BRANCH  10  13
ATOM     13  N   UNL     1      -4.765  -2.887 129.625  0.00  0.00    +0.000 N 
ATOM     14  C   UNL     1      -3.696  -1.972 130.030  0.00  0.00    +0.000 C 
ATOM     15  C   UNL     1      -3.617  -1.959 131.584  0.00  0.00    +0.000 C 
ATOM     16  N   UNL     1      -3.448  -3.308 132.175  0.00  0.00    +0.000 NA
ATOM     17  C   UNL     1      -4.544  -4.182 131.700  0.00  0.00    +0.000 C 
ATOM     18  C   UNL     1      -4.625  -4.247 130.163  0.00  0.00    +0.000 C 
ATOM     19  H   UNL     1      -3.498  -3.241 133.190  0.00  0.00    +0.000 HD
ENDBRANCH  10  13
BRANCH   1  21
ATOM     20  C   UNL     1      -4.650  -3.215 123.523  0.00  0.00    +0.000 C 
ATOM     21  C   UNL     1      -4.895  -2.101 124.534  0.00  0.00    +0.000 C 
ENDBRANCH   1  21
BRANCH   3  22
ATOM     22  C   UNL     1      -9.646  -2.545 123.354  0.00  0.00    +0.000 C 
ATOM     23  O   UNL     1      -9.867  -1.650 122.554  0.00  0.00    +0.000 OA
BRANCH  22  24
ATOM     24  O   UNL     1     -10.305  -3.726 123.305  0.00  0.00    +0.000 OA
ATOM     25  H   UNL     1     -10.900  -3.893 124.076  0.00  0.00    +0.000 HD
ENDBRANCH  22  24
ENDBRANCH   3  22
TORSDOF 4
ENDMDL
MODEL 2
REMARK VINA RESULT:      -6.8     10.474     11.458
REMARK  Name = Norfloxacin
REMARK  5 active torsions:
REMARK  status: ('A' for Active; 'I' for Inactive)
REMARK    1  A    between atoms: C_1  and  C_2
REMARK    2  A    between atoms: C_2  and  N_3
REMARK    3  A    between atoms: C_5  and  C_6
REMARK    4  A    between atoms: C_6  and  O_7
REMARK    5  A    between atoms: C_15  and  N_18
REMARK                            x       y       z     vdW  Elec       q    Type
REMARK                         _______ _______ _______ _____ _____    ______ ____
ROOT
ATOM      1  N   UNL     1      -7.521   5.307 133.632  0.00  0.00    +0.000 N 
ATOM      2  C   UNL     1      -8.850   5.434 133.224  0.00  0.00    +0.000 A 
ATOM      3  C   UNL     1      -9.304   6.032 132.111  0.00  0.00    +0.000 A 
ATOM      4  C   UNL     1      -8.285   6.603 131.217  0.00  0.00    +0.000 A 
ATOM      5  O   UNL     1      -8.630   7.174 130.180  0.00  0.00    +0.000 OA
ATOM      6  C   UNL     1      -6.861   6.499 131.613  0.00  0.00    +0.000 A 
ATOM      7  C   UNL     1      -5.909   7.113 130.801  0.00  0.00    +0.000 A 
ATOM      8  C   UNL     1      -4.602   7.201 131.252  0.00  0.00    +0.000 A 
ATOM      9  F   UNL     1      -3.738   7.935 130.534  0.00  0.00    +0.000 F 
ATOM     10  C   UNL     1      -4.171   6.568 132.430  0.00  0.00    +0.000 A 
ATOM     11  C   UNL     1      -5.122   5.814 133.135  0.00  0.00    +0.000 A 
ATOM     12  C   UNL     1      -6.499   5.849 132.815  0.00  0.00    +0.000 A 
ENDROOT
BRANCH  10  13
ATOM     13  N   UNL     1      -2.907   6.777 132.935  0.00  0.00    +0.000 N 
ATOM     14  C   UNL     1      -1.770   5.855 132.873  0.00  0.00    +0.000 C 
ATOM     15  C   UNL     1      -0.537   6.628 132.320  0.00  0.00    +0.000 C 
ATOM     16  N   UNL     1      -0.218   7.853 133.090  0.00  0.00    +0.000 NA
ATOM     17  C   UNL     1      -1.418   8.719 133.135  0.00  0.00    +0.000 C 
ATOM     18  C   UNL     1      -2.648   7.995 133.714  0.00  0.00    +0.000 C 
ATOM     19  H   UNL     1       0.534   8.360 132.624  0.00  0.00    +0.000 HD
ENDBRANCH  10  13
BRANCH   1  21
ATOM     20  C   UNL     1      -7.560   5.841 136.053  0.00  0.00    +0.000 C 
ATOM     21  C   UNL     1      -7.204   4.809 134.988  0.00  0.00    +0.000 C 
ENDBRANCH   1  21
BRANCH   3  22
ATOM     22  C   UNL     1     -10.760   6.114 131.855  0.00  0.00    +0.000 C 
ATOM     23  O   UNL     1     -11.447   7.065 132.193  0.00  0.00    +0.000 OA
BRANCH  22  24
ATOM     24  O   UNL     1     -11.284   5.048 131.207  0.00  0.00    +0.000 OA
ATOM     25  H   UNL     1     -12.132   5.234 130.735  0.00  0.00    +0.000 HD
ENDBRANCH  22  24
ENDBRANCH   3  22
TORSDOF 4
ENDMDL
MODEL 3
REMARK VINA RESULT:      -6.6      2.524      2.916
REMARK  Name = Norfloxacin
REMARK  5 active torsions:
REMARK  status: ('A' for Active; 'I' for Inactive)
REMARK    1  A    between atoms: C_1  and  C_2
REMARK    2  A    between atoms: C_2  and  N_3
REMARK    3  A    between atoms: C_5  and  C_6
REMARK    4  A    between atoms: C_6  and  O_7
REMARK    5  A    between atoms: C_15  and  N_18
REMARK                            x       y       z     vdW  Elec       q    Type
REMARK                         _______ _______ _______ _____ _____    ______ ____
ROOT
ATOM      1  N   UNL     1      -7.694  -1.436 125.233  0.00  0.00    +0.000 N 
ATOM      2  C   UNL     1      -8.556  -0.502 124.655  0.00  0.00    +0.000 A 
ATOM      3  C   UNL     1      -9.040   0.614 125.222  0.00  0.00    +0.000 A 
ATOM      4  C   UNL     1      -8.601   0.889 126.599  0.00  0.00    +0.000 A 
ATOM      5  O   UNL     1      -9.013   1.893 127.185  0.00  0.00    +0.000 OA
ATOM      6  C   UNL     1      -7.693  -0.079 127.256  0.00  0.00    +0.000 A 
ATOM      7  C   UNL     1      -7.347   0.147 128.587  0.00  0.00    +0.000 A 
ATOM      8  C   UNL     1      -6.666  -0.843 129.278  0.00  0.00    +0.000 A 
ATOM      9  F   UNL     1      -6.485  -0.675 130.598  0.00  0.00    +0.000 F 
ATOM     10  C   UNL     1      -6.185  -2.002 128.648  0.00  0.00    +0.000 A 
ATOM     11  C   UNL     1      -6.405  -2.116 127.267  0.00  0.00    +0.000 A 
ATOM     12  C   UNL     1      -7.249  -1.227 126.562  0.00  0.00    +0.000 A 
ENDROOT
BRANCH  10  13
ATOM     13  N   UNL     1      -5.633  -3.035 129.372  0.00  0.00    +0.000 N 
ATOM     14  C   UNL     1      -4.222  -3.430 129.408  0.00  0.00    +0.000 C 
ATOM     15  C   UNL     1      -3.778  -3.545 130.895  0.00  0.00    +0.000 C 
ATOM     16  N   UNL     1      -4.632  -4.456 131.694  0.00  0.00    +0.000 NA
ATOM     17  C   UNL     1      -6.040  -4.014 131.587  0.00  0.00    +0.000 C 
ATOM     18  C   UNL     1      -6.523  -3.926 130.127  0.00  0.00    +0.000 C 
ATOM     19  H   UNL     1      -4.348  -4.413 132.672  0.00  0.00    +0.000 HD
ENDBRANCH  10  13
BRANCH   1  21
ATOM     20  C   UNL     1      -8.694  -3.557 124.427  0.00  0.00    +0.000 C 
ATOM     21  C   UNL     1      -7.425  -2.720 124.551  0.00  0.00    +0.000 C 
ENDBRANCH   1  21
BRANCH   3  22
ATOM     22  C   UNL     1      -9.985   1.475 124.474  0.00  0.00    +0.000 C 
ATOM     23  O   UNL     1     -10.970   1.044 123.897  0.00  0.00    +0.000 OA
BRANCH  22  24
ATOM     24  O   UNL     1      -9.679   2.794 124.479  0.00  0.00    +0.000 OA
ATOM     25  H   UNL     1     -10.107   3.314 123.756  0.00  0.00    +0.000 HD
ENDBRANCH  22  24
ENDBRANCH   3  22
TORSDOF 4
ENDMDL
MODEL 4
REMARK VINA RESULT:      -6.6      5.422      6.073
REMARK  Name = Norfloxacin
REMARK  5 active torsions:
REMARK  status: ('A' for Active; 'I' for Inactive)
REMARK    1  A    between atoms: C_1  and  C_2
REMARK    2  A    between atoms: C_2  and  N_3
REMARK    3  A    between atoms: C_5  and  C_6
REMARK    4  A    between atoms: C_6  and  O_7
REMARK    5  A    between atoms: C_15  and  N_18
REMARK                            x       y       z     vdW  Elec       q    Type
REMARK                         _______ _______ _______ _____ _____    ______ ____
ROOT
ATOM      1  N   UNL     1      -7.490   2.806 123.591  0.00  0.00    +0.000 N 
ATOM      2  C   UNL     1      -8.528   2.060 123.029  0.00  0.00    +0.000 A 
ATOM      3  C   UNL     1      -9.407   1.277 123.675  0.00  0.00    +0.000 A 
ATOM      4  C   UNL     1      -9.269   1.212 125.138  0.00  0.00    +0.000 A 
ATOM      5  O   UNL     1     -10.037   0.507 125.795  0.00  0.00    +0.000 OA
ATOM      6  C   UNL     1      -8.176   1.982 125.778  0.00  0.00    +0.000 A 
ATOM      7  C   UNL     1      -8.003   1.851 127.154  0.00  0.00    +0.000 A 
ATOM      8  C   UNL     1      -6.873   2.399 127.741  0.00  0.00    +0.000 A 
ATOM      9  F   UNL     1      -6.642   2.124 129.035  0.00  0.00    +0.000 F 
ATOM     10  C   UNL     1      -5.972   3.204 127.025  0.00  0.00    +0.000 A 
ATOM     11  C   UNL     1      -6.271   3.455 125.677  0.00  0.00    +0.000 A 
ATOM     12  C   UNL     1      -7.304   2.771 124.995  0.00  0.00    +0.000 A 
ENDROOT
BRANCH  10  13
ATOM     13  N   UNL     1      -4.787   3.626 127.585  0.00  0.00    +0.000 N 
ATOM     14  C   UNL     1      -3.519   2.893 127.621  0.00  0.00    +0.000 C 
ATOM     15  C   UNL     1      -2.390   3.830 127.100  0.00  0.00    +0.000 C 
ATOM     16  N   UNL     1      -2.311   5.117 127.832  0.00  0.00    +0.000 NA
ATOM     17  C   UNL     1      -3.631   5.784 127.778  0.00  0.00    +0.000 C 
ATOM     18  C   UNL     1      -4.765   4.896 128.323  0.00  0.00    +0.000 C 
ATOM     19  H   UNL     1      -1.621   5.718 127.384  0.00  0.00    +0.000 HD
ENDBRANCH  10  13
BRANCH   1  21
ATOM     20  C   UNL     1      -6.987   3.581 121.290  0.00  0.00    +0.000 C 
ATOM     21  C   UNL     1      -6.479   3.445 122.721  0.00  0.00    +0.000 C 
ENDBRANCH   1  21
BRANCH   3  22
ATOM     22  C   UNL     1     -10.423   0.517 122.911  0.00  0.00    +0.000 C 
ATOM     23  O   UNL     1     -10.146  -0.411 122.168  0.00  0.00    +0.000 OA
BRANCH  22  24
ATOM     24  O   UNL     1     -11.699   0.925 123.101  0.00  0.00    +0.000 OA
ATOM     25  H   UNL     1     -11.877   1.309 123.994  0.00  0.00    +0.000 HD
ENDBRANCH  22  24
ENDBRANCH   3  22
TORSDOF 4
ENDMDL
MODEL 5
REMARK VINA RESULT:      -6.5      2.456      3.039
REMARK  Name = Norfloxacin
REMARK  5 active torsions:
REMARK  status: ('A' for Active; 'I' for Inactive)
REMARK    1  A    between atoms: C_1  and  C_2
REMARK    2  A    between atoms: C_2  and  N_3
REMARK    3  A    between atoms: C_5  and  C_6
REMARK    4  A    between atoms: C_6  and  O_7
REMARK    5  A    between atoms: C_15  and  N_18
REMARK                            x       y       z     vdW  Elec       q    Type
REMARK                         _______ _______ _______ _____ _____    ______ ____
ROOT
ATOM      1  N   UNL     1      -7.557  -1.589 124.653  0.00  0.00    +0.000 N 
ATOM      2  C   UNL     1      -8.377  -0.899 123.758  0.00  0.00    +0.000 A 
ATOM      3  C   UNL     1      -9.012   0.264 123.970  0.00  0.00    +0.000 A 
ATOM      4  C   UNL     1      -8.808   0.887 125.287  0.00  0.00    +0.000 A 
ATOM      5  O   UNL     1      -9.367   1.953 125.554  0.00  0.00    +0.000 OA
ATOM      6  C   UNL     1      -7.952   0.187 126.273  0.00  0.00    +0.000 A 
ATOM      7  C   UNL     1      -7.830   0.743 127.545  0.00  0.00    +0.000 A 
ATOM      8  C   UNL     1      -7.202   0.008 128.538  0.00  0.00    +0.000 A 
ATOM      9  F   UNL     1      -7.237   0.489 129.791  0.00  0.00    +0.000 F 
ATOM     10  C   UNL     1      -6.558  -1.212 128.275  0.00  0.00    +0.000 A 
ATOM     11  C   UNL     1      -6.555  -1.659 126.945  0.00  0.00    +0.000 A 
ATOM     12  C   UNL     1      -7.336  -1.041 125.940  0.00  0.00    +0.000 A 
ENDROOT
BRANCH  10  13
ATOM     13  N   UNL     1      -6.060  -1.994 129.293  0.00  0.00    +0.000 N 
ATOM     14  C   UNL     1      -6.830  -2.807 130.237  0.00  0.00    +0.000 C 
ATOM     15  C   UNL     1      -6.231  -4.244 130.256  0.00  0.00    +0.000 C 
ATOM     16  N   UNL     1      -4.779  -4.271 130.554  0.00  0.00    +0.000 NA
ATOM     17  C   UNL     1      -4.072  -3.407 129.582  0.00  0.00    +0.000 C 
ATOM     18  C   UNL     1      -4.617  -1.966 129.566  0.00  0.00    +0.000 C 
ATOM     19  H   UNL     1      -4.432  -5.224 130.458  0.00  0.00    +0.000 HD
ENDBRANCH  10  13
BRANCH   1  21
ATOM     20  C   UNL     1      -8.233  -3.972 124.538  0.00  0.00    +0.000 C 
ATOM     21  C   UNL     1      -7.107  -2.963 124.341  0.00  0.00    +0.000 C 
ENDBRANCH   1  21
BRANCH   3  22
ATOM     22  C   UNL     1      -9.883   0.835 122.917  0.00  0.00    +0.000 C 
ATOM     23  O   UNL     1     -10.887   0.279 122.504  0.00  0.00    +0.000 OA
BRANCH  22  24
ATOM     24  O   UNL     1      -9.485   2.039 122.442  0.00  0.00    +0.000 OA
ATOM     25  H   UNL     1     -10.213   2.699 122.343  0.00  0.00    +0.000 HD
ENDBRANCH  22  24
ENDBRANCH   3  22
TORSDOF 4
ENDMDL
MODEL 6
REMARK VINA RESULT:      -6.5      5.477      7.483
REMARK  Name = Norfloxacin
REMARK  5 active torsions:
REMARK  status: ('A' for Active; 'I' for Inactive)
REMARK    1  A    between atoms: C_1  and  C_2
REMARK    2  A    between atoms: C_2  and  N_3
REMARK    3  A    between atoms: C_5  and  C_6
REMARK    4  A    between atoms: C_6  and  O_7
REMARK    5  A    between atoms: C_15  and  N_18
REMARK                            x       y       z     vdW  Elec       q    Type
REMARK                         _______ _______ _______ _____ _____    ______ ____
ROOT
ATOM      1  N   UNL     1      -5.738   3.402 124.824  0.00  0.00    +0.000 N 
ATOM      2  C   UNL     1      -4.937   4.277 125.561  0.00  0.00    +0.000 A 
ATOM      3  C   UNL     1      -4.281   4.011 126.702  0.00  0.00    +0.000 A 
ATOM      4  C   UNL     1      -4.409   2.642 127.223  0.00  0.00    +0.000 A 
ATOM      5  O   UNL     1      -3.840   2.330 128.271  0.00  0.00    +0.000 OA
ATOM      6  C   UNL     1      -5.256   1.680 126.479  0.00  0.00    +0.000 A 
ATOM      7  C   UNL     1      -5.437   0.411 127.023  0.00  0.00    +0.000 A 
ATOM      8  C   UNL     1      -6.378  -0.433 126.454  0.00  0.00    +0.000 A 
ATOM      9  F   UNL     1      -6.653  -1.585 127.086  0.00  0.00    +0.000 F 
ATOM     10  C   UNL     1      -7.051  -0.111 125.263  0.00  0.00    +0.000 A 
ATOM     11  C   UNL     1      -6.717   1.106 124.650  0.00  0.00    +0.000 A 
ATOM     12  C   UNL     1      -5.906   2.074 125.287  0.00  0.00    +0.000 A 
ENDROOT
BRANCH  10  13
ATOM     13  N   UNL     1      -8.078  -0.895 124.786  0.00  0.00    +0.000 N 
ATOM     14  C   UNL     1      -8.202  -1.460 123.440  0.00  0.00    +0.000 C 
ATOM     15  C   UNL     1      -8.504  -2.982 123.568  0.00  0.00    +0.000 C 
ATOM     16  N   UNL     1      -9.690  -3.276 124.407  0.00  0.00    +0.000 NA
ATOM     17  C   UNL     1      -9.507  -2.651 125.737  0.00  0.00    +0.000 C 
ATOM     18  C   UNL     1      -9.243  -1.136 125.646  0.00  0.00    +0.000 C 
ATOM     19  H   UNL     1      -9.776  -4.284 124.529  0.00  0.00    +0.000 HD
ENDBRANCH  10  13
BRANCH   1  21
ATOM     20  C   UNL     1      -5.741   4.043 122.429  0.00  0.00    +0.000 C 
ATOM     21  C   UNL     1      -6.562   3.911 123.707  0.00  0.00    +0.000 C 
ENDBRANCH   1  21
BRANCH   3  22
ATOM     22  C   UNL     1      -3.508   5.078 127.377  0.00  0.00    +0.000 C 
ATOM     23  O   UNL     1      -3.992   6.148 127.710  0.00  0.00    +0.000 OA
BRANCH  22  24
ATOM     24  O   UNL     1      -2.208   4.779 127.608  0.00  0.00    +0.000 OA
ATOM     25  H   UNL     1      -1.998   3.815 127.569  0.00  0.00    +0.000 HD
ENDBRANCH  22  24
ENDBRANCH   3  22
TORSDOF 4
ENDMDL
MODEL 7
REMARK VINA RESULT:      -6.2      6.374      7.352
REMARK  Name = Norfloxacin
REMARK  5 active torsions:
REMARK  status: ('A' for Active; 'I' for Inactive)
REMARK    1  A    between atoms: C_1  and  C_2
REMARK    2  A    between atoms: C_2  and  N_3
REMARK    3  A    between atoms: C_5  and  C_6
REMARK    4  A    between atoms: C_6  and  O_7
REMARK    5  A    between atoms: C_15  and  N_18
REMARK                            x       y       z     vdW  Elec       q    Type
REMARK                         _______ _______ _______ _____ _____    ______ ____
ROOT
ATOM      1  N   UNL     1      -8.348   2.501 123.711  0.00  0.00    +0.000 N 
ATOM      2  C   UNL     1      -7.988   2.856 122.409  0.00  0.00    +0.000 A 
ATOM      3  C   UNL     1      -6.928   3.588 122.031  0.00  0.00    +0.000 A 
ATOM      4  C   UNL     1      -6.040   4.054 123.108  0.00  0.00    +0.000 A 
ATOM      5  O   UNL     1      -5.052   4.738 122.834  0.00  0.00    +0.000 OA
ATOM      6  C   UNL     1      -6.386   3.708 124.506  0.00  0.00    +0.000 A 
ATOM      7  C   UNL     1      -5.586   4.221 125.524  0.00  0.00    +0.000 A 
ATOM      8  C   UNL     1      -6.002   4.079 126.839  0.00  0.00    +0.000 A 
ATOM      9  F   UNL     1      -5.304   4.718 127.791  0.00  0.00    +0.000 F 
ATOM     10  C   UNL     1      -7.125   3.312 127.190  0.00  0.00    +0.000 A 
ATOM     11  C   UNL     1      -7.810   2.668 126.149  0.00  0.00    +0.000 A 
ATOM     12  C   UNL     1      -7.534   2.933 124.788  0.00  0.00    +0.000 A 
ENDROOT
BRANCH  10  13
ATOM     13  N   UNL     1      -7.604   3.292 128.482  0.00  0.00    +0.000 N 
ATOM     14  C   UNL     1      -7.548   2.172 129.424  0.00  0.00    +0.000 C 
ATOM     15  C   UNL     1      -6.954   2.685 130.768  0.00  0.00    +0.000 C 
ATOM     16  N   UNL     1      -7.685   3.847 131.327  0.00  0.00    +0.000 NA
ATOM     17  C   UNL     1      -7.725   4.924 130.312  0.00  0.00    +0.000 C 
ATOM     18  C   UNL     1      -8.343   4.458 128.981  0.00  0.00    +0.000 C 
ATOM     19  H   UNL     1      -7.193   4.192 132.150  0.00  0.00    +0.000 HD
ENDBRANCH  10  13
BRANCH   1  21
ATOM     20  C   UNL     1     -10.011   0.852 122.898  0.00  0.00    +0.000 C 
ATOM     21  C   UNL     1      -9.660   1.874 123.975  0.00  0.00    +0.000 C 
ENDBRANCH   1  21
BRANCH   3  22
ATOM     22  C   UNL     1      -6.722   3.908 120.600  0.00  0.00    +0.000 C 
ATOM     23  O   UNL     1      -7.639   4.079 119.813  0.00  0.00    +0.000 OA
BRANCH  22  24
ATOM     24  O   UNL     1      -5.427   4.005 120.220  0.00  0.00    +0.000 OA
ATOM     25  H   UNL     1      -5.271   3.846 119.258  0.00  0.00    +0.000 HD
ENDBRANCH  22  24
ENDBRANCH   3  22
TORSDOF 4
ENDMDL
MODEL 8
REMARK VINA RESULT:      -6.2      2.196      2.567
REMARK  Name = Norfloxacin
REMARK  5 active torsions:
REMARK  status: ('A' for Active; 'I' for Inactive)
REMARK    1  A    between atoms: C_1  and  C_2
REMARK    2  A    between atoms: C_2  and  N_3
REMARK    3  A    between atoms: C_5  and  C_6
REMARK    4  A    between atoms: C_6  and  O_7
REMARK    5  A    between atoms: C_15  and  N_18
REMARK                            x       y       z     vdW  Elec       q    Type
REMARK                         _______ _______ _______ _____ _____    ______ ____
ROOT
ATOM      1  N   UNL     1      -7.206   0.761 126.463  0.00  0.00    +0.000 N 
ATOM      2  C   UNL     1      -7.983   0.849 125.306  0.00  0.00    +0.000 A 
ATOM      3  C   UNL     1      -8.837  -0.071 124.831  0.00  0.00    +0.000 A 
ATOM      4  C   UNL     1      -8.981  -1.300 125.627  0.00  0.00    +0.000 A 
ATOM      5  O   UNL     1      -9.743  -2.191 125.246  0.00  0.00    +0.000 OA
ATOM      6  C   UNL     1      -8.170  -1.441 126.859  0.00  0.00    +0.000 A 
ATOM      7  C   UNL     1      -8.251  -2.641 127.562  0.00  0.00    +0.000 A 
ATOM      8  C   UNL     1      -7.359  -2.871 128.597  0.00  0.00    +0.000 A 
ATOM      9  F   UNL     1      -7.346  -4.093 129.154  0.00  0.00    +0.000 F 
ATOM     10  C   UNL     1      -6.472  -1.883 129.057  0.00  0.00    +0.000 A 
ATOM     11  C   UNL     1      -6.537  -0.627 128.434  0.00  0.00    +0.000 A 
ATOM     12  C   UNL     1      -7.296  -0.406 127.261  0.00  0.00    +0.000 A 
ENDROOT
BRANCH  10  13
ATOM     13  N   UNL     1      -5.502  -2.170 129.991  0.00  0.00    +0.000 N 
ATOM     14  C   UNL     1      -5.697  -2.382 131.427  0.00  0.00    +0.000 C 
ATOM     15  C   UNL     1      -4.993  -3.710 131.831  0.00  0.00    +0.000 C 
ATOM     16  N   UNL     1      -3.561  -3.754 131.451  0.00  0.00    +0.000 NA
ATOM     17  C   UNL     1      -3.440  -3.504 129.997  0.00  0.00    +0.000 C 
ATOM     18  C   UNL     1      -4.095  -2.176 129.570  0.00  0.00    +0.000 C 
ATOM     19  H   UNL     1      -3.185  -4.679 131.656  0.00  0.00    +0.000 HD
ENDBRANCH  10  13
BRANCH   1  21
ATOM     20  C   UNL     1      -5.700   2.447 125.446  0.00  0.00    +0.000 C 
ATOM     21  C   UNL     1      -6.157   1.768 126.732  0.00  0.00    +0.000 C 
ENDBRANCH   1  21
BRANCH   3  22
ATOM     22  C   UNL     1      -9.551   0.171 123.557  0.00  0.00    +0.000 C 
ATOM     23  O   UNL     1      -9.929   1.275 123.199  0.00  0.00    +0.000 OA
BRANCH  22  24
ATOM     24  O   UNL     1      -9.755  -0.934 122.801  0.00  0.00    +0.000 OA
ATOM     25  H   UNL     1      -9.338  -1.755 123.158  0.00  0.00    +0.000 HD
ENDBRANCH  22  24
ENDBRANCH   3  22
TORSDOF 4
ENDMDL
MODEL 9
REMARK VINA RESULT:      -6.1      4.789      7.494
REMARK  Name = Norfloxacin
REMARK  5 active torsions:
REMARK  status: ('A' for Active; 'I' for Inactive)
REMARK    1  A    between atoms: C_1  and  C_2
REMARK    2  A    between atoms: C_2  and  N_3
REMARK    3  A    between atoms: C_5  and  C_6
REMARK    4  A    between atoms: C_6  and  O_7
REMARK    5  A    between atoms: C_15  and  N_18
REMARK                            x       y       z     vdW  Elec       q    Type
REMARK                         _______ _______ _______ _____ _____    ______ ____
ROOT
ATOM      1  N   UNL     1      -6.953  -1.134 124.296  0.00  0.00    +0.000 N 
ATOM      2  C   UNL     1      -7.104  -1.965 125.408  0.00  0.00    +0.000 A 
ATOM      3  C   UNL     1      -7.524  -1.612 126.633  0.00  0.00    +0.000 A 
ATOM      4  C   UNL     1      -7.878  -0.197 126.819  0.00  0.00    +0.000 A 
ATOM      5  O   UNL     1      -8.264   0.199 127.921  0.00  0.00    +0.000 OA
ATOM      6  C   UNL     1      -7.726   0.725 125.668  0.00  0.00    +0.000 A 
ATOM      7  C   UNL     1      -7.985   2.078 125.875  0.00  0.00    +0.000 A 
ATOM      8  C   UNL     1      -7.660   2.982 124.876  0.00  0.00    +0.000 A 
ATOM      9  F   UNL     1      -7.767   4.290 125.155  0.00  0.00    +0.000 F 
ATOM     10  C   UNL     1      -7.213   2.570 123.610  0.00  0.00    +0.000 A 
ATOM     11  C   UNL     1      -7.126   1.189 123.381  0.00  0.00    +0.000 A 
ATOM     12  C   UNL     1      -7.268   0.242 124.422  0.00  0.00    +0.000 A 
ENDROOT
BRANCH  10  13
ATOM     13  N   UNL     1      -6.765   3.480 122.677  0.00  0.00    +0.000 N 
ATOM     14  C   UNL     1      -5.577   4.330 122.778  0.00  0.00    +0.000 C 
ATOM     15  C   UNL     1      -4.740   4.168 121.475  0.00  0.00    +0.000 C 
ATOM     16  N   UNL     1      -5.516   4.438 120.241  0.00  0.00    +0.000 NA
ATOM     17  C   UNL     1      -6.712   3.566 120.224  0.00  0.00    +0.000 C 
ATOM     18  C   UNL     1      -7.582   3.731 121.484  0.00  0.00    +0.000 C 
ATOM     19  H   UNL     1      -4.942   4.223 119.427  0.00  0.00    +0.000 HD
ENDBRANCH  10  13
BRANCH   1  21
ATOM     20  C   UNL     1      -5.354  -2.805 123.403  0.00  0.00    +0.000 C 
ATOM     21  C   UNL     1      -6.277  -1.635 123.080  0.00  0.00    +0.000 C 
ENDBRANCH   1  21
BRANCH   3  22
ATOM     22  C   UNL     1      -7.583  -2.622 127.714  0.00  0.00    +0.000 C 
ATOM     23  O   UNL     1      -8.328  -3.588 127.689  0.00  0.00    +0.000 OA
BRANCH  22  24
ATOM     24  O   UNL     1      -6.736  -2.400 128.747  0.00  0.00    +0.000 OA
ATOM     25  H   UNL     1      -7.182  -2.271 129.619  0.00  0.00    +0.000 HD
ENDBRANCH  22  24
ENDBRANCH   3  22
TORSDOF 4
ENDMDL
