MODEL 1
REMARK VINA RESULT:      -3.4      0.000      0.000
REMARK  Name = Norflurane
REMARK  1 active torsions:
REMARK  status: ('A' for Active; 'I' for Inactive)
REMARK    1  A    between atoms: C_2  and  C_3
REMARK                            x       y       z     vdW  Elec       q    Type
REMARK                         _______ _______ _______ _____ _____    ______ ____
ROOT
ATOM      1  C   UNL     1      -5.264  -3.161 123.626  0.00  0.00    +0.000 C 
ATOM      2  F   UNL     1      -4.980  -2.190 124.520  0.00  0.00    +0.000 F 
ATOM      3  F   UNL     1      -5.427  -2.584 122.415  0.00  0.00    +0.000 F 
ATOM      4  F   UNL     1      -6.457  -3.697 123.980  0.00  0.00    +0.000 F 
ENDROOT
BRANCH   1   6
ATOM      5  F   UNL     1      -4.744  -5.474 123.679  0.00  0.00    +0.000 F 
ATOM      6  C   UNL     1      -4.195  -4.231 123.599  0.00  0.00    +0.000 C 
ENDBRANCH   1   6
TORSDOF 1
ENDMDL
MODEL 2
REMARK VINA RESULT:      -3.4     14.333     15.171
REMARK  Name = Norflurane
REMARK  1 active torsions:
REMARK  status: ('A' for Active; 'I' for Inactive)
REMARK    1  A    between atoms: C_2  and  C_3
REMARK                            x       y       z     vdW  Elec       q    Type
REMARK                         _______ _______ _______ _____ _____    ______ ____
ROOT
ATOM      1  C   UNL     1     -12.744   8.644 128.732  0.00  0.00    +0.000 C 
ATOM      2  F   UNL     1     -13.392   9.765 128.353  0.00  0.00    +0.000 F 
ATOM      3  F   UNL     1     -13.646   7.641 128.808  0.00  0.00    +0.000 F 
ATOM      4  F   UNL     1     -12.270   8.856 129.984  0.00  0.00    +0.000 F 
ENDROOT
BRANCH   1   6
ATOM      5  F   UNL     1     -10.467   8.961 128.145  0.00  0.00    +0.000 F 
ATOM      6  C   UNL     1     -11.608   8.305 127.791  0.00  0.00    +0.000 C 
ENDBRANCH   1   6
TORSDOF 1
ENDMDL
MODEL 3
REMARK VINA RESULT:      -3.4      7.881      8.999
REMARK  Name = Norflurane
REMARK  1 active torsions:
REMARK  status: ('A' for Active; 'I' for Inactive)
REMARK    1  A    between atoms: C_2  and  C_3
REMARK                            x       y       z     vdW  Elec       q    Type
REMARK                         _______ _______ _______ _____ _____    ______ ____
ROOT
ATOM      1  C   UNL     1      -5.217   4.328 121.025  0.00  0.00    +0.000 C 
ATOM      2  F   UNL     1      -4.236   5.014 121.650  0.00  0.00    +0.000 F 
ATOM      3  F   UNL     1      -6.262   4.219 121.874  0.00  0.00    +0.000 F 
ATOM      4  F   UNL     1      -4.751   3.075 120.799  0.00  0.00    +0.000 F 
ENDROOT
BRANCH   1   6
ATOM      5  F   UNL     1      -5.183   6.271 119.667  0.00  0.00    +0.000 F 
ATOM      6  C   UNL     1      -5.618   4.982 119.721  0.00  0.00    +0.000 C 
ENDBRANCH   1   6
TORSDOF 1
ENDMDL
MODEL 4
REMARK VINA RESULT:      -3.4     14.997     15.813
REMARK  Name = Norflurane
REMARK  1 active torsions:
REMARK  status: ('A' for Active; 'I' for Inactive)
REMARK    1  A    between atoms: C_2  and  C_3
REMARK                            x       y       z     vdW  Elec       q    Type
REMARK                         _______ _______ _______ _____ _____    ______ ____
ROOT
ATOM      1  C   UNL     1     -13.029   8.786 128.529  0.00  0.00    +0.000 C 
ATOM      2  F   UNL     1     -13.850   7.840 128.025  0.00  0.00    +0.000 F 
ATOM      3  F   UNL     1     -13.625   9.988 128.369  0.00  0.00    +0.000 F 
ATOM      4  F   UNL     1     -11.906   8.789 127.772  0.00  0.00    +0.000 F 
ENDROOT
BRANCH   1   6
ATOM      5  F   UNL     1     -13.080   9.551 130.774  0.00  0.00    +0.000 F 
ATOM      6  C   UNL     1     -12.685   8.518 129.978  0.00  0.00    +0.000 C 
ENDBRANCH   1   6
TORSDOF 1
ENDMDL
MODEL 5
REMARK VINA RESULT:      -3.3     15.116     15.785
REMARK  Name = Norflurane
REMARK  1 active torsions:
REMARK  status: ('A' for Active; 'I' for Inactive)
REMARK    1  A    between atoms: C_2  and  C_3
REMARK                            x       y       z     vdW  Elec       q    Type
REMARK                         _______ _______ _______ _____ _____    ______ ____
ROOT
ATOM      1  C   UNL     1     -12.731   8.849 129.461  0.00  0.00    +0.000 C 
ATOM      2  F   UNL     1     -13.001  10.014 130.087  0.00  0.00    +0.000 F 
ATOM      3  F   UNL     1     -11.548   8.979 128.823  0.00  0.00    +0.000 F 
ATOM      4  F   UNL     1     -13.683   8.671 128.513  0.00  0.00    +0.000 F 
ENDROOT
BRANCH   1   6
ATOM      5  F   UNL     1     -13.119   8.070 131.668  0.00  0.00    +0.000 F 
ATOM      6  C   UNL     1     -12.724   7.682 130.424  0.00  0.00    +0.000 C 
ENDBRANCH   1   6
TORSDOF 1
ENDMDL
MODEL 6
REMARK VINA RESULT:      -3.3     14.634     15.474
REMARK  Name = Norflurane
REMARK  1 active torsions:
REMARK  status: ('A' for Active; 'I' for Inactive)
REMARK    1  A    between atoms: C_2  and  C_3
REMARK                            x       y       z     vdW  Elec       q    Type
REMARK                         _______ _______ _______ _____ _____    ______ ____
ROOT
ATOM      1  C   UNL     1     -12.807   8.867 128.989  0.00  0.00    +0.000 C 
ATOM      2  F   UNL     1     -13.592   9.837 128.473  0.00  0.00    +0.000 F 
ATOM      3  F   UNL     1     -12.773   9.022 130.330  0.00  0.00    +0.000 F 
ATOM      4  F   UNL     1     -11.550   9.080 128.527  0.00  0.00    +0.000 F 
ENDROOT
BRANCH   1   6
ATOM      5  F   UNL     1     -13.887   7.508 127.373  0.00  0.00    +0.000 F 
ATOM      6  C   UNL     1     -13.285   7.487 128.595  0.00  0.00    +0.000 C 
ENDBRANCH   1   6
TORSDOF 1
ENDMDL
MODEL 7
REMARK VINA RESULT:      -3.3     14.434     15.330
REMARK  Name = Norflurane
REMARK  1 active torsions:
REMARK  status: ('A' for Active; 'I' for Inactive)
REMARK    1  A    between atoms: C_2  and  C_3
REMARK                            x       y       z     vdW  Elec       q    Type
REMARK                         _______ _______ _______ _____ _____    ______ ____
ROOT
ATOM      1  C   UNL     1     -12.730   8.591 129.291  0.00  0.00    +0.000 C 
ATOM      2  F   UNL     1     -13.542   7.514 129.234  0.00  0.00    +0.000 F 
ATOM      3  F   UNL     1     -12.922   9.201 130.481  0.00  0.00    +0.000 F 
ATOM      4  F   UNL     1     -13.136   9.452 128.327  0.00  0.00    +0.000 F 
ENDROOT
BRANCH   1   6
ATOM      5  F   UNL     1     -10.726   8.938 128.070  0.00  0.00    +0.000 F 
ATOM      6  C   UNL     1     -11.280   8.213 129.082  0.00  0.00    +0.000 C 
ENDBRANCH   1   6
TORSDOF 1
ENDMDL
MODEL 8
REMARK VINA RESULT:      -3.3      3.601      4.542
REMARK  Name = Norflurane
REMARK  1 active torsions:
REMARK  status: ('A' for Active; 'I' for Inactive)
REMARK    1  A    between atoms: C_2  and  C_3
REMARK                            x       y       z     vdW  Elec       q    Type
REMARK                         _______ _______ _______ _____ _____    ______ ____
ROOT
ATOM      1  C   UNL     1      -9.206  -3.298 124.086  0.00  0.00    +0.000 C 
ATOM      2  F   UNL     1     -10.118  -3.852 123.260  0.00  0.00    +0.000 F 
ATOM      3  F   UNL     1      -8.276  -4.234 124.377  0.00  0.00    +0.000 F 
ATOM      4  F   UNL     1      -9.843  -2.991 125.242  0.00  0.00    +0.000 F 
ENDROOT
BRANCH   1   6
ATOM      5  F   UNL     1      -8.265  -2.253 122.176  0.00  0.00    +0.000 F 
ATOM      6  C   UNL     1      -8.583  -2.056 123.485  0.00  0.00    +0.000 C 
ENDBRANCH   1   6
TORSDOF 1
ENDMDL
MODEL 9
REMARK VINA RESULT:      -3.3      3.435      4.554
REMARK  Name = Norflurane
REMARK  1 active torsions:
REMARK  status: ('A' for Active; 'I' for Inactive)
REMARK    1  A    between atoms: C_2  and  C_3
REMARK                            x       y       z     vdW  Elec       q    Type
REMARK                         _______ _______ _______ _____ _____    ______ ____
ROOT
ATOM      1  C   UNL     1      -8.818  -3.436 124.163  0.00  0.00    +0.000 C 
ATOM      2  F   UNL     1      -7.955  -2.858 123.300  0.00  0.00    +0.000 F 
ATOM      3  F   UNL     1      -8.258  -4.578 124.618  0.00  0.00    +0.000 F 
ATOM      4  F   UNL     1      -9.922  -3.782 123.456  0.00  0.00    +0.000 F 
ENDROOT
BRANCH   1   6
ATOM      5  F   UNL     1     -10.135  -3.064 126.100  0.00  0.00    +0.000 F 
ATOM      6  C   UNL     1      -9.190  -2.503 125.295  0.00  0.00    +0.000 C 
ENDBRANCH   1   6
TORSDOF 1
ENDMDL
