MODEL 1
REMARK VINA RESULT:      -9.0      0.000      0.000
REMARK  Name = Norgestimate
REMARK  7 active torsions:
REMARK  status: ('A' for Active; 'I' for Inactive)
REMARK    1  A    between atoms: C_5  and  O_6
REMARK    2  A    between atoms: C_5  and  C_10
REMARK    3  A    between atoms: O_6  and  C_7
REMARK    4  A    between atoms: C_7  and  C_8
REMARK    5  A    between atoms: C_12  and  C_13
REMARK    6  A    between atoms: C_13  and  C_14
REMARK    7  A    between atoms: N_30  and  O_31
REMARK                            x       y       z     vdW  Elec       q    Type
REMARK                         _______ _______ _______ _____ _____    ______ ____
ROOT
ATOM      1  C   UNL     1      -8.158  -2.505 123.662  0.00  0.00    +0.000 C 
ATOM      2  C   UNL     1      -7.622  -2.647 122.361  0.00  0.00    +0.000 C 
ATOM      3  C   UNL     1      -6.776  -1.822 123.282  0.00  0.00    +0.000 C 
ATOM      4  C   UNL     1      -7.197  -2.000 125.331  0.00  0.00    +0.000 C 
ATOM      5  C   UNL     1      -6.454  -2.658 124.421  0.00  0.00    +0.000 C 
ATOM      6  C   UNL     1      -5.369  -1.166 124.716  0.00  0.00    +0.000 C 
ATOM      7  C   UNL     1      -6.352   0.077 124.830  0.00  0.00    +0.000 C 
ATOM      8  C   UNL     1      -7.747   0.179 123.962  0.00  0.00    +0.000 C 
ATOM      9  C   UNL     1      -8.502   1.411 124.185  0.00  0.00    +0.000 C 
ATOM     10  C   UNL     1      -7.515   2.296 124.138  0.00  0.00    +0.000 C 
ATOM     11  C   UNL     1      -6.381   2.813 124.709  0.00  0.00    +0.000 C 
ATOM     12  C   UNL     1      -6.487   3.784 123.526  0.00  0.00    +0.000 C 
ATOM     13  C   UNL     1      -8.061   3.304 122.402  0.00  0.00    +0.000 C 
ATOM     14  C   UNL     1      -8.944   2.060 122.838  0.00  0.00    +0.000 C 
ATOM     15  C   UNL     1     -10.178   0.912 122.659  0.00  0.00    +0.000 C 
ATOM     16  C   UNL     1      -9.777  -0.631 122.773  0.00  0.00    +0.000 C 
ATOM     17  C   UNL     1      -8.808  -0.945 123.907  0.00  0.00    +0.000 C 
ATOM     18  N   UNL     1      -5.370   4.462 123.850  0.00  0.00    +0.000 NA
ENDROOT
BRANCH   4  19
ATOM     19  C   UNL     1      -8.238  -2.962 125.978  0.00  0.00    +0.000 C 
ATOM     20  C   UNL     1      -9.045  -3.632 126.567  0.00  0.00    +0.000 C 
ENDBRANCH   4  19
BRANCH   5  21
ATOM     21  C   UNL     1      -5.825  -3.933 124.321  0.00  0.00    +0.000 C 
ATOM     22  C   UNL     1      -4.545  -4.053 123.612  0.00  0.00    +0.000 C 
ENDBRANCH   5  21
BRANCH  18  23
ATOM     23  O   UNL     1      -4.681   3.761 125.275  0.00  0.00    +0.000 OA
ATOM     24  H   UNL     1      -3.719   3.642 125.372  0.00  0.00    +0.000 HD
ENDBRANCH  18  23
BRANCH   4  25
ATOM     25  O   UNL     1      -6.159  -1.986 126.663  0.00  0.00    +0.000 OA
BRANCH  25  26
ATOM     26  C   UNL     1      -6.168  -1.786 128.061  0.00  0.00    +0.000 C 
ATOM     27  C   UNL     1      -5.237  -2.604 128.868  0.00  0.00    +0.000 C 
ATOM     28  O   UNL     1      -6.805  -0.898 128.622  0.00  0.00    +0.000 OA
ENDBRANCH  25  26
ENDBRANCH   4  25
TORSDOF 5
ENDMDL
MODEL 2
REMARK VINA RESULT:      -8.1      2.987      5.582
REMARK  Name = Norgestimate
REMARK  7 active torsions:
REMARK  status: ('A' for Active; 'I' for Inactive)
REMARK    1  A    between atoms: C_5  and  O_6
REMARK    2  A    between atoms: C_5  and  C_10
REMARK    3  A    between atoms: O_6  and  C_7
REMARK    4  A    between atoms: C_7  and  C_8
REMARK    5  A    between atoms: C_12  and  C_13
REMARK    6  A    between atoms: C_13  and  C_14
REMARK    7  A    between atoms: N_30  and  O_31
REMARK                            x       y       z     vdW  Elec       q    Type
REMARK                         _______ _______ _______ _____ _____    ______ ____
ROOT
ATOM      1  C   UNL     1      -7.713  -2.903 126.294  0.00  0.00    +0.000 C 
ATOM      2  C   UNL     1      -8.953  -3.508 126.603  0.00  0.00    +0.000 C 
ATOM      3  C   UNL     1      -9.021  -2.018 126.463  0.00  0.00    +0.000 C 
ATOM      4  C   UNL     1      -7.395  -1.108 125.495  0.00  0.00    +0.000 C 
ATOM      5  C   UNL     1      -8.549  -1.698 125.130  0.00  0.00    +0.000 C 
ATOM      6  C   UNL     1      -9.196  -0.047 125.719  0.00  0.00    +0.000 C 
ATOM      7  C   UNL     1      -8.359   0.312 127.022  0.00  0.00    +0.000 C 
ATOM      8  C   UNL     1      -7.832  -0.837 128.076  0.00  0.00    +0.000 C 
ATOM      9  C   UNL     1      -7.104  -0.304 129.227  0.00  0.00    +0.000 C 
ATOM     10  C   UNL     1      -7.893   0.712 129.547  0.00  0.00    +0.000 C 
ATOM     11  C   UNL     1      -8.406   1.942 129.223  0.00  0.00    +0.000 C 
ATOM     12  C   UNL     1      -9.072   1.788 130.596  0.00  0.00    +0.000 C 
ATOM     13  C   UNL     1      -8.571   0.031 131.392  0.00  0.00    +0.000 C 
ATOM     14  C   UNL     1      -7.616  -0.926 130.562  0.00  0.00    +0.000 C 
ATOM     15  C   UNL     1      -6.779  -2.365 130.243  0.00  0.00    +0.000 C 
ATOM     16  C   UNL     1      -7.022  -3.065 128.827  0.00  0.00    +0.000 C 
ATOM     17  C   UNL     1      -7.052  -2.100 127.647  0.00  0.00    +0.000 C 
ATOM     18  N   UNL     1      -9.728   2.961 130.524  0.00  0.00    +0.000 NA
ENDROOT
BRANCH   4  19
ATOM     19  C   UNL     1      -6.183  -1.838 124.844  0.00  0.00    +0.000 C 
ATOM     20  C   UNL     1      -5.260  -2.333 124.252  0.00  0.00    +0.000 C 
ENDBRANCH   4  19
BRANCH   5  21
ATOM     21  C   UNL     1      -9.102  -2.246 123.937  0.00  0.00    +0.000 C 
ATOM     22  C   UNL     1      -9.023  -1.481 122.687  0.00  0.00    +0.000 C 
ENDBRANCH   5  21
BRANCH  18  23
ATOM     23  O   UNL     1      -9.357   3.719 129.013  0.00  0.00    +0.000 OA
ATOM     24  H   UNL     1      -8.884   4.569 128.970  0.00  0.00    +0.000 HD
ENDBRANCH  18  23
BRANCH   4  25
ATOM     25  O   UNL     1      -7.351   0.217 124.447  0.00  0.00    +0.000 OA
BRANCH  25  26
ATOM     26  C   UNL     1      -6.671   1.437 124.248  0.00  0.00    +0.000 C 
ATOM     27  C   UNL     1      -6.970   2.186 123.008  0.00  0.00    +0.000 C 
ATOM     28  O   UNL     1      -5.950   1.966 125.091  0.00  0.00    +0.000 OA
ENDBRANCH  25  26
ENDBRANCH   4  25
TORSDOF 5
ENDMDL
MODEL 3
REMARK VINA RESULT:      -7.9      1.818      2.595
REMARK  Name = Norgestimate
REMARK  7 active torsions:
REMARK  status: ('A' for Active; 'I' for Inactive)
REMARK    1  A    between atoms: C_5  and  O_6
REMARK    2  A    between atoms: C_5  and  C_10
REMARK    3  A    between atoms: O_6  and  C_7
REMARK    4  A    between atoms: C_7  and  C_8
REMARK    5  A    between atoms: C_12  and  C_13
REMARK    6  A    between atoms: C_13  and  C_14
REMARK    7  A    between atoms: N_30  and  O_31
REMARK                            x       y       z     vdW  Elec       q    Type
REMARK                         _______ _______ _______ _____ _____    ______ ____
ROOT
ATOM      1  C   UNL     1      -7.015  -2.372 125.713  0.00  0.00    +0.000 C 
ATOM      2  C   UNL     1      -5.907  -2.303 124.838  0.00  0.00    +0.000 C 
ATOM      3  C   UNL     1      -5.960  -1.192 125.841  0.00  0.00    +0.000 C 
ATOM      4  C   UNL     1      -7.226  -1.497 127.488  0.00  0.00    +0.000 C 
ATOM      5  C   UNL     1      -5.960  -1.809 127.153  0.00  0.00    +0.000 C 
ATOM      6  C   UNL     1      -5.752  -0.001 127.574  0.00  0.00    +0.000 C 
ATOM      7  C   UNL     1      -7.031   0.737 126.986  0.00  0.00    +0.000 C 
ATOM      8  C   UNL     1      -7.767   0.251 125.597  0.00  0.00    +0.000 C 
ATOM      9  C   UNL     1      -8.911   1.074 125.206  0.00  0.00    +0.000 C 
ATOM     10  C   UNL     1      -8.405   2.282 125.412  0.00  0.00    +0.000 C 
ATOM     11  C   UNL     1      -7.950   3.224 126.300  0.00  0.00    +0.000 C 
ATOM     12  C   UNL     1      -7.803   4.051 125.016  0.00  0.00    +0.000 C 
ATOM     13  C   UNL     1      -8.356   2.957 123.445  0.00  0.00    +0.000 C 
ATOM     14  C   UNL     1      -8.842   1.467 123.699  0.00  0.00    +0.000 C 
ATOM     15  C   UNL     1      -9.345  -0.085 123.243  0.00  0.00    +0.000 C 
ATOM     16  C   UNL     1      -8.539  -1.331 123.839  0.00  0.00    +0.000 C 
ATOM     17  C   UNL     1      -8.199  -1.207 125.319  0.00  0.00    +0.000 C 
ATOM     18  N   UNL     1      -7.298   5.128 125.645  0.00  0.00    +0.000 NA
ENDROOT
BRANCH   4  19
ATOM     19  C   UNL     1      -8.039  -2.788 127.801  0.00  0.00    +0.000 C 
ATOM     20  C   UNL     1      -8.724  -3.725 128.120  0.00  0.00    +0.000 C 
ENDBRANCH   4  19
BRANCH   5  21
ATOM     21  C   UNL     1      -4.962  -2.720 127.605  0.00  0.00    +0.000 C 
ATOM     22  C   UNL     1      -4.626  -2.773 129.033  0.00  0.00    +0.000 C 
ENDBRANCH   5  21
BRANCH  18  23
ATOM     23  O   UNL     1      -7.190   4.789 127.339  0.00  0.00    +0.000 OA
ATOM     24  H   UNL     1      -7.293   5.489 128.008  0.00  0.00    +0.000 HD
ENDBRANCH  18  23
BRANCH   4  25
ATOM     25  O   UNL     1      -7.041  -1.042 129.105  0.00  0.00    +0.000 OA
BRANCH  25  26
ATOM     26  C   UNL     1      -7.798  -0.802 130.272  0.00  0.00    +0.000 C 
ATOM     27  C   UNL     1      -7.670  -1.778 131.376  0.00  0.00    +0.000 C 
ATOM     28  O   UNL     1      -8.450   0.221 130.468  0.00  0.00    +0.000 OA
ENDBRANCH  25  26
ENDBRANCH   4  25
TORSDOF 5
ENDMDL
MODEL 4
REMARK VINA RESULT:      -7.9      3.099      5.924
REMARK  Name = Norgestimate
REMARK  7 active torsions:
REMARK  status: ('A' for Active; 'I' for Inactive)
REMARK    1  A    between atoms: C_5  and  O_6
REMARK    2  A    between atoms: C_5  and  C_10
REMARK    3  A    between atoms: O_6  and  C_7
REMARK    4  A    between atoms: C_7  and  C_8
REMARK    5  A    between atoms: C_12  and  C_13
REMARK    6  A    between atoms: C_13  and  C_14
REMARK    7  A    between atoms: N_30  and  O_31
REMARK                            x       y       z     vdW  Elec       q    Type
REMARK                         _______ _______ _______ _____ _____    ______ ____
ROOT
ATOM      1  C   UNL     1      -7.110  -1.738 130.283  0.00  0.00    +0.000 C 
ATOM      2  C   UNL     1      -5.939  -2.530 130.239  0.00  0.00    +0.000 C 
ATOM      3  C   UNL     1      -5.988  -1.459 129.194  0.00  0.00    +0.000 C 
ATOM      4  C   UNL     1      -7.389   0.074 129.510  0.00  0.00    +0.000 C 
ATOM      5  C   UNL     1      -6.125  -0.195 129.892  0.00  0.00    +0.000 C 
ATOM      6  C   UNL     1      -5.826   0.362 128.134  0.00  0.00    +0.000 C 
ATOM      7  C   UNL     1      -7.006  -0.259 127.269  0.00  0.00    +0.000 C 
ATOM      8  C   UNL     1      -7.671  -1.726 127.610  0.00  0.00    +0.000 C 
ATOM      9  C   UNL     1      -8.725  -2.135 126.683  0.00  0.00    +0.000 C 
ATOM     10  C   UNL     1      -8.154  -1.813 125.531  0.00  0.00    +0.000 C 
ATOM     11  C   UNL     1      -7.702  -0.834 124.682  0.00  0.00    +0.000 C 
ATOM     12  C   UNL     1      -7.406  -2.045 123.789  0.00  0.00    +0.000 C 
ATOM     13  C   UNL     1      -7.916  -3.722 124.738  0.00  0.00    +0.000 C 
ATOM     14  C   UNL     1      -8.520  -3.603 126.201  0.00  0.00    +0.000 C 
ATOM     15  C   UNL     1      -9.093  -4.198 127.680  0.00  0.00    +0.000 C 
ATOM     16  C   UNL     1      -8.419  -3.636 129.016  0.00  0.00    +0.000 C 
ATOM     17  C   UNL     1      -8.180  -2.131 129.013  0.00  0.00    +0.000 C 
ATOM     18  N   UNL     1      -6.876  -1.310 122.793  0.00  0.00    +0.000 NA
ENDROOT
BRANCH   4  19
ATOM     19  C   UNL     1      -8.308   0.241 130.756  0.00  0.00    +0.000 C 
ATOM     20  C   UNL     1      -9.079   0.445 131.657  0.00  0.00    +0.000 C 
ENDBRANCH   4  19
BRANCH   5  21
ATOM     21  C   UNL     1      -5.227   0.260 130.899  0.00  0.00    +0.000 C 
ATOM     22  C   UNL     1      -4.203   1.254 130.558  0.00  0.00    +0.000 C 
ENDBRANCH   5  21
BRANCH  18  23
ATOM     23  O   UNL     1      -6.914   0.360 123.247  0.00  0.00    +0.000 OA
ATOM     24  H   UNL     1      -7.450   0.673 123.997  0.00  0.00    +0.000 HD
ENDBRANCH  18  23
BRANCH   4  25
ATOM     25  O   UNL     1      -7.291   1.727 129.174  0.00  0.00    +0.000 OA
BRANCH  25  26
ATOM     26  C   UNL     1      -8.105   2.828 128.834  0.00  0.00    +0.000 C 
ATOM     27  C   UNL     1      -8.250   3.900 129.843  0.00  0.00    +0.000 C 
ATOM     28  O   UNL     1      -8.592   3.004 127.720  0.00  0.00    +0.000 OA
ENDBRANCH  25  26
ENDBRANCH   4  25
TORSDOF 5
ENDMDL
MODEL 5
REMARK VINA RESULT:      -7.9      7.139      9.514
REMARK  Name = Norgestimate
REMARK  7 active torsions:
REMARK  status: ('A' for Active; 'I' for Inactive)
REMARK    1  A    between atoms: C_5  and  O_6
REMARK    2  A    between atoms: C_5  and  C_10
REMARK    3  A    between atoms: O_6  and  C_7
REMARK    4  A    between atoms: C_7  and  C_8
REMARK    5  A    between atoms: C_12  and  C_13
REMARK    6  A    between atoms: C_13  and  C_14
REMARK    7  A    between atoms: N_30  and  O_31
REMARK                            x       y       z     vdW  Elec       q    Type
REMARK                         _______ _______ _______ _____ _____    ______ ____
ROOT
ATOM      1  C   UNL     1      -5.184   3.141 131.970  0.00  0.00    +0.000 C 
ATOM      2  C   UNL     1      -5.980   1.988 131.777  0.00  0.00    +0.000 C 
ATOM      3  C   UNL     1      -6.240   3.081 130.786  0.00  0.00    +0.000 C 
ATOM      4  C   UNL     1      -4.771   4.576 130.655  0.00  0.00    +0.000 C 
ATOM      5  C   UNL     1      -4.981   3.356 130.122  0.00  0.00    +0.000 C 
ATOM      6  C   UNL     1      -6.183   4.368 129.111  0.00  0.00    +0.000 C 
ATOM      7  C   UNL     1      -6.849   5.398 130.122  0.00  0.00    +0.000 C 
ATOM      8  C   UNL     1      -7.146   5.020 131.696  0.00  0.00    +0.000 C 
ATOM      9  C   UNL     1      -7.789   6.090 132.457  0.00  0.00    +0.000 C 
ATOM     10  C   UNL     1      -8.711   6.471 131.583  0.00  0.00    +0.000 C 
ATOM     11  C   UNL     1      -9.010   7.061 130.381  0.00  0.00    +0.000 C 
ATOM     12  C   UNL     1     -10.446   6.806 130.858  0.00  0.00    +0.000 C 
ATOM     13  C   UNL     1     -10.414   5.889 132.628  0.00  0.00    +0.000 C 
ATOM     14  C   UNL     1      -9.004   5.556 133.276  0.00  0.00    +0.000 C 
ATOM     15  C   UNL     1      -7.963   4.874 134.426  0.00  0.00    +0.000 C 
ATOM     16  C   UNL     1      -6.801   3.913 133.897  0.00  0.00    +0.000 C 
ATOM     17  C   UNL     1      -6.087   4.420 132.649  0.00  0.00    +0.000 C 
ATOM     18  N   UNL     1     -11.014   7.313 129.748  0.00  0.00    +0.000 NA
ENDROOT
BRANCH   4  19
ATOM     19  C   UNL     1      -3.415   4.607 131.421  0.00  0.00    +0.000 C 
ATOM     20  C   UNL     1      -2.349   4.526 131.972  0.00  0.00    +0.000 C 
ENDBRANCH   4  19
BRANCH   5  21
ATOM     21  C   UNL     1      -4.204   2.371 129.448  0.00  0.00    +0.000 C 
ATOM     22  C   UNL     1      -3.417   2.754 128.269  0.00  0.00    +0.000 C 
ENDBRANCH   5  21
BRANCH  18  23
ATOM     23  O   UNL     1      -9.766   7.836 128.668  0.00  0.00    +0.000 OA
ATOM     24  H   UNL     1      -8.835   7.588 128.806  0.00  0.00    +0.000 HD
ENDBRANCH  18  23
BRANCH   4  25
ATOM     25  O   UNL     1      -4.204   5.432 129.313  0.00  0.00    +0.000 OA
BRANCH  25  26
ATOM     26  C   UNL     1      -3.588   6.656 128.972  0.00  0.00    +0.000 C 
ATOM     27  C   UNL     1      -2.228   6.592 128.393  0.00  0.00    +0.000 C 
ATOM     28  O   UNL     1      -4.157   7.744 129.011  0.00  0.00    +0.000 OA
ENDBRANCH  25  26
ENDBRANCH   4  25
TORSDOF 5
ENDMDL
MODEL 6
REMARK VINA RESULT:      -7.8      3.699      6.474
REMARK  Name = Norgestimate
REMARK  7 active torsions:
REMARK  status: ('A' for Active; 'I' for Inactive)
REMARK    1  A    between atoms: C_5  and  O_6
REMARK    2  A    between atoms: C_5  and  C_10
REMARK    3  A    between atoms: O_6  and  C_7
REMARK    4  A    between atoms: C_7  and  C_8
REMARK    5  A    between atoms: C_12  and  C_13
REMARK    6  A    between atoms: C_13  and  C_14
REMARK    7  A    between atoms: N_30  and  O_31
REMARK                            x       y       z     vdW  Elec       q    Type
REMARK                         _______ _______ _______ _____ _____    ______ ____
ROOT
ATOM      1  C   UNL     1      -7.351  -0.041 131.335  0.00  0.00    +0.000 C 
ATOM      2  C   UNL     1      -8.712  -0.047 131.719  0.00  0.00    +0.000 C 
ATOM      3  C   UNL     1      -8.326  -1.187 130.828  0.00  0.00    +0.000 C 
ATOM      4  C   UNL     1      -6.268  -1.564 130.652  0.00  0.00    +0.000 C 
ATOM      5  C   UNL     1      -7.259  -1.904 131.499  0.00  0.00    +0.000 C 
ATOM      6  C   UNL     1      -7.648  -3.038 130.067  0.00  0.00    +0.000 C 
ATOM      7  C   UNL     1      -7.397  -2.185 128.750  0.00  0.00    +0.000 C 
ATOM      8  C   UNL     1      -7.694  -0.568 128.678  0.00  0.00    +0.000 C 
ATOM      9  C   UNL     1      -7.426   0.032 127.371  0.00  0.00    +0.000 C 
ATOM     10  C   UNL     1      -7.985  -0.876 126.583  0.00  0.00    +0.000 C 
ATOM     11  C   UNL     1      -7.971  -2.148 126.071  0.00  0.00    +0.000 C 
ATOM     12  C   UNL     1      -9.180  -1.618 125.291  0.00  0.00    +0.000 C 
ATOM     13  C   UNL     1      -9.545   0.269 125.819  0.00  0.00    +0.000 C 
ATOM     14  C   UNL     1      -8.606   0.940 126.909  0.00  0.00    +0.000 C 
ATOM     15  C   UNL     1      -8.116   2.165 127.973  0.00  0.00    +0.000 C 
ATOM     16  C   UNL     1      -7.893   1.770 129.505  0.00  0.00    +0.000 C 
ATOM     17  C   UNL     1      -7.159   0.450 129.712  0.00  0.00    +0.000 C 
ATOM     18  N   UNL     1      -9.414  -2.783 124.659  0.00  0.00    +0.000 NA
ENDROOT
BRANCH   4  19
ATOM     19  C   UNL     1      -5.127  -0.831 131.418  0.00  0.00    +0.000 C 
ATOM     20  C   UNL     1      -4.214  -0.367 132.050  0.00  0.00    +0.000 C 
ENDBRANCH   4  19
BRANCH   5  21
ATOM     21  C   UNL     1      -7.361  -2.432 132.818  0.00  0.00    +0.000 C 
ATOM     22  C   UNL     1      -6.587  -3.626 133.179  0.00  0.00    +0.000 C 
ENDBRANCH   5  21
BRANCH  18  23
ATOM     23  O   UNL     1      -8.244  -3.948 125.180  0.00  0.00    +0.000 OA
ATOM     24  H   UNL     1      -8.485  -4.877 125.341  0.00  0.00    +0.000 HD
ENDBRANCH  18  23
BRANCH   4  25
ATOM     25  O   UNL     1      -5.436  -3.028 130.510  0.00  0.00    +0.000 OA
BRANCH  25  26
ATOM     26  C   UNL     1      -4.126  -3.538 130.380  0.00  0.00    +0.000 C 
ATOM     27  C   UNL     1      -3.567  -3.630 129.014  0.00  0.00    +0.000 C 
ATOM     28  O   UNL     1      -3.390  -3.788 131.332  0.00  0.00    +0.000 OA
ENDBRANCH  25  26
ENDBRANCH   4  25
TORSDOF 5
ENDMDL
MODEL 7
REMARK VINA RESULT:      -7.6      6.703      9.415
REMARK  Name = Norgestimate
REMARK  7 active torsions:
REMARK  status: ('A' for Active; 'I' for Inactive)
REMARK    1  A    between atoms: C_5  and  O_6
REMARK    2  A    between atoms: C_5  and  C_10
REMARK    3  A    between atoms: O_6  and  C_7
REMARK    4  A    between atoms: C_7  and  C_8
REMARK    5  A    between atoms: C_12  and  C_13
REMARK    6  A    between atoms: C_13  and  C_14
REMARK    7  A    between atoms: N_30  and  O_31
REMARK                            x       y       z     vdW  Elec       q    Type
REMARK                         _______ _______ _______ _____ _____    ______ ____
ROOT
ATOM      1  C   UNL     1      -4.542   6.379 131.109  0.00  0.00    +0.000 C 
ATOM      2  C   UNL     1      -4.494   6.387 132.522  0.00  0.00    +0.000 C 
ATOM      3  C   UNL     1      -4.549   5.015 131.922  0.00  0.00    +0.000 C 
ATOM      4  C   UNL     1      -4.085   4.883 129.878  0.00  0.00    +0.000 C 
ATOM      5  C   UNL     1      -3.404   4.894 131.041  0.00  0.00    +0.000 C 
ATOM      6  C   UNL     1      -4.064   3.146 131.063  0.00  0.00    +0.000 C 
ATOM      7  C   UNL     1      -5.551   3.231 130.511  0.00  0.00    +0.000 C 
ATOM      8  C   UNL     1      -6.525   4.527 130.797  0.00  0.00    +0.000 C 
ATOM      9  C   UNL     1      -7.867   4.405 130.228  0.00  0.00    +0.000 C 
ATOM     10  C   UNL     1      -8.149   3.156 130.573  0.00  0.00    +0.000 C 
ATOM     11  C   UNL     1      -7.896   1.816 130.424  0.00  0.00    +0.000 C 
ATOM     12  C   UNL     1      -9.060   1.704 131.415  0.00  0.00    +0.000 C 
ATOM     13  C   UNL     1      -9.695   3.527 131.914  0.00  0.00    +0.000 C 
ATOM     14  C   UNL     1      -8.963   4.780 131.271  0.00  0.00    +0.000 C 
ATOM     15  C   UNL     1      -8.635   6.430 131.063  0.00  0.00    +0.000 C 
ATOM     16  C   UNL     1      -7.117   6.907 131.211  0.00  0.00    +0.000 C 
ATOM     17  C   UNL     1      -6.103   5.991 130.536  0.00  0.00    +0.000 C 
ATOM     18  N   UNL     1      -9.013   0.361 131.479  0.00  0.00    +0.000 NA
ENDROOT
BRANCH   4  19
ATOM     19  C   UNL     1      -3.613   6.051 128.962  0.00  0.00    +0.000 C 
ATOM     20  C   UNL     1      -3.142   6.915 128.271  0.00  0.00    +0.000 C 
ENDBRANCH   4  19
BRANCH   5  21
ATOM     21  C   UNL     1      -2.057   5.106 131.452  0.00  0.00    +0.000 C 
ATOM     22  C   UNL     1      -1.585   4.515 132.710  0.00  0.00    +0.000 C 
ENDBRANCH   5  21
BRANCH  18  23
ATOM     23  O   UNL     1      -7.734  -0.204 130.458  0.00  0.00    +0.000 OA
ATOM     24  H   UNL     1      -7.118  -0.899 130.748  0.00  0.00    +0.000 HD
ENDBRANCH  18  23
BRANCH   4  25
ATOM     25  O   UNL     1      -3.263   3.680 129.023  0.00  0.00    +0.000 OA
BRANCH  25  26
ATOM     26  C   UNL     1      -3.201   3.093 127.741  0.00  0.00    +0.000 C 
ATOM     27  C   UNL     1      -1.920   3.197 127.009  0.00  0.00    +0.000 C 
ATOM     28  O   UNL     1      -4.096   2.402 127.258  0.00  0.00    +0.000 OA
ENDBRANCH  25  26
ENDBRANCH   4  25
TORSDOF 5
ENDMDL
MODEL 8
REMARK VINA RESULT:      -7.6      6.555      8.846
REMARK  Name = Norgestimate
REMARK  7 active torsions:
REMARK  status: ('A' for Active; 'I' for Inactive)
REMARK    1  A    between atoms: C_5  and  O_6
REMARK    2  A    between atoms: C_5  and  C_10
REMARK    3  A    between atoms: O_6  and  C_7
REMARK    4  A    between atoms: C_7  and  C_8
REMARK    5  A    between atoms: C_12  and  C_13
REMARK    6  A    between atoms: C_13  and  C_14
REMARK    7  A    between atoms: N_30  and  O_31
REMARK                            x       y       z     vdW  Elec       q    Type
REMARK                         _______ _______ _______ _____ _____    ______ ____
ROOT
ATOM      1  C   UNL     1      -7.311   5.708 131.849  0.00  0.00    +0.000 C 
ATOM      2  C   UNL     1      -7.678   6.805 131.036  0.00  0.00    +0.000 C 
ATOM      3  C   UNL     1      -7.356   5.560 130.268  0.00  0.00    +0.000 C 
ATOM      4  C   UNL     1      -7.332   3.775 131.375  0.00  0.00    +0.000 C 
ATOM      5  C   UNL     1      -8.255   4.527 130.745  0.00  0.00    +0.000 C 
ATOM      6  C   UNL     1      -7.452   3.695 129.278  0.00  0.00    +0.000 C 
ATOM      7  C   UNL     1      -5.893   3.669 129.586  0.00  0.00    +0.000 C 
ATOM      8  C   UNL     1      -5.140   4.873 130.418  0.00  0.00    +0.000 C 
ATOM      9  C   UNL     1      -3.699   4.680 130.577  0.00  0.00    +0.000 C 
ATOM     10  C   UNL     1      -3.383   4.297 129.347  0.00  0.00    +0.000 C 
ATOM     11  C   UNL     1      -3.465   3.348 128.360  0.00  0.00    +0.000 C 
ATOM     12  C   UNL     1      -2.549   4.338 127.629  0.00  0.00    +0.000 C 
ATOM     13  C   UNL     1      -2.223   5.930 128.783  0.00  0.00    +0.000 C 
ATOM     14  C   UNL     1      -2.908   5.974 130.214  0.00  0.00    +0.000 C 
ATOM     15  C   UNL     1      -3.338   6.683 131.692  0.00  0.00    +0.000 C 
ATOM     16  C   UNL     1      -4.889   6.710 132.077  0.00  0.00    +0.000 C 
ATOM     17  C   UNL     1      -5.631   5.412 131.781  0.00  0.00    +0.000 C 
ATOM     18  N   UNL     1      -2.480   3.602 126.504  0.00  0.00    +0.000 NA
ENDROOT
BRANCH   4  19
ATOM     19  C   UNL     1      -7.695   3.619 132.881  0.00  0.00    +0.000 C 
ATOM     20  C   UNL     1      -8.071   3.446 134.011  0.00  0.00    +0.000 C 
ENDBRANCH   4  19
BRANCH   5  21
ATOM     21  C   UNL     1      -9.675   4.647 130.751  0.00  0.00    +0.000 C 
ATOM     22  C   UNL     1     -10.501   3.452 130.541  0.00  0.00    +0.000 C 
ENDBRANCH   5  21
BRANCH  18  23
ATOM     23  O   UNL     1      -3.434   2.172 126.710  0.00  0.00    +0.000 OA
ATOM     24  H   UNL     1      -3.056   1.356 127.084  0.00  0.00    +0.000 HD
ENDBRANCH  18  23
BRANCH   4  25
ATOM     25  O   UNL     1      -7.818   2.216 130.942  0.00  0.00    +0.000 OA
BRANCH  25  26
ATOM     26  C   UNL     1      -7.660   0.869 131.330  0.00  0.00    +0.000 C 
ATOM     27  C   UNL     1      -8.878   0.130 131.727  0.00  0.00    +0.000 C 
ATOM     28  O   UNL     1      -6.603   0.249 131.239  0.00  0.00    +0.000 OA
ENDBRANCH  25  26
ENDBRANCH   4  25
TORSDOF 5
ENDMDL
MODEL 9
REMARK VINA RESULT:      -7.5      6.403      8.380
REMARK  Name = Norgestimate
REMARK  7 active torsions:
REMARK  status: ('A' for Active; 'I' for Inactive)
REMARK    1  A    between atoms: C_5  and  O_6
REMARK    2  A    between atoms: C_5  and  C_10
REMARK    3  A    between atoms: O_6  and  C_7
REMARK    4  A    between atoms: C_7  and  C_8
REMARK    5  A    between atoms: C_12  and  C_13
REMARK    6  A    between atoms: C_13  and  C_14
REMARK    7  A    between atoms: N_30  and  O_31
REMARK                            x       y       z     vdW  Elec       q    Type
REMARK                         _______ _______ _______ _____ _____    ______ ____
ROOT
ATOM      1  C   UNL     1      -7.731   2.968 131.761  0.00  0.00    +0.000 C 
ATOM      2  C   UNL     1      -8.781   2.030 131.894  0.00  0.00    +0.000 C 
ATOM      3  C   UNL     1      -8.688   2.651 130.534  0.00  0.00    +0.000 C 
ATOM      4  C   UNL     1      -6.880   3.621 130.085  0.00  0.00    +0.000 C 
ATOM      5  C   UNL     1      -7.359   2.363 130.029  0.00  0.00    +0.000 C 
ATOM      6  C   UNL     1      -8.193   3.100 128.528  0.00  0.00    +0.000 C 
ATOM      7  C   UNL     1      -8.639   4.566 128.949  0.00  0.00    +0.000 C 
ATOM      8  C   UNL     1      -9.126   4.934 130.478  0.00  0.00    +0.000 C 
ATOM      9  C   UNL     1      -9.522   6.330 130.660  0.00  0.00    +0.000 C 
ATOM     10  C   UNL     1     -10.256   6.504 129.570  0.00  0.00    +0.000 C 
ATOM     11  C   UNL     1     -10.316   6.600 128.202  0.00  0.00    +0.000 C 
ATOM     12  C   UNL     1     -11.797   6.866 128.500  0.00  0.00    +0.000 C 
ATOM     13  C   UNL     1     -12.116   6.767 130.465  0.00  0.00    +0.000 C 
ATOM     14  C   UNL     1     -10.884   6.442 131.411  0.00  0.00    +0.000 C 
ATOM     15  C   UNL     1     -10.129   6.089 132.887  0.00  0.00    +0.000 C 
ATOM     16  C   UNL     1      -9.220   4.777 132.959  0.00  0.00    +0.000 C 
ATOM     17  C   UNL     1      -8.320   4.570 131.746  0.00  0.00    +0.000 C 
ATOM     18  N   UNL     1     -12.142   6.983 127.204  0.00  0.00    +0.000 NA
ENDROOT
BRANCH   4  19
ATOM     19  C   UNL     1      -5.615   3.679 130.991  0.00  0.00    +0.000 C 
ATOM     20  C   UNL     1      -4.601   3.810 131.626  0.00  0.00    +0.000 C 
ENDBRANCH   4  19
BRANCH   5  21
ATOM     21  C   UNL     1      -6.817   1.050 129.916  0.00  0.00    +0.000 C 
ATOM     22  C   UNL     1      -7.626  -0.015 129.312  0.00  0.00    +0.000 C 
ENDBRANCH   5  21
BRANCH  18  23
ATOM     23  O   UNL     1     -10.734   6.747 126.225  0.00  0.00    +0.000 OA
ATOM     24  H   UNL     1      -9.985   6.204 126.530  0.00  0.00    +0.000 HD
ENDBRANCH  18  23
BRANCH   4  25
ATOM     25  O   UNL     1      -6.026   3.717 128.630  0.00  0.00    +0.000 OA
BRANCH  25  26
ATOM     26  C   UNL     1      -5.085   4.529 127.961  0.00  0.00    +0.000 C 
ATOM     27  C   UNL     1      -4.413   3.952 126.776  0.00  0.00    +0.000 C 
ATOM     28  O   UNL     1      -4.887   5.712 128.228  0.00  0.00    +0.000 OA
ENDBRANCH  25  26
ENDBRANCH   4  25
TORSDOF 5
ENDMDL
