MODEL 1
REMARK VINA RESULT:      -8.6      0.000      0.000
REMARK  Name = Norgestrel
REMARK  4 active torsions:
REMARK  status: ('A' for Active; 'I' for Inactive)
REMARK    1  A    between atoms: C_1  and  C_2
REMARK    2  A    between atoms: C_2  and  C_3
REMARK    3  A    between atoms: C_20  and  O_21
REMARK    4  A    between atoms: C_20  and  C_22
REMARK                            x       y       z     vdW  Elec       q    Type
REMARK                         _______ _______ _______ _____ _____    ______ ____
ROOT
ATOM      1  C   UNL     1      -8.135   1.366 124.750  0.00  0.00    +0.000 C 
ATOM      2  C   UNL     1      -9.783   1.983 124.134  0.00  0.00    +0.000 C 
ATOM      3  C   UNL     1      -9.326   1.641 122.841  0.00  0.00    +0.000 C 
ATOM      4  C   UNL     1      -8.204   3.068 122.929  0.00  0.00    +0.000 C 
ATOM      5  C   UNL     1      -7.525   3.276 124.608  0.00  0.00    +0.000 C 
ATOM      6  C   UNL     1      -6.457   4.443 124.891  0.00  0.00    +0.000 C 
ATOM      7  C   UNL     1      -5.257   4.236 123.925  0.00  0.00    +0.000 C 
ATOM      8  C   UNL     1      -5.729   4.090 122.490  0.00  0.00    +0.000 C 
ATOM      9  C   UNL     1      -4.782   4.443 121.606  0.00  0.00    +0.000 C 
ATOM     10  C   UNL     1      -5.300   4.825 120.293  0.00  0.00    +0.000 C 
ATOM     11  O   UNL     1      -5.210   5.977 119.890  0.00  0.00    +0.000 OA
ATOM     12  C   UNL     1      -6.227   3.825 119.718  0.00  0.00    +0.000 C 
ATOM     13  C   UNL     1      -7.496   4.040 120.583  0.00  0.00    +0.000 C 
ATOM     14  C   UNL     1      -7.071   3.437 121.933  0.00  0.00    +0.000 C 
ATOM     15  C   UNL     1      -8.494   2.410 125.627  0.00  0.00    +0.000 C 
ATOM     16  C   UNL     1      -9.306   0.561 125.710  0.00  0.00    +0.000 C 
ATOM     17  C   UNL     1      -8.192  -0.411 126.111  0.00  0.00    +0.000 C 
ATOM     18  C   UNL     1      -7.643   0.879 126.456  0.00  0.00    +0.000 C 
ENDROOT
BRANCH   1  20
ATOM     19  C   UNL     1      -6.688  -0.662 122.955  0.00  0.00    +0.000 C 
ATOM     20  C   UNL     1      -6.902   0.930 123.505  0.00  0.00    +0.000 C 
ENDBRANCH   1  20
BRANCH  18  21
ATOM     21  O   UNL     1      -6.284   0.949 126.755  0.00  0.00    +0.000 OA
ATOM     22  H   UNL     1      -5.945   1.766 126.372  0.00  0.00    +0.000 HD
ENDBRANCH  18  21
BRANCH  18  23
ATOM     23  C   UNL     1      -8.527   1.454 127.716  0.00  0.00    +0.000 C 
ATOM     24  C   UNL     1      -8.739   1.905 128.889  0.00  0.00    +0.000 C 
ENDBRANCH  18  23
TORSDOF 3
ENDMDL
MODEL 2
REMARK VINA RESULT:      -7.7      2.313      3.587
REMARK  Name = Norgestrel
REMARK  4 active torsions:
REMARK  status: ('A' for Active; 'I' for Inactive)
REMARK    1  A    between atoms: C_1  and  C_2
REMARK    2  A    between atoms: C_2  and  C_3
REMARK    3  A    between atoms: C_20  and  O_21
REMARK    4  A    between atoms: C_20  and  C_22
REMARK                            x       y       z     vdW  Elec       q    Type
REMARK                         _______ _______ _______ _____ _____    ______ ____
ROOT
ATOM      1  C   UNL     1      -8.063  -1.589 124.728  0.00  0.00    +0.000 C 
ATOM      2  C   UNL     1      -9.737  -0.964 124.197  0.00  0.00    +0.000 C 
ATOM      3  C   UNL     1      -9.065  -0.350 123.117  0.00  0.00    +0.000 C 
ATOM      4  C   UNL     1      -8.385   0.847 124.305  0.00  0.00    +0.000 C 
ATOM      5  C   UNL     1      -7.977   0.048 125.892  0.00  0.00    +0.000 C 
ATOM      6  C   UNL     1      -7.300   0.914 127.064  0.00  0.00    +0.000 C 
ATOM      7  C   UNL     1      -5.990   1.534 126.503  0.00  0.00    +0.000 C 
ATOM      8  C   UNL     1      -6.243   2.256 125.193  0.00  0.00    +0.000 C 
ATOM      9  C   UNL     1      -5.334   3.216 124.959  0.00  0.00    +0.000 C 
ATOM     10  C   UNL     1      -5.787   4.260 124.040  0.00  0.00    +0.000 C 
ATOM     11  O   UNL     1      -5.966   5.407 124.427  0.00  0.00    +0.000 OA
ATOM     12  C   UNL     1      -6.341   3.725 122.777  0.00  0.00    +0.000 C 
ATOM     13  C   UNL     1      -7.709   3.165 123.247  0.00  0.00    +0.000 C 
ATOM     14  C   UNL     1      -7.290   1.916 124.042  0.00  0.00    +0.000 C 
ATOM     15  C   UNL     1      -8.784  -1.393 125.924  0.00  0.00    +0.000 C 
ATOM     16  C   UNL     1      -9.073  -2.975 124.699  0.00  0.00    +0.000 C 
ATOM     17  C   UNL     1      -7.790  -3.812 124.722  0.00  0.00    +0.000 C 
ATOM     18  C   UNL     1      -7.649  -2.964 125.882  0.00  0.00    +0.000 C 
ENDROOT
BRANCH   1  20
ATOM     19  C   UNL     1      -5.940  -1.801 122.519  0.00  0.00    +0.000 C 
ATOM     20  C   UNL     1      -6.628  -0.965 123.828  0.00  0.00    +0.000 C 
ENDBRANCH   1  20
BRANCH  18  21
ATOM     21  O   UNL     1      -6.402  -2.905 126.498  0.00  0.00    +0.000 OA
ATOM     22  H   UNL     1      -6.120  -3.811 126.667  0.00  0.00    +0.000 HD
ENDBRANCH  18  21
BRANCH  18  23
ATOM     23  C   UNL     1      -8.790  -3.441 126.965  0.00  0.00    +0.000 C 
ATOM     24  C   UNL     1      -9.253  -4.033 127.993  0.00  0.00    +0.000 C 
ENDBRANCH  18  23
TORSDOF 3
ENDMDL
MODEL 3
REMARK VINA RESULT:      -7.7      2.834      4.692
REMARK  Name = Norgestrel
REMARK  4 active torsions:
REMARK  status: ('A' for Active; 'I' for Inactive)
REMARK    1  A    between atoms: C_1  and  C_2
REMARK    2  A    between atoms: C_2  and  C_3
REMARK    3  A    between atoms: C_20  and  O_21
REMARK    4  A    between atoms: C_20  and  C_22
REMARK                            x       y       z     vdW  Elec       q    Type
REMARK                         _______ _______ _______ _____ _____    ______ ____
ROOT
ATOM      1  C   UNL     1      -7.374  -0.940 125.758  0.00  0.00    +0.000 C 
ATOM      2  C   UNL     1      -5.689  -1.207 125.006  0.00  0.00    +0.000 C 
ATOM      3  C   UNL     1      -5.205  -0.331 126.003  0.00  0.00    +0.000 C 
ATOM      4  C   UNL     1      -5.997   1.033 125.100  0.00  0.00    +0.000 C 
ATOM      5  C   UNL     1      -7.597   0.519 124.393  0.00  0.00    +0.000 C 
ATOM      6  C   UNL     1      -8.498   1.594 123.607  0.00  0.00    +0.000 C 
ATOM      7  C   UNL     1      -8.774   2.780 124.572  0.00  0.00    +0.000 C 
ATOM      8  C   UNL     1      -7.486   3.300 125.184  0.00  0.00    +0.000 C 
ATOM      9  C   UNL     1      -7.587   4.584 125.563  0.00  0.00    +0.000 C 
ATOM     10  C   UNL     1      -6.305   5.283 125.660  0.00  0.00    +0.000 C 
ATOM     11  O   UNL     1      -6.022   6.192 124.891  0.00  0.00    +0.000 OA
ATOM     12  C   UNL     1      -5.306   4.558 126.476  0.00  0.00    +0.000 C 
ATOM     13  C   UNL     1      -4.910   3.396 125.527  0.00  0.00    +0.000 C 
ATOM     14  C   UNL     1      -6.162   2.503 125.572  0.00  0.00    +0.000 C 
ATOM     15  C   UNL     1      -7.607  -1.133 124.381  0.00  0.00    +0.000 C 
ATOM     16  C   UNL     1      -7.189  -2.642 125.659  0.00  0.00    +0.000 C 
ATOM     17  C   UNL     1      -8.359  -2.745 126.644  0.00  0.00    +0.000 C 
ATOM     18  C   UNL     1      -8.903  -1.948 125.569  0.00  0.00    +0.000 C 
ENDROOT
BRANCH   1  20
ATOM     19  C   UNL     1      -7.599  -0.082 128.698  0.00  0.00    +0.000 C 
ATOM     20  C   UNL     1      -7.509   0.316 127.049  0.00  0.00    +0.000 C 
ENDBRANCH   1  20
BRANCH  18  21
ATOM     21  O   UNL     1     -10.112  -1.294 125.792  0.00  0.00    +0.000 OA
ATOM     22  H   UNL     1      -9.965  -0.644 126.489  0.00  0.00    +0.000 HD
ENDBRANCH  18  21
BRANCH  18  23
ATOM     23  C   UNL     1      -9.029  -2.933 124.259  0.00  0.00    +0.000 C 
ATOM     24  C   UNL     1      -9.614  -3.550 123.310  0.00  0.00    +0.000 C 
ENDBRANCH  18  23
TORSDOF 3
ENDMDL
MODEL 4
REMARK VINA RESULT:      -7.6      6.974      9.692
REMARK  Name = Norgestrel
REMARK  4 active torsions:
REMARK  status: ('A' for Active; 'I' for Inactive)
REMARK    1  A    between atoms: C_1  and  C_2
REMARK    2  A    between atoms: C_2  and  C_3
REMARK    3  A    between atoms: C_20  and  O_21
REMARK    4  A    between atoms: C_20  and  C_22
REMARK                            x       y       z     vdW  Elec       q    Type
REMARK                         _______ _______ _______ _____ _____    ______ ____
ROOT
ATOM      1  C   UNL     1     -10.014   6.271 130.486  0.00  0.00    +0.000 C 
ATOM      2  C   UNL     1     -11.080   6.352 132.013  0.00  0.00    +0.000 C 
ATOM      3  C   UNL     1      -9.875   6.300 132.748  0.00  0.00    +0.000 C 
ATOM      4  C   UNL     1      -9.733   4.552 132.270  0.00  0.00    +0.000 C 
ATOM      5  C   UNL     1     -10.303   4.283 130.559  0.00  0.00    +0.000 C 
ATOM      6  C   UNL     1     -10.203   2.816 129.912  0.00  0.00    +0.000 C 
ATOM      7  C   UNL     1      -8.718   2.363 129.986  0.00  0.00    +0.000 C 
ATOM      8  C   UNL     1      -8.167   2.518 131.391  0.00  0.00    +0.000 C 
ATOM      9  C   UNL     1      -7.141   1.685 131.628  0.00  0.00    +0.000 C 
ATOM     10  C   UNL     1      -6.914   1.402 133.046  0.00  0.00    +0.000 C 
ATOM     11  O   UNL     1      -7.104   0.283 133.504  0.00  0.00    +0.000 OA
ATOM     12  C   UNL     1      -6.819   2.623 133.876  0.00  0.00    +0.000 C 
ATOM     13  C   UNL     1      -8.298   3.086 133.925  0.00  0.00    +0.000 C 
ATOM     14  C   UNL     1      -8.520   3.610 132.496  0.00  0.00    +0.000 C 
ATOM     15  C   UNL     1     -11.207   5.602 130.143  0.00  0.00    +0.000 C 
ATOM     16  C   UNL     1     -11.051   7.615 130.241  0.00  0.00    +0.000 C 
ATOM     17  C   UNL     1     -10.088   8.055 129.133  0.00  0.00    +0.000 C 
ATOM     18  C   UNL     1     -10.440   6.708 128.748  0.00  0.00    +0.000 C 
ENDROOT
BRANCH   1  20
ATOM     19  C   UNL     1      -7.120   7.238 130.833  0.00  0.00    +0.000 C 
ATOM     20  C   UNL     1      -8.249   5.974 130.729  0.00  0.00    +0.000 C 
ENDBRANCH   1  20
BRANCH  18  21
ATOM     21  O   UNL     1      -9.684   6.098 127.750  0.00  0.00    +0.000 OA
ATOM     22  H   UNL     1      -8.863   5.794 128.154  0.00  0.00    +0.000 HD
ENDBRANCH  18  21
BRANCH  18  23
ATOM     23  C   UNL     1     -12.026   6.731 128.318  0.00  0.00    +0.000 C 
ATOM     24  C   UNL     1     -13.033   6.957 127.572  0.00  0.00    +0.000 C 
ENDBRANCH  18  23
TORSDOF 3
ENDMDL
MODEL 5
REMARK VINA RESULT:      -7.5      3.296      7.469
REMARK  Name = Norgestrel
REMARK  4 active torsions:
REMARK  status: ('A' for Active; 'I' for Inactive)
REMARK    1  A    between atoms: C_1  and  C_2
REMARK    2  A    between atoms: C_2  and  C_3
REMARK    3  A    between atoms: C_20  and  O_21
REMARK    4  A    between atoms: C_20  and  C_22
REMARK                            x       y       z     vdW  Elec       q    Type
REMARK                         _______ _______ _______ _____ _____    ______ ____
ROOT
ATOM      1  C   UNL     1      -7.486  -1.236 124.966  0.00  0.00    +0.000 C 
ATOM      2  C   UNL     1      -5.700  -1.378 124.451  0.00  0.00    +0.000 C 
ATOM      3  C   UNL     1      -5.689  -2.604 125.154  0.00  0.00    +0.000 C 
ATOM      4  C   UNL     1      -5.739  -1.646 126.698  0.00  0.00    +0.000 C 
ATOM      5  C   UNL     1      -6.804  -0.175 126.531  0.00  0.00    +0.000 C 
ATOM      6  C   UNL     1      -7.040   0.779 127.802  0.00  0.00    +0.000 C 
ATOM      7  C   UNL     1      -7.624  -0.092 128.950  0.00  0.00    +0.000 C 
ATOM      8  C   UNL     1      -6.775  -1.328 129.185  0.00  0.00    +0.000 C 
ATOM      9  C   UNL     1      -6.899  -1.797 130.437  0.00  0.00    +0.000 C 
ATOM     10  C   UNL     1      -5.772  -2.616 130.884  0.00  0.00    +0.000 C 
ATOM     11  O   UNL     1      -5.030  -2.232 131.778  0.00  0.00    +0.000 OA
ATOM     12  C   UNL     1      -5.424  -3.697 129.936  0.00  0.00    +0.000 C 
ATOM     13  C   UNL     1      -4.744  -2.903 128.790  0.00  0.00    +0.000 C 
ATOM     14  C   UNL     1      -5.942  -2.191 128.137  0.00  0.00    +0.000 C 
ATOM     15  C   UNL     1      -7.006   0.089 124.913  0.00  0.00    +0.000 C 
ATOM     16  C   UNL     1      -7.484  -0.985 123.269  0.00  0.00    +0.000 C 
ATOM     17  C   UNL     1      -8.994  -1.238 123.311  0.00  0.00    +0.000 C 
ATOM     18  C   UNL     1      -8.814  -0.170 124.265  0.00  0.00    +0.000 C 
ENDROOT
BRANCH   1  20
ATOM     19  C   UNL     1      -9.615  -3.222 125.940  0.00  0.00    +0.000 C 
ATOM     20  C   UNL     1      -8.107  -2.466 126.132  0.00  0.00    +0.000 C 
ENDBRANCH   1  20
BRANCH  18  21
ATOM     21  O   UNL     1      -9.878   0.135 125.111  0.00  0.00    +0.000 OA
ATOM     22  H   UNL     1      -9.810   1.070 125.335  0.00  0.00    +0.000 HD
ENDBRANCH  18  21
BRANCH  18  23
ATOM     23  C   UNL     1      -8.373   1.164 123.412  0.00  0.00    +0.000 C 
ATOM     24  C   UNL     1      -8.508   2.320 122.894  0.00  0.00    +0.000 C 
ENDBRANCH  18  23
TORSDOF 3
ENDMDL
MODEL 6
REMARK VINA RESULT:      -7.4      4.324      7.838
REMARK  Name = Norgestrel
REMARK  4 active torsions:
REMARK  status: ('A' for Active; 'I' for Inactive)
REMARK    1  A    between atoms: C_1  and  C_2
REMARK    2  A    between atoms: C_2  and  C_3
REMARK    3  A    between atoms: C_20  and  O_21
REMARK    4  A    between atoms: C_20  and  C_22
REMARK                            x       y       z     vdW  Elec       q    Type
REMARK                         _______ _______ _______ _____ _____    ______ ____
ROOT
ATOM      1  C   UNL     1      -6.673  -1.334 124.745  0.00  0.00    +0.000 C 
ATOM      2  C   UNL     1      -6.193   0.390 125.265  0.00  0.00    +0.000 C 
ATOM      3  C   UNL     1      -5.032  -0.197 125.816  0.00  0.00    +0.000 C 
ATOM      4  C   UNL     1      -6.083  -0.891 127.127  0.00  0.00    +0.000 C 
ATOM      5  C   UNL     1      -7.701  -1.417 126.471  0.00  0.00    +0.000 C 
ATOM      6  C   UNL     1      -8.762  -2.120 127.451  0.00  0.00    +0.000 C 
ATOM      7  C   UNL     1      -8.081  -3.372 128.072  0.00  0.00    +0.000 C 
ATOM      8  C   UNL     1      -6.736  -3.019 128.679  0.00  0.00    +0.000 C 
ATOM      9  C   UNL     1      -6.377  -3.875 129.649  0.00  0.00    +0.000 C 
ATOM     10  C   UNL     1      -5.408  -3.330 130.600  0.00  0.00    +0.000 C 
ATOM     11  O   UNL     1      -5.716  -3.126 131.767  0.00  0.00    +0.000 OA
ATOM     12  C   UNL     1      -4.224  -2.731 129.947  0.00  0.00    +0.000 C 
ATOM     13  C   UNL     1      -4.813  -1.414 129.377  0.00  0.00    +0.000 C 
ATOM     14  C   UNL     1      -5.676  -1.926 128.210  0.00  0.00    +0.000 C 
ATOM     15  C   UNL     1      -7.889  -0.672 125.009  0.00  0.00    +0.000 C 
ATOM     16  C   UNL     1      -6.809  -0.381 123.326  0.00  0.00    +0.000 C 
ATOM     17  C   UNL     1      -6.822  -1.697 122.540  0.00  0.00    +0.000 C 
ATOM     18  C   UNL     1      -7.903  -1.866 123.482  0.00  0.00    +0.000 C 
ENDROOT
BRANCH   1  20
ATOM     19  C   UNL     1      -4.818  -3.740 124.300  0.00  0.00    +0.000 C 
ATOM     20  C   UNL     1      -5.646  -2.692 125.348  0.00  0.00    +0.000 C 
ENDBRANCH   1  20
BRANCH  18  21
ATOM     21  O   UNL     1      -8.441  -3.141 123.634  0.00  0.00    +0.000 OA
ATOM     22  H   UNL     1      -9.157  -3.232 122.996  0.00  0.00    +0.000 HD
ENDBRANCH  18  21
BRANCH  18  23
ATOM     23  C   UNL     1      -9.084  -0.806 123.051  0.00  0.00    +0.000 C 
ATOM     24  C   UNL     1     -10.149  -0.410 122.475  0.00  0.00    +0.000 C 
ENDBRANCH  18  23
TORSDOF 3
ENDMDL
MODEL 7
REMARK VINA RESULT:      -7.2      6.037      9.514
REMARK  Name = Norgestrel
REMARK  4 active torsions:
REMARK  status: ('A' for Active; 'I' for Inactive)
REMARK    1  A    between atoms: C_1  and  C_2
REMARK    2  A    between atoms: C_2  and  C_3
REMARK    3  A    between atoms: C_20  and  O_21
REMARK    4  A    between atoms: C_20  and  C_22
REMARK                            x       y       z     vdW  Elec       q    Type
REMARK                         _______ _______ _______ _____ _____    ______ ____
ROOT
ATOM      1  C   UNL     1      -8.912   5.607 130.581  0.00  0.00    +0.000 C 
ATOM      2  C   UNL     1      -7.824   6.856 131.434  0.00  0.00    +0.000 C 
ATOM      3  C   UNL     1      -6.733   6.157 130.870  0.00  0.00    +0.000 C 
ATOM      4  C   UNL     1      -7.062   4.818 132.055  0.00  0.00    +0.000 C 
ATOM      5  C   UNL     1      -8.852   4.582 132.309  0.00  0.00    +0.000 C 
ATOM      6  C   UNL     1      -9.367   3.403 133.272  0.00  0.00    +0.000 C 
ATOM      7  C   UNL     1      -8.792   2.063 132.733  0.00  0.00    +0.000 C 
ATOM      8  C   UNL     1      -7.292   2.155 132.524  0.00  0.00    +0.000 C 
ATOM      9  C   UNL     1      -6.696   0.953 132.589  0.00  0.00    +0.000 C 
ATOM     10  C   UNL     1      -5.272   1.007 132.918  0.00  0.00    +0.000 C 
ATOM     11  O   UNL     1      -4.853   0.566 133.980  0.00  0.00    +0.000 OA
ATOM     12  C   UNL     1      -4.510   1.940 132.060  0.00  0.00    +0.000 C 
ATOM     13  C   UNL     1      -4.967   3.317 132.609  0.00  0.00    +0.000 C 
ATOM     14  C   UNL     1      -6.412   3.408 132.087  0.00  0.00    +0.000 C 
ATOM     15  C   UNL     1      -9.597   5.952 131.763  0.00  0.00    +0.000 C 
ATOM     16  C   UNL     1      -9.541   7.136 130.127  0.00  0.00    +0.000 C 
ATOM     17  C   UNL     1     -10.290   6.407 129.007  0.00  0.00    +0.000 C 
ATOM     18  C   UNL     1     -10.711   5.704 130.196  0.00  0.00    +0.000 C 
ENDROOT
BRANCH   1  20
ATOM     19  C   UNL     1      -7.884   4.119 128.098  0.00  0.00    +0.000 C 
ATOM     20  C   UNL     1      -8.092   4.210 129.781  0.00  0.00    +0.000 C 
ENDBRANCH   1  20
BRANCH  18  21
ATOM     21  O   UNL     1     -11.379   4.493 130.035  0.00  0.00    +0.000 OA
ATOM     22  H   UNL     1     -10.742   3.787 130.194  0.00  0.00    +0.000 HD
ENDBRANCH  18  21
BRANCH  18  23
ATOM     23  C   UNL     1     -11.637   6.746 131.066  0.00  0.00    +0.000 C 
ATOM     24  C   UNL     1     -12.696   7.368 131.406  0.00  0.00    +0.000 C 
ENDBRANCH  18  23
TORSDOF 3
ENDMDL
MODEL 8
REMARK VINA RESULT:      -7.2      3.639      6.242
REMARK  Name = Norgestrel
REMARK  4 active torsions:
REMARK  status: ('A' for Active; 'I' for Inactive)
REMARK    1  A    between atoms: C_1  and  C_2
REMARK    2  A    between atoms: C_2  and  C_3
REMARK    3  A    between atoms: C_20  and  O_21
REMARK    4  A    between atoms: C_20  and  C_22
REMARK                            x       y       z     vdW  Elec       q    Type
REMARK                         _______ _______ _______ _____ _____    ______ ____
ROOT
ATOM      1  C   UNL     1      -7.403  -1.658 125.649  0.00  0.00    +0.000 C 
ATOM      2  C   UNL     1      -7.143  -2.603 127.235  0.00  0.00    +0.000 C 
ATOM      3  C   UNL     1      -8.286  -1.928 127.719  0.00  0.00    +0.000 C 
ATOM      4  C   UNL     1      -7.276  -0.419 127.809  0.00  0.00    +0.000 C 
ATOM      5  C   UNL     1      -6.117  -0.312 126.406  0.00  0.00    +0.000 C 
ATOM      6  C   UNL     1      -5.172   0.980 126.256  0.00  0.00    +0.000 C 
ATOM      7  C   UNL     1      -6.086   2.236 126.203  0.00  0.00    +0.000 C 
ATOM      8  C   UNL     1      -7.066   2.249 127.362  0.00  0.00    +0.000 C 
ATOM      9  C   UNL     1      -7.474   3.492 127.666  0.00  0.00    +0.000 C 
ATOM     10  C   UNL     1      -7.970   3.642 129.034  0.00  0.00    +0.000 C 
ATOM     11  O   UNL     1      -7.366   4.322 129.852  0.00  0.00    +0.000 OA
ATOM     12  C   UNL     1      -8.991   2.635 129.398  0.00  0.00    +0.000 C 
ATOM     13  C   UNL     1      -8.128   1.356 129.561  0.00  0.00    +0.000 C 
ATOM     14  C   UNL     1      -7.765   1.025 128.103  0.00  0.00    +0.000 C 
ATOM     15  C   UNL     1      -6.008  -1.827 125.758  0.00  0.00    +0.000 C 
ATOM     16  C   UNL     1      -7.262  -3.301 125.177  0.00  0.00    +0.000 C 
ATOM     17  C   UNL     1      -7.868  -2.883 123.833  0.00  0.00    +0.000 C 
ATOM     18  C   UNL     1      -6.732  -2.003 123.969  0.00  0.00    +0.000 C 
ENDROOT
BRANCH   1  20
ATOM     19  C   UNL     1      -8.947   0.639 124.320  0.00  0.00    +0.000 C 
ATOM     20  C   UNL     1      -8.673  -0.375 125.654  0.00  0.00    +0.000 C 
ENDBRANCH   1  20
BRANCH  18  21
ATOM     21  O   UNL     1      -6.641  -0.918 123.101  0.00  0.00    +0.000 OA
ATOM     22  H   UNL     1      -7.419  -0.367 123.244  0.00  0.00    +0.000 HD
ENDBRANCH  18  21
BRANCH  18  23
ATOM     23  C   UNL     1      -5.385  -2.937 123.845  0.00  0.00    +0.000 C 
ATOM     24  C   UNL     1      -4.416  -3.523 123.262  0.00  0.00    +0.000 C 
ENDBRANCH  18  23
TORSDOF 3
ENDMDL
MODEL 9
REMARK VINA RESULT:      -7.1      8.271     11.257
REMARK  Name = Norgestrel
REMARK  4 active torsions:
REMARK  status: ('A' for Active; 'I' for Inactive)
REMARK    1  A    between atoms: C_1  and  C_2
REMARK    2  A    between atoms: C_2  and  C_3
REMARK    3  A    between atoms: C_20  and  O_21
REMARK    4  A    between atoms: C_20  and  C_22
REMARK                            x       y       z     vdW  Elec       q    Type
REMARK                         _______ _______ _______ _____ _____    ______ ____
ROOT
ATOM      1  C   UNL     1      -3.670   6.136 130.177  0.00  0.00    +0.000 C 
ATOM      2  C   UNL     1      -4.893   5.034 131.052  0.00  0.00    +0.000 C 
ATOM      3  C   UNL     1      -5.283   6.188 131.768  0.00  0.00    +0.000 C 
ATOM      4  C   UNL     1      -3.708   6.083 132.670  0.00  0.00    +0.000 C 
ATOM      5  C   UNL     1      -2.352   5.547 131.576  0.00  0.00    +0.000 C 
ATOM      6  C   UNL     1      -0.856   5.450 132.157  0.00  0.00    +0.000 C 
ATOM      7  C   UNL     1      -0.474   6.846 132.725  0.00  0.00    +0.000 C 
ATOM      8  C   UNL     1      -1.536   7.357 133.680  0.00  0.00    +0.000 C 
ATOM      9  C   UNL     1      -1.039   8.235 134.567  0.00  0.00    +0.000 C 
ATOM     10  C   UNL     1      -1.828   8.361 135.792  0.00  0.00    +0.000 C 
ATOM     11  O   UNL     1      -1.384   7.987 136.870  0.00  0.00    +0.000 OA
ATOM     12  C   UNL     1      -3.265   8.607 135.538  0.00  0.00    +0.000 C 
ATOM     13  C   UNL     1      -3.741   7.213 135.051  0.00  0.00    +0.000 C 
ATOM     14  C   UNL     1      -3.112   7.130 133.649  0.00  0.00    +0.000 C 
ATOM     15  C   UNL     1      -3.052   4.870 130.242  0.00  0.00    +0.000 C 
ATOM     16  C   UNL     1      -4.519   5.324 128.928  0.00  0.00    +0.000 C 
ATOM     17  C   UNL     1      -3.966   6.385 127.971  0.00  0.00    +0.000 C 
ATOM     18  C   UNL     1      -2.777   5.850 128.592  0.00  0.00    +0.000 C 
ENDROOT
BRANCH   1  20
ATOM     19  C   UNL     1      -3.951   9.179 129.877  0.00  0.00    +0.000 C 
ATOM     20  C   UNL     1      -3.495   7.824 130.793  0.00  0.00    +0.000 C 
ENDBRANCH   1  20
BRANCH  18  21
ATOM     21  O   UNL     1      -1.582   6.544 128.417  0.00  0.00    +0.000 OA
ATOM     22  H   UNL     1      -1.039   6.387 129.198  0.00  0.00    +0.000 HD
ENDBRANCH  18  21
BRANCH  18  23
ATOM     23  C   UNL     1      -2.613   4.304 128.059  0.00  0.00    +0.000 C 
ATOM     24  C   UNL     1      -2.269   3.370 127.264  0.00  0.00    +0.000 C 
ENDBRANCH  18  23
TORSDOF 3
ENDMDL
