MODEL 1
REMARK VINA RESULT:      -6.8      0.000      0.000
REMARK  Name = Normethadone
REMARK  10 active torsions:
REMARK  status: ('A' for Active; 'I' for Inactive)
REMARK    1  A    between atoms: C_1  and  C_2
REMARK    2  A    between atoms: C_2  and  C_3
REMARK    3  A    between atoms: C_3  and  C_5
REMARK    4  A    between atoms: C_5  and  C_6
REMARK    5  A    between atoms: C_5  and  C_11
REMARK    6  A    between atoms: C_5  and  C_17
REMARK    7  A    between atoms: C_6  and  C_7
REMARK    8  A    between atoms: C_7  and  N_8
REMARK    9  A    between atoms: N_8  and  C_9
REMARK   10  A    between atoms: N_8  and  C_10
REMARK                            x       y       z     vdW  Elec       q    Type
REMARK                         _______ _______ _______ _____ _____    ______ ____
ROOT
ATOM      1  C   UNL     1      -7.308  -1.812 125.301  0.00  0.00    +0.000 C 
ENDROOT
BRANCH   1   2
ATOM      2  C   UNL     1      -7.724  -2.358 126.695  0.00  0.00    +0.000 A 
ATOM      3  C   UNL     1      -7.165  -1.824 127.866  0.00  0.00    +0.000 A 
ATOM      4  C   UNL     1      -7.450  -2.388 129.108  0.00  0.00    +0.000 A 
ATOM      5  C   UNL     1      -8.384  -3.416 129.214  0.00  0.00    +0.000 A 
ATOM      6  C   UNL     1      -9.021  -3.898 128.078  0.00  0.00    +0.000 A 
ATOM      7  C   UNL     1      -8.697  -3.371 126.833  0.00  0.00    +0.000 A 
ENDBRANCH   1   2
BRANCH   1   8
ATOM      8  C   UNL     1      -6.309  -2.769 124.592  0.00  0.00    +0.000 A 
ATOM      9  C   UNL     1      -6.444  -4.163 124.599  0.00  0.00    +0.000 A 
ATOM     10  C   UNL     1      -5.457  -4.974 124.033  0.00  0.00    +0.000 A 
ATOM     11  C   UNL     1      -4.330  -4.413 123.438  0.00  0.00    +0.000 A 
ATOM     12  C   UNL     1      -4.196  -3.039 123.374  0.00  0.00    +0.000 A 
ATOM     13  C   UNL     1      -5.215  -2.245 123.875  0.00  0.00    +0.000 A 
ENDBRANCH   1   8
BRANCH   1  14
ATOM     14  C   UNL     1      -8.564  -1.610 124.402  0.00  0.00    +0.000 C 
ATOM     15  O   UNL     1      -9.485  -0.841 124.727  0.00  0.00    +0.000 OA
BRANCH  14  17
ATOM     16  C   UNL     1      -9.745  -3.439 123.209  0.00  0.00    +0.000 C 
ATOM     17  C   UNL     1      -8.661  -2.381 123.095  0.00  0.00    +0.000 C 
ENDBRANCH  14  17
ENDBRANCH   1  14
BRANCH   1  18
ATOM     18  C   UNL     1      -6.653  -0.401 125.535  0.00  0.00    +0.000 C 
BRANCH  18  19
ATOM     19  C   UNL     1      -6.901   0.651 124.459  0.00  0.00    +0.000 C 
BRANCH  19  20
ATOM     20  N   UNL     1      -7.254   1.990 124.951  0.00  0.00    +0.000 NA
ATOM     21  C   UNL     1      -7.832   1.882 126.301  0.00  0.00    +0.000 C 
ATOM     22  C   UNL     1      -5.991   2.745 125.042  0.00  0.00    +0.000 C 
ENDBRANCH  19  20
ENDBRANCH  18  19
ENDBRANCH   1  18
TORSDOF 7
ENDMDL
MODEL 2
REMARK VINA RESULT:      -6.8      1.349      2.259
REMARK  Name = Normethadone
REMARK  10 active torsions:
REMARK  status: ('A' for Active; 'I' for Inactive)
REMARK    1  A    between atoms: C_1  and  C_2
REMARK    2  A    between atoms: C_2  and  C_3
REMARK    3  A    between atoms: C_3  and  C_5
REMARK    4  A    between atoms: C_5  and  C_6
REMARK    5  A    between atoms: C_5  and  C_11
REMARK    6  A    between atoms: C_5  and  C_17
REMARK    7  A    between atoms: C_6  and  C_7
REMARK    8  A    between atoms: C_7  and  N_8
REMARK    9  A    between atoms: N_8  and  C_9
REMARK   10  A    between atoms: N_8  and  C_10
REMARK                            x       y       z     vdW  Elec       q    Type
REMARK                         _______ _______ _______ _____ _____    ______ ____
ROOT
ATOM      1  C   UNL     1      -7.697  -0.966 125.775  0.00  0.00    +0.000 C 
ENDROOT
BRANCH   1   2
ATOM      2  C   UNL     1      -7.988  -1.903 126.980  0.00  0.00    +0.000 A 
ATOM      3  C   UNL     1      -8.659  -3.121 126.791  0.00  0.00    +0.000 A 
ATOM      4  C   UNL     1      -9.021  -3.908 127.882  0.00  0.00    +0.000 A 
ATOM      5  C   UNL     1      -8.620  -3.551 129.167  0.00  0.00    +0.000 A 
ATOM      6  C   UNL     1      -7.874  -2.398 129.369  0.00  0.00    +0.000 A 
ATOM      7  C   UNL     1      -7.558  -1.586 128.287  0.00  0.00    +0.000 A 
ENDBRANCH   1   2
BRANCH   1   8
ATOM      8  C   UNL     1      -6.736  -1.636 124.754  0.00  0.00    +0.000 A 
ATOM      9  C   UNL     1      -6.773  -1.378 123.379  0.00  0.00    +0.000 A 
ATOM     10  C   UNL     1      -5.953  -2.089 122.500  0.00  0.00    +0.000 A 
ATOM     11  C   UNL     1      -5.073  -3.059 122.976  0.00  0.00    +0.000 A 
ATOM     12  C   UNL     1      -4.981  -3.299 124.333  0.00  0.00    +0.000 A 
ATOM     13  C   UNL     1      -5.748  -2.537 125.200  0.00  0.00    +0.000 A 
ENDBRANCH   1   8
BRANCH   1  14
ATOM     14  C   UNL     1      -9.026  -0.575 125.062  0.00  0.00    +0.000 C 
ATOM     15  O   UNL     1      -9.507  -1.266 124.148  0.00  0.00    +0.000 OA
BRANCH  14  17
ATOM     16  C   UNL     1     -10.229   1.450 124.277  0.00  0.00    +0.000 C 
ATOM     17  C   UNL     1      -9.748   0.690 125.501  0.00  0.00    +0.000 C 
ENDBRANCH  14  17
ENDBRANCH   1  14
BRANCH   1  18
ATOM     18  C   UNL     1      -7.059   0.348 126.358  0.00  0.00    +0.000 C 
BRANCH  18  19
ATOM     19  C   UNL     1      -6.110   1.109 125.438  0.00  0.00    +0.000 C 
BRANCH  19  20
ATOM     20  N   UNL     1      -6.576   2.432 125.000  0.00  0.00    +0.000 NA
ATOM     21  C   UNL     1      -5.538   3.438 125.279  0.00  0.00    +0.000 C 
ATOM     22  C   UNL     1      -6.760   2.344 123.539  0.00  0.00    +0.000 C 
ENDBRANCH  19  20
ENDBRANCH  18  19
ENDBRANCH   1  18
TORSDOF 7
ENDMDL
MODEL 3
REMARK VINA RESULT:      -6.6      1.753      4.301
REMARK  Name = Normethadone
REMARK  10 active torsions:
REMARK  status: ('A' for Active; 'I' for Inactive)
REMARK    1  A    between atoms: C_1  and  C_2
REMARK    2  A    between atoms: C_2  and  C_3
REMARK    3  A    between atoms: C_3  and  C_5
REMARK    4  A    between atoms: C_5  and  C_6
REMARK    5  A    between atoms: C_5  and  C_11
REMARK    6  A    between atoms: C_5  and  C_17
REMARK    7  A    between atoms: C_6  and  C_7
REMARK    8  A    between atoms: C_7  and  N_8
REMARK    9  A    between atoms: N_8  and  C_9
REMARK   10  A    between atoms: N_8  and  C_10
REMARK                            x       y       z     vdW  Elec       q    Type
REMARK                         _______ _______ _______ _____ _____    ______ ____
ROOT
ATOM      1  C   UNL     1      -6.947  -1.754 125.396  0.00  0.00    +0.000 C 
ENDROOT
BRANCH   1   2
ATOM      2  C   UNL     1      -8.028  -0.732 124.947  0.00  0.00    +0.000 A 
ATOM      3  C   UNL     1      -8.176  -0.401 123.591  0.00  0.00    +0.000 A 
ATOM      4  C   UNL     1      -9.065   0.598 123.199  0.00  0.00    +0.000 A 
ATOM      5  C   UNL     1      -9.901   1.200 124.137  0.00  0.00    +0.000 A 
ATOM      6  C   UNL     1      -9.837   0.823 125.471  0.00  0.00    +0.000 A 
ATOM      7  C   UNL     1      -8.914  -0.137 125.870  0.00  0.00    +0.000 A 
ENDBRANCH   1   2
BRANCH   1   8
ATOM      8  C   UNL     1      -7.344  -2.450 126.728  0.00  0.00    +0.000 A 
ATOM      9  C   UNL     1      -8.464  -3.280 126.858  0.00  0.00    +0.000 A 
ATOM     10  C   UNL     1      -8.828  -3.793 128.105  0.00  0.00    +0.000 A 
ATOM     11  C   UNL     1      -8.075  -3.501 129.241  0.00  0.00    +0.000 A 
ATOM     12  C   UNL     1      -6.938  -2.724 129.132  0.00  0.00    +0.000 A 
ATOM     13  C   UNL     1      -6.548  -2.281 127.879  0.00  0.00    +0.000 A 
ENDBRANCH   1   8
BRANCH   1  14
ATOM     14  C   UNL     1      -6.727  -2.830 124.291  0.00  0.00    +0.000 C 
ATOM     15  O   UNL     1      -7.599  -3.671 124.013  0.00  0.00    +0.000 OA
BRANCH  14  17
ATOM     16  C   UNL     1      -4.675  -4.146 123.823  0.00  0.00    +0.000 C 
ATOM     17  C   UNL     1      -5.406  -2.846 123.537  0.00  0.00    +0.000 C 
ENDBRANCH  14  17
ENDBRANCH   1  14
BRANCH   1  18
ATOM     18  C   UNL     1      -5.601  -0.958 125.566  0.00  0.00    +0.000 C 
BRANCH  18  19
ATOM     19  C   UNL     1      -5.722   0.553 125.739  0.00  0.00    +0.000 C 
BRANCH  19  20
ATOM     20  N   UNL     1      -5.079   1.108 126.937  0.00  0.00    +0.000 NA
ATOM     21  C   UNL     1      -4.343   2.332 126.580  0.00  0.00    +0.000 C 
ATOM     22  C   UNL     1      -6.168   1.470 127.863  0.00  0.00    +0.000 C 
ENDBRANCH  19  20
ENDBRANCH  18  19
ENDBRANCH   1  18
TORSDOF 7
ENDMDL
MODEL 4
REMARK VINA RESULT:      -6.6      3.088      5.676
REMARK  Name = Normethadone
REMARK  10 active torsions:
REMARK  status: ('A' for Active; 'I' for Inactive)
REMARK    1  A    between atoms: C_1  and  C_2
REMARK    2  A    between atoms: C_2  and  C_3
REMARK    3  A    between atoms: C_3  and  C_5
REMARK    4  A    between atoms: C_5  and  C_6
REMARK    5  A    between atoms: C_5  and  C_11
REMARK    6  A    between atoms: C_5  and  C_17
REMARK    7  A    between atoms: C_6  and  C_7
REMARK    8  A    between atoms: C_7  and  N_8
REMARK    9  A    between atoms: N_8  and  C_9
REMARK   10  A    between atoms: N_8  and  C_10
REMARK                            x       y       z     vdW  Elec       q    Type
REMARK                         _______ _______ _______ _____ _____    ______ ____
ROOT
ATOM      1  C   UNL     1      -6.966   2.425 124.406  0.00  0.00    +0.000 C 
ENDROOT
BRANCH   1   2
ATOM      2  C   UNL     1      -6.584   0.920 124.347  0.00  0.00    +0.000 A 
ATOM      3  C   UNL     1      -6.981   0.125 123.261  0.00  0.00    +0.000 A 
ATOM      4  C   UNL     1      -6.738  -1.247 123.261  0.00  0.00    +0.000 A 
ATOM      5  C   UNL     1      -5.997  -1.828 124.288  0.00  0.00    +0.000 A 
ATOM      6  C   UNL     1      -5.514  -1.045 125.327  0.00  0.00    +0.000 A 
ATOM      7  C   UNL     1      -5.801   0.315 125.353  0.00  0.00    +0.000 A 
ENDBRANCH   1   2
BRANCH   1   8
ATOM      8  C   UNL     1      -7.171   3.014 122.982  0.00  0.00    +0.000 A 
ATOM      9  C   UNL     1      -8.418   3.076 122.348  0.00  0.00    +0.000 A 
ATOM     10  C   UNL     1      -8.521   3.521 121.028  0.00  0.00    +0.000 A 
ATOM     11  C   UNL     1      -7.390   3.924 120.322  0.00  0.00    +0.000 A 
ATOM     12  C   UNL     1      -6.154   3.919 120.941  0.00  0.00    +0.000 A 
ATOM     13  C   UNL     1      -6.075   3.544 122.272  0.00  0.00    +0.000 A 
ENDBRANCH   1   8
BRANCH   1  14
ATOM     14  C   UNL     1      -8.266   2.621 125.243  0.00  0.00    +0.000 C 
ATOM     15  O   UNL     1      -8.965   3.643 125.139  0.00  0.00    +0.000 OA
BRANCH  14  17
ATOM     16  C   UNL     1      -9.806   0.708 125.603  0.00  0.00    +0.000 C 
ATOM     17  C   UNL     1      -8.682   1.527 126.215  0.00  0.00    +0.000 C 
ENDBRANCH  14  17
ENDBRANCH   1  14
BRANCH   1  18
ATOM     18  C   UNL     1      -5.798   3.168 125.151  0.00  0.00    +0.000 C 
BRANCH  18  19
ATOM     19  C   UNL     1      -6.113   4.558 125.696  0.00  0.00    +0.000 C 
BRANCH  19  20
ATOM     20  N   UNL     1      -5.525   4.874 127.004  0.00  0.00    +0.000 NA
ATOM     21  C   UNL     1      -6.243   4.140 128.059  0.00  0.00    +0.000 C 
ATOM     22  C   UNL     1      -4.133   4.388 126.962  0.00  0.00    +0.000 C 
ENDBRANCH  19  20
ENDBRANCH  18  19
ENDBRANCH   1  18
TORSDOF 7
ENDMDL
MODEL 5
REMARK VINA RESULT:      -6.5      1.789      4.827
REMARK  Name = Normethadone
REMARK  10 active torsions:
REMARK  status: ('A' for Active; 'I' for Inactive)
REMARK    1  A    between atoms: C_1  and  C_2
REMARK    2  A    between atoms: C_2  and  C_3
REMARK    3  A    between atoms: C_3  and  C_5
REMARK    4  A    between atoms: C_5  and  C_6
REMARK    5  A    between atoms: C_5  and  C_11
REMARK    6  A    between atoms: C_5  and  C_17
REMARK    7  A    between atoms: C_6  and  C_7
REMARK    8  A    between atoms: C_7  and  N_8
REMARK    9  A    between atoms: N_8  and  C_9
REMARK   10  A    between atoms: N_8  and  C_10
REMARK                            x       y       z     vdW  Elec       q    Type
REMARK                         _______ _______ _______ _____ _____    ______ ____
ROOT
ATOM      1  C   UNL     1      -7.513  -0.858 125.975  0.00  0.00    +0.000 C 
ENDROOT
BRANCH   1   2
ATOM      2  C   UNL     1      -6.656  -1.578 124.897  0.00  0.00    +0.000 A 
ATOM      3  C   UNL     1      -6.811  -1.268 123.537  0.00  0.00    +0.000 A 
ATOM      4  C   UNL     1      -6.128  -1.993 122.563  0.00  0.00    +0.000 A 
ATOM      5  C   UNL     1      -5.194  -2.958 122.933  0.00  0.00    +0.000 A 
ATOM      6  C   UNL     1      -4.954  -3.217 124.276  0.00  0.00    +0.000 A 
ATOM      7  C   UNL     1      -5.675  -2.531 125.246  0.00  0.00    +0.000 A 
ENDBRANCH   1   2
BRANCH   1   8
ATOM      8  C   UNL     1      -7.947  -1.836 127.102  0.00  0.00    +0.000 A 
ATOM      9  C   UNL     1      -7.562  -1.688 128.439  0.00  0.00    +0.000 A 
ATOM     10  C   UNL     1      -7.898  -2.658 129.387  0.00  0.00    +0.000 A 
ATOM     11  C   UNL     1      -8.635  -3.783 129.023  0.00  0.00    +0.000 A 
ATOM     12  C   UNL     1      -9.070  -3.929 127.719  0.00  0.00    +0.000 A 
ATOM     13  C   UNL     1      -8.791  -2.926 126.806  0.00  0.00    +0.000 A 
ENDBRANCH   1   8
BRANCH   1  14
ATOM     14  C   UNL     1      -6.717   0.330 126.593  0.00  0.00    +0.000 C 
ATOM     15  O   UNL     1      -7.138   0.958 127.580  0.00  0.00    +0.000 OA
BRANCH  14  17
ATOM     16  C   UNL     1      -5.020   2.132 126.408  0.00  0.00    +0.000 C 
ATOM     17  C   UNL     1      -5.389   0.727 125.966  0.00  0.00    +0.000 C 
ENDBRANCH  14  17
ENDBRANCH   1  14
BRANCH   1  18
ATOM     18  C   UNL     1      -8.771  -0.263 125.241  0.00  0.00    +0.000 C 
BRANCH  18  19
ATOM     19  C   UNL     1      -9.327   1.044 125.797  0.00  0.00    +0.000 C 
BRANCH  19  20
ATOM     20  N   UNL     1      -9.621   2.082 124.799  0.00  0.00    +0.000 NA
ATOM     21  C   UNL     1      -8.513   3.051 124.755  0.00  0.00    +0.000 C 
ATOM     22  C   UNL     1      -9.694   1.397 123.496  0.00  0.00    +0.000 C 
ENDBRANCH  19  20
ENDBRANCH  18  19
ENDBRANCH   1  18
TORSDOF 7
ENDMDL
MODEL 6
REMARK VINA RESULT:      -6.2      3.279      7.045
REMARK  Name = Normethadone
REMARK  10 active torsions:
REMARK  status: ('A' for Active; 'I' for Inactive)
REMARK    1  A    between atoms: C_1  and  C_2
REMARK    2  A    between atoms: C_2  and  C_3
REMARK    3  A    between atoms: C_3  and  C_5
REMARK    4  A    between atoms: C_5  and  C_6
REMARK    5  A    between atoms: C_5  and  C_11
REMARK    6  A    between atoms: C_5  and  C_17
REMARK    7  A    between atoms: C_6  and  C_7
REMARK    8  A    between atoms: C_7  and  N_8
REMARK    9  A    between atoms: N_8  and  C_9
REMARK   10  A    between atoms: N_8  and  C_10
REMARK                            x       y       z     vdW  Elec       q    Type
REMARK                         _______ _______ _______ _____ _____    ______ ____
ROOT
ATOM      1  C   UNL     1      -7.100   2.464 124.351  0.00  0.00    +0.000 C 
ENDROOT
BRANCH   1   2
ATOM      2  C   UNL     1      -7.049   3.050 122.912  0.00  0.00    +0.000 A 
ATOM      3  C   UNL     1      -8.227   3.223 122.170  0.00  0.00    +0.000 A 
ATOM      4  C   UNL     1      -8.172   3.640 120.841  0.00  0.00    +0.000 A 
ATOM      5  C   UNL     1      -6.954   4.001 120.269  0.00  0.00    +0.000 A 
ATOM      6  C   UNL     1      -5.786   3.927 121.014  0.00  0.00    +0.000 A 
ATOM      7  C   UNL     1      -5.834   3.461 122.323  0.00  0.00    +0.000 A 
ENDBRANCH   1   2
BRANCH   1   8
ATOM      8  C   UNL     1      -6.045   3.135 125.274  0.00  0.00    +0.000 A 
ATOM      9  C   UNL     1      -6.038   4.504 125.566  0.00  0.00    +0.000 A 
ATOM     10  C   UNL     1      -5.004   5.065 126.318  0.00  0.00    +0.000 A 
ATOM     11  C   UNL     1      -3.967   4.271 126.805  0.00  0.00    +0.000 A 
ATOM     12  C   UNL     1      -3.976   2.909 126.573  0.00  0.00    +0.000 A 
ATOM     13  C   UNL     1      -5.044   2.355 125.887  0.00  0.00    +0.000 A 
ENDBRANCH   1   8
BRANCH   1  14
ATOM     14  C   UNL     1      -8.522   2.652 124.960  0.00  0.00    +0.000 C 
ATOM     15  O   UNL     1      -8.969   3.777 125.244  0.00  0.00    +0.000 OA
BRANCH  14  17
ATOM     16  C   UNL     1     -10.481   1.348 124.172  0.00  0.00    +0.000 C 
ATOM     17  C   UNL     1      -9.378   1.421 125.214  0.00  0.00    +0.000 C 
ENDBRANCH  14  17
ENDBRANCH   1  14
BRANCH   1  18
ATOM     18  C   UNL     1      -6.830   0.920 124.229  0.00  0.00    +0.000 C 
BRANCH  18  19
ATOM     19  C   UNL     1      -6.945   0.317 122.833  0.00  0.00    +0.000 C 
BRANCH  19  20
ATOM     20  N   UNL     1      -6.989  -1.151 122.778  0.00  0.00    +0.000 NA
ATOM     21  C   UNL     1      -6.109  -1.710 123.818  0.00  0.00    +0.000 C 
ATOM     22  C   UNL     1      -8.379  -1.536 123.087  0.00  0.00    +0.000 C 
ENDBRANCH  19  20
ENDBRANCH  18  19
ENDBRANCH   1  18
TORSDOF 7
ENDMDL
MODEL 7
REMARK VINA RESULT:      -6.1      1.751      4.253
REMARK  Name = Normethadone
REMARK  10 active torsions:
REMARK  status: ('A' for Active; 'I' for Inactive)
REMARK    1  A    between atoms: C_1  and  C_2
REMARK    2  A    between atoms: C_2  and  C_3
REMARK    3  A    between atoms: C_3  and  C_5
REMARK    4  A    between atoms: C_5  and  C_6
REMARK    5  A    between atoms: C_5  and  C_11
REMARK    6  A    between atoms: C_5  and  C_17
REMARK    7  A    between atoms: C_6  and  C_7
REMARK    8  A    between atoms: C_7  and  N_8
REMARK    9  A    between atoms: N_8  and  C_9
REMARK   10  A    between atoms: N_8  and  C_10
REMARK                            x       y       z     vdW  Elec       q    Type
REMARK                         _______ _______ _______ _____ _____    ______ ____
ROOT
ATOM      1  C   UNL     1      -7.737  -0.556 125.451  0.00  0.00    +0.000 C 
ENDROOT
BRANCH   1   2
ATOM      2  C   UNL     1      -7.921  -1.686 126.502  0.00  0.00    +0.000 A 
ATOM      3  C   UNL     1      -8.830  -2.731 126.274  0.00  0.00    +0.000 A 
ATOM      4  C   UNL     1      -9.080  -3.680 127.263  0.00  0.00    +0.000 A 
ATOM      5  C   UNL     1      -8.345  -3.670 128.446  0.00  0.00    +0.000 A 
ATOM      6  C   UNL     1      -7.374  -2.700 128.655  0.00  0.00    +0.000 A 
ATOM      7  C   UNL     1      -7.162  -1.722 127.691  0.00  0.00    +0.000 A 
ENDBRANCH   1   2
BRANCH   1   8
ATOM      8  C   UNL     1      -7.222   0.754 126.111  0.00  0.00    +0.000 A 
ATOM      9  C   UNL     1      -7.790   1.309 127.264  0.00  0.00    +0.000 A 
ATOM     10  C   UNL     1      -7.349   2.542 127.750  0.00  0.00    +0.000 A 
ATOM     11  C   UNL     1      -6.327   3.236 127.106  0.00  0.00    +0.000 A 
ATOM     12  C   UNL     1      -5.716   2.687 125.994  0.00  0.00    +0.000 A 
ATOM     13  C   UNL     1      -6.113   1.432 125.565  0.00  0.00    +0.000 A 
ENDBRANCH   1   8
BRANCH   1  14
ATOM     14  C   UNL     1      -6.742  -1.007 124.341  0.00  0.00    +0.000 C 
ATOM     15  O   UNL     1      -6.892  -0.676 123.152  0.00  0.00    +0.000 OA
BRANCH  14  17
ATOM     16  C   UNL     1      -5.633  -3.198 123.981  0.00  0.00    +0.000 C 
ATOM     17  C   UNL     1      -5.558  -1.879 124.730  0.00  0.00    +0.000 C 
ENDBRANCH  14  17
ENDBRANCH   1  14
BRANCH   1  18
ATOM     18  C   UNL     1      -9.138  -0.322 124.775  0.00  0.00    +0.000 C 
BRANCH  18  19
ATOM     19  C   UNL     1      -9.664   1.110 124.776  0.00  0.00    +0.000 C 
BRANCH  19  20
ATOM     20  N   UNL     1      -9.922   1.691 123.452  0.00  0.00    +0.000 NA
ATOM     21  C   UNL     1      -8.734   2.434 123.000  0.00  0.00    +0.000 C 
ATOM     22  C   UNL     1     -10.139   0.556 122.535  0.00  0.00    +0.000 C 
ENDBRANCH  19  20
ENDBRANCH  18  19
ENDBRANCH   1  18
TORSDOF 7
ENDMDL
MODEL 8
REMARK VINA RESULT:      -6.1      1.961      4.915
REMARK  Name = Normethadone
REMARK  10 active torsions:
REMARK  status: ('A' for Active; 'I' for Inactive)
REMARK    1  A    between atoms: C_1  and  C_2
REMARK    2  A    between atoms: C_2  and  C_3
REMARK    3  A    between atoms: C_3  and  C_5
REMARK    4  A    between atoms: C_5  and  C_6
REMARK    5  A    between atoms: C_5  and  C_11
REMARK    6  A    between atoms: C_5  and  C_17
REMARK    7  A    between atoms: C_6  and  C_7
REMARK    8  A    between atoms: C_7  and  N_8
REMARK    9  A    between atoms: N_8  and  C_9
REMARK   10  A    between atoms: N_8  and  C_10
REMARK                            x       y       z     vdW  Elec       q    Type
REMARK                         _______ _______ _______ _____ _____    ______ ____
ROOT
ATOM      1  C   UNL     1      -7.569  -0.387 125.139  0.00  0.00    +0.000 C 
ENDROOT
BRANCH   1   2
ATOM      2  C   UNL     1      -6.605  -1.381 124.433  0.00  0.00    +0.000 A 
ATOM      3  C   UNL     1      -6.536  -1.434 123.032  0.00  0.00    +0.000 A 
ATOM      4  C   UNL     1      -5.760  -2.402 122.398  0.00  0.00    +0.000 A 
ATOM      5  C   UNL     1      -4.952  -3.254 123.146  0.00  0.00    +0.000 A 
ATOM      6  C   UNL     1      -4.932  -3.158 124.531  0.00  0.00    +0.000 A 
ATOM      7  C   UNL     1      -5.747  -2.228 125.166  0.00  0.00    +0.000 A 
ENDBRANCH   1   2
BRANCH   1   8
ATOM      8  C   UNL     1      -7.785   0.895 124.287  0.00  0.00    +0.000 A 
ATOM      9  C   UNL     1      -8.924   1.115 123.503  0.00  0.00    +0.000 A 
ATOM     10  C   UNL     1      -9.013   2.239 122.679  0.00  0.00    +0.000 A 
ATOM     11  C   UNL     1      -7.978   3.170 122.631  0.00  0.00    +0.000 A 
ATOM     12  C   UNL     1      -6.864   3.002 123.431  0.00  0.00    +0.000 A 
ATOM     13  C   UNL     1      -6.819   1.922 124.297  0.00  0.00    +0.000 A 
ENDBRANCH   1   8
BRANCH   1  14
ATOM     14  C   UNL     1      -8.942  -1.068 125.413  0.00  0.00    +0.000 C 
ATOM     15  O   UNL     1      -9.947  -0.411 125.735  0.00  0.00    +0.000 OA
BRANCH  14  17
ATOM     16  C   UNL     1      -9.049  -3.208 126.667  0.00  0.00    +0.000 C 
ATOM     17  C   UNL     1      -9.048  -2.580 125.284  0.00  0.00    +0.000 C 
ENDBRANCH  14  17
ENDBRANCH   1  14
BRANCH   1  18
ATOM     18  C   UNL     1      -6.924  -0.028 126.528  0.00  0.00    +0.000 C 
BRANCH  18  19
ATOM     19  C   UNL     1      -7.890   0.305 127.661  0.00  0.00    +0.000 C 
BRANCH  19  20
ATOM     20  N   UNL     1      -7.786  -0.547 128.853  0.00  0.00    +0.000 NA
ATOM     21  C   UNL     1      -6.550  -1.344 128.783  0.00  0.00    +0.000 C 
ATOM     22  C   UNL     1      -7.690   0.364 130.008  0.00  0.00    +0.000 C 
ENDBRANCH  19  20
ENDBRANCH  18  19
ENDBRANCH   1  18
TORSDOF 7
ENDMDL
MODEL 9
REMARK VINA RESULT:      -6.0      4.050      6.647
REMARK  Name = Normethadone
REMARK  10 active torsions:
REMARK  status: ('A' for Active; 'I' for Inactive)
REMARK    1  A    between atoms: C_1  and  C_2
REMARK    2  A    between atoms: C_2  and  C_3
REMARK    3  A    between atoms: C_3  and  C_5
REMARK    4  A    between atoms: C_5  and  C_6
REMARK    5  A    between atoms: C_5  and  C_11
REMARK    6  A    between atoms: C_5  and  C_17
REMARK    7  A    between atoms: C_6  and  C_7
REMARK    8  A    between atoms: C_7  and  N_8
REMARK    9  A    between atoms: N_8  and  C_9
REMARK   10  A    between atoms: N_8  and  C_10
REMARK                            x       y       z     vdW  Elec       q    Type
REMARK                         _______ _______ _______ _____ _____    ______ ____
ROOT
ATOM      1  C   UNL     1      -7.277  -1.683 130.087  0.00  0.00    +0.000 C 
ENDROOT
BRANCH   1   2
ATOM      2  C   UNL     1      -7.953  -0.329 130.440  0.00  0.00    +0.000 A 
ATOM      3  C   UNL     1      -8.711  -0.194 131.613  0.00  0.00    +0.000 A 
ATOM      4  C   UNL     1      -9.411   0.982 131.872  0.00  0.00    +0.000 A 
ATOM      5  C   UNL     1      -9.273   2.081 131.028  0.00  0.00    +0.000 A 
ATOM      6  C   UNL     1      -8.453   2.002 129.910  0.00  0.00    +0.000 A 
ATOM      7  C   UNL     1      -7.797   0.811 129.623  0.00  0.00    +0.000 A 
ENDBRANCH   1   2
BRANCH   1   8
ATOM      8  C   UNL     1      -7.845  -2.273 128.765  0.00  0.00    +0.000 A 
ATOM      9  C   UNL     1      -7.801  -1.597 127.540  0.00  0.00    +0.000 A 
ATOM     10  C   UNL     1      -8.421  -2.135 126.410  0.00  0.00    +0.000 A 
ATOM     11  C   UNL     1      -9.082  -3.360 126.476  0.00  0.00    +0.000 A 
ATOM     12  C   UNL     1      -9.098  -4.070 127.661  0.00  0.00    +0.000 A 
ATOM     13  C   UNL     1      -8.419  -3.560 128.755  0.00  0.00    +0.000 A 
ENDBRANCH   1   8
BRANCH   1  14
ATOM     14  C   UNL     1      -5.736  -1.500 129.956  0.00  0.00    +0.000 C 
ATOM     15  O   UNL     1      -5.119  -0.647 130.617  0.00  0.00    +0.000 OA
BRANCH  14  17
ATOM     16  C   UNL     1      -3.619  -2.742 129.585  0.00  0.00    +0.000 C 
ATOM     17  C   UNL     1      -4.971  -2.392 128.990  0.00  0.00    +0.000 C 
ENDBRANCH  14  17
ENDBRANCH   1  14
BRANCH   1  18
ATOM     18  C   UNL     1      -7.545  -2.659 131.290  0.00  0.00    +0.000 C 
BRANCH  18  19
ATOM     19  C   UNL     1      -6.340  -3.026 132.150  0.00  0.00    +0.000 C 
BRANCH  19  20
ATOM     20  N   UNL     1      -6.514  -2.841 133.597  0.00  0.00    +0.000 NA
ATOM     21  C   UNL     1      -6.172  -1.456 133.962  0.00  0.00    +0.000 C 
ATOM     22  C   UNL     1      -7.946  -3.058 133.874  0.00  0.00    +0.000 C 
ENDBRANCH  19  20
ENDBRANCH  18  19
ENDBRANCH   1  18
TORSDOF 7
ENDMDL
