MODEL 1
REMARK VINA RESULT:      -7.3      0.000      0.000
REMARK  Name = Nortriptyline
REMARK  4 active torsions:
REMARK  status: ('A' for Active; 'I' for Inactive)
REMARK    1  A    between atoms: C_1  and  N_2
REMARK    2  A    between atoms: N_2  and  C_3
REMARK    3  A    between atoms: C_3  and  C_4
REMARK    4  A    between atoms: C_4  and  C_5
REMARK                            x       y       z     vdW  Elec       q    Type
REMARK                         _______ _______ _______ _____ _____    ______ ____
ROOT
ATOM      1  C   UNL     1      -8.207   0.398 126.830  0.00  0.00    +0.000 C 
ATOM      2  C   UNL     1      -7.679  -0.825 127.061  0.00  0.00    +0.000 C 
ATOM      3  C   UNL     1      -7.193  -1.626 125.915  0.00  0.00    +0.000 A 
ATOM      4  C   UNL     1      -6.047  -1.258 125.201  0.00  0.00    +0.000 A 
ATOM      5  C   UNL     1      -5.602  -2.042 124.138  0.00  0.00    +0.000 A 
ATOM      6  C   UNL     1      -6.281  -3.212 123.804  0.00  0.00    +0.000 A 
ATOM      7  C   UNL     1      -7.412  -3.596 124.522  0.00  0.00    +0.000 A 
ATOM      8  C   UNL     1      -7.882  -2.799 125.572  0.00  0.00    +0.000 A 
ATOM      9  C   UNL     1      -9.077  -3.223 126.384  0.00  0.00    +0.000 C 
ATOM     10  C   UNL     1      -8.634  -3.723 127.756  0.00  0.00    +0.000 C 
ATOM     11  C   UNL     1      -8.097  -2.705 128.748  0.00  0.00    +0.000 A 
ATOM     12  C   UNL     1      -7.972  -3.169 130.073  0.00  0.00    +0.000 A 
ATOM     13  C   UNL     1      -7.478  -2.351 131.085  0.00  0.00    +0.000 A 
ATOM     14  C   UNL     1      -7.086  -1.052 130.792  0.00  0.00    +0.000 A 
ATOM     15  C   UNL     1      -7.185  -0.577 129.484  0.00  0.00    +0.000 A 
ATOM     16  C   UNL     1      -7.692  -1.383 128.446  0.00  0.00    +0.000 A 
ENDROOT
BRANCH   1  17
ATOM     17  C   UNL     1      -8.307   1.070 125.478  0.00  0.00    +0.000 C 
BRANCH  17  18
ATOM     18  C   UNL     1      -9.719   1.017 124.883  0.00  0.00    +0.000 C 
BRANCH  18  20
ATOM     19  C   UNL     1     -10.184   0.588 122.564  0.00  0.00    +0.000 C 
ATOM     20  N   UNL     1      -9.782  -0.003 123.832  0.00  0.00    +0.000 NA
ATOM     21  H   UNL     1      -8.868  -0.444 123.728  0.00  0.00    +0.000 HD
ENDBRANCH  18  20
ENDBRANCH  17  18
ENDBRANCH   1  17
TORSDOF 3
ENDMDL
MODEL 2
REMARK VINA RESULT:      -7.1      2.880      3.496
REMARK  Name = Nortriptyline
REMARK  4 active torsions:
REMARK  status: ('A' for Active; 'I' for Inactive)
REMARK    1  A    between atoms: C_1  and  N_2
REMARK    2  A    between atoms: N_2  and  C_3
REMARK    3  A    between atoms: C_3  and  C_4
REMARK    4  A    between atoms: C_4  and  C_5
REMARK                            x       y       z     vdW  Elec       q    Type
REMARK                         _______ _______ _______ _____ _____    ______ ____
ROOT
ATOM      1  C   UNL     1      -5.269  -0.518 127.405  0.00  0.00    +0.000 C 
ATOM      2  C   UNL     1      -5.668  -1.808 127.470  0.00  0.00    +0.000 C 
ATOM      3  C   UNL     1      -6.422  -2.386 126.335  0.00  0.00    +0.000 A 
ATOM      4  C   UNL     1      -5.809  -2.630 125.100  0.00  0.00    +0.000 A 
ATOM      5  C   UNL     1      -6.539  -3.193 124.055  0.00  0.00    +0.000 A 
ATOM      6  C   UNL     1      -7.874  -3.542 124.246  0.00  0.00    +0.000 A 
ATOM      7  C   UNL     1      -8.487  -3.319 125.479  0.00  0.00    +0.000 A 
ATOM      8  C   UNL     1      -7.769  -2.728 126.524  0.00  0.00    +0.000 A 
ATOM      9  C   UNL     1      -8.406  -2.522 127.874  0.00  0.00    +0.000 C 
ATOM     10  C   UNL     1      -7.865  -3.539 128.875  0.00  0.00    +0.000 C 
ATOM     11  C   UNL     1      -6.424  -3.393 129.333  0.00  0.00    +0.000 A 
ATOM     12  C   UNL     1      -6.071  -4.174 130.453  0.00  0.00    +0.000 A 
ATOM     13  C   UNL     1      -4.780  -4.154 130.973  0.00  0.00    +0.000 A 
ATOM     14  C   UNL     1      -3.809  -3.362 130.377  0.00  0.00    +0.000 A 
ATOM     15  C   UNL     1      -4.131  -2.593 129.259  0.00  0.00    +0.000 A 
ATOM     16  C   UNL     1      -5.434  -2.589 128.721  0.00  0.00    +0.000 A 
ENDROOT
BRANCH   1  17
ATOM     17  C   UNL     1      -5.481   0.407 126.227  0.00  0.00    +0.000 C 
BRANCH  17  18
ATOM     18  C   UNL     1      -5.143   1.869 126.542  0.00  0.00    +0.000 C 
BRANCH  18  20
ATOM     19  C   UNL     1      -3.003   2.961 126.635  0.00  0.00    +0.000 C 
ATOM     20  N   UNL     1      -3.854   1.947 127.238  0.00  0.00    +0.000 NA
ATOM     21  H   UNL     1      -4.009   2.173 128.220  0.00  0.00    +0.000 HD
ENDBRANCH  18  20
ENDBRANCH  17  18
ENDBRANCH   1  17
TORSDOF 3
ENDMDL
MODEL 3
REMARK VINA RESULT:      -7.1      3.944      6.228
REMARK  Name = Nortriptyline
REMARK  4 active torsions:
REMARK  status: ('A' for Active; 'I' for Inactive)
REMARK    1  A    between atoms: C_1  and  N_2
REMARK    2  A    between atoms: N_2  and  C_3
REMARK    3  A    between atoms: C_3  and  C_4
REMARK    4  A    between atoms: C_4  and  C_5
REMARK                            x       y       z     vdW  Elec       q    Type
REMARK                         _______ _______ _______ _____ _____    ______ ____
ROOT
ATOM      1  C   UNL     1      -6.366   2.004 125.024  0.00  0.00    +0.000 C 
ATOM      2  C   UNL     1      -6.898   1.466 123.903  0.00  0.00    +0.000 C 
ATOM      3  C   UNL     1      -7.185   2.348 122.749  0.00  0.00    +0.000 A 
ATOM      4  C   UNL     1      -6.154   2.921 121.994  0.00  0.00    +0.000 A 
ATOM      5  C   UNL     1      -6.454   3.732 120.901  0.00  0.00    +0.000 A 
ATOM      6  C   UNL     1      -7.782   3.950 120.539  0.00  0.00    +0.000 A 
ATOM      7  C   UNL     1      -8.814   3.369 121.274  0.00  0.00    +0.000 A 
ATOM      8  C   UNL     1      -8.522   2.576 122.391  0.00  0.00    +0.000 A 
ATOM      9  C   UNL     1      -9.624   1.906 123.168  0.00  0.00    +0.000 C 
ATOM     10  C   UNL     1      -9.654   0.412 122.862  0.00  0.00    +0.000 C 
ATOM     11  C   UNL     1      -8.518  -0.448 123.388  0.00  0.00    +0.000 A 
ATOM     12  C   UNL     1      -8.740  -1.839 123.321  0.00  0.00    +0.000 A 
ATOM     13  C   UNL     1      -7.778  -2.749 123.752  0.00  0.00    +0.000 A 
ATOM     14  C   UNL     1      -6.567  -2.288 124.249  0.00  0.00    +0.000 A 
ATOM     15  C   UNL     1      -6.319  -0.916 124.309  0.00  0.00    +0.000 A 
ATOM     16  C   UNL     1      -7.281   0.023 123.888  0.00  0.00    +0.000 A 
ENDROOT
BRANCH   1  17
ATOM     17  C   UNL     1      -5.976   3.454 125.202  0.00  0.00    +0.000 C 
BRANCH  17  18
ATOM     18  C   UNL     1      -4.523   3.636 125.654  0.00  0.00    +0.000 C 
BRANCH  18  20
ATOM     19  C   UNL     1      -2.963   3.201 127.432  0.00  0.00    +0.000 C 
ATOM     20  N   UNL     1      -4.359   3.139 127.025  0.00  0.00    +0.000 NA
ATOM     21  H   UNL     1      -4.924   3.700 127.662  0.00  0.00    +0.000 HD
ENDBRANCH  18  20
ENDBRANCH  17  18
ENDBRANCH   1  17
TORSDOF 3
ENDMDL
MODEL 4
REMARK VINA RESULT:      -7.1      7.100      9.381
REMARK  Name = Nortriptyline
REMARK  4 active torsions:
REMARK  status: ('A' for Active; 'I' for Inactive)
REMARK    1  A    between atoms: C_1  and  N_2
REMARK    2  A    between atoms: N_2  and  C_3
REMARK    3  A    between atoms: C_3  and  C_4
REMARK    4  A    between atoms: C_4  and  C_5
REMARK                            x       y       z     vdW  Elec       q    Type
REMARK                         _______ _______ _______ _____ _____    ______ ____
ROOT
ATOM      1  C   UNL     1      -8.739   6.984 130.923  0.00  0.00    +0.000 C 
ATOM      2  C   UNL     1      -7.949   6.028 131.462  0.00  0.00    +0.000 C 
ATOM      3  C   UNL     1      -8.536   4.707 131.781  0.00  0.00    +0.000 A 
ATOM      4  C   UNL     1      -8.932   3.821 130.772  0.00  0.00    +0.000 A 
ATOM      5  C   UNL     1      -9.464   2.576 131.103  0.00  0.00    +0.000 A 
ATOM      6  C   UNL     1      -9.573   2.197 132.439  0.00  0.00    +0.000 A 
ATOM      7  C   UNL     1      -9.163   3.066 133.449  0.00  0.00    +0.000 A 
ATOM      8  C   UNL     1      -8.655   4.330 133.127  0.00  0.00    +0.000 A 
ATOM      9  C   UNL     1      -8.168   5.261 134.206  0.00  0.00    +0.000 C 
ATOM     10  C   UNL     1      -6.643   5.310 134.213  0.00  0.00    +0.000 C 
ATOM     11  C   UNL     1      -5.944   6.000 133.053  0.00  0.00    +0.000 A 
ATOM     12  C   UNL     1      -4.573   6.261 133.251  0.00  0.00    +0.000 A 
ATOM     13  C   UNL     1      -3.802   6.873 132.267  0.00  0.00    +0.000 A 
ATOM     14  C   UNL     1      -4.383   7.227 131.057  0.00  0.00    +0.000 A 
ATOM     15  C   UNL     1      -5.734   6.963 130.833  0.00  0.00    +0.000 A 
ATOM     16  C   UNL     1      -6.537   6.355 131.819  0.00  0.00    +0.000 A 
ENDROOT
BRANCH   1  17
ATOM     17  C   UNL     1     -10.197   6.814 130.557  0.00  0.00    +0.000 C 
BRANCH  17  18
ATOM     18  C   UNL     1     -10.427   6.687 129.047  0.00  0.00    +0.000 C 
BRANCH  18  20
ATOM     19  C   UNL     1     -10.987   8.175 127.244  0.00  0.00    +0.000 C 
ATOM     20  N   UNL     1     -10.108   7.955 128.382  0.00  0.00    +0.000 NA
ATOM     21  H   UNL     1     -10.211   8.724 129.045  0.00  0.00    +0.000 HD
ENDBRANCH  18  20
ENDBRANCH  17  18
ENDBRANCH   1  17
TORSDOF 3
ENDMDL
MODEL 5
REMARK VINA RESULT:      -6.7      3.262      5.351
REMARK  Name = Nortriptyline
REMARK  4 active torsions:
REMARK  status: ('A' for Active; 'I' for Inactive)
REMARK    1  A    between atoms: C_1  and  N_2
REMARK    2  A    between atoms: N_2  and  C_3
REMARK    3  A    between atoms: C_3  and  C_4
REMARK    4  A    between atoms: C_4  and  C_5
REMARK                            x       y       z     vdW  Elec       q    Type
REMARK                         _______ _______ _______ _____ _____    ______ ____
ROOT
ATOM      1  C   UNL     1      -5.388   0.341 126.192  0.00  0.00    +0.000 C 
ATOM      2  C   UNL     1      -6.261  -0.128 125.273  0.00  0.00    +0.000 C 
ATOM      3  C   UNL     1      -7.287   0.788 124.723  0.00  0.00    +0.000 A 
ATOM      4  C   UNL     1      -6.942   1.842 123.869  0.00  0.00    +0.000 A 
ATOM      5  C   UNL     1      -7.931   2.676 123.351  0.00  0.00    +0.000 A 
ATOM      6  C   UNL     1      -9.270   2.444 123.659  0.00  0.00    +0.000 A 
ATOM      7  C   UNL     1      -9.623   1.385 124.495  0.00  0.00    +0.000 A 
ATOM      8  C   UNL     1      -8.634   0.560 125.042  0.00  0.00    +0.000 A 
ATOM      9  C   UNL     1      -9.005  -0.613 125.910  0.00  0.00    +0.000 C 
ATOM     10  C   UNL     1      -8.824  -1.918 125.140  0.00  0.00    +0.000 C 
ATOM     11  C   UNL     1      -7.409  -2.371 124.823  0.00  0.00    +0.000 A 
ATOM     12  C   UNL     1      -7.295  -3.702 124.370  0.00  0.00    +0.000 A 
ATOM     13  C   UNL     1      -6.061  -4.247 124.026  0.00  0.00    +0.000 A 
ATOM     14  C   UNL     1      -4.915  -3.470 124.116  0.00  0.00    +0.000 A 
ATOM     15  C   UNL     1      -5.006  -2.146 124.546  0.00  0.00    +0.000 A 
ATOM     16  C   UNL     1      -6.243  -1.576 124.910  0.00  0.00    +0.000 A 
ENDROOT
BRANCH   1  17
ATOM     17  C   UNL     1      -5.321   1.767 126.692  0.00  0.00    +0.000 C 
BRANCH  17  18
ATOM     18  C   UNL     1      -4.062   2.509 126.231  0.00  0.00    +0.000 C 
BRANCH  18  20
ATOM     19  C   UNL     1      -1.782   3.017 126.803  0.00  0.00    +0.000 C 
ATOM     20  N   UNL     1      -3.040   2.463 127.282  0.00  0.00    +0.000 NA
ATOM     21  H   UNL     1      -3.359   2.996 128.092  0.00  0.00    +0.000 HD
ENDBRANCH  18  20
ENDBRANCH  17  18
ENDBRANCH   1  17
TORSDOF 3
ENDMDL
MODEL 6
REMARK VINA RESULT:      -6.6      2.924      5.376
REMARK  Name = Nortriptyline
REMARK  4 active torsions:
REMARK  status: ('A' for Active; 'I' for Inactive)
REMARK    1  A    between atoms: C_1  and  N_2
REMARK    2  A    between atoms: N_2  and  C_3
REMARK    3  A    between atoms: C_3  and  C_4
REMARK    4  A    between atoms: C_4  and  C_5
REMARK                            x       y       z     vdW  Elec       q    Type
REMARK                         _______ _______ _______ _____ _____    ______ ____
ROOT
ATOM      1  C   UNL     1      -8.609   0.762 126.714  0.00  0.00    +0.000 C 
ATOM      2  C   UNL     1      -8.294   0.457 125.435  0.00  0.00    +0.000 C 
ATOM      3  C   UNL     1      -7.807   1.530 124.539  0.00  0.00    +0.000 A 
ATOM      4  C   UNL     1      -6.548   2.115 124.718  0.00  0.00    +0.000 A 
ATOM      5  C   UNL     1      -6.109   3.110 123.846  0.00  0.00    +0.000 A 
ATOM      6  C   UNL     1      -6.910   3.503 122.776  0.00  0.00    +0.000 A 
ATOM      7  C   UNL     1      -8.157   2.912 122.580  0.00  0.00    +0.000 A 
ATOM      8  C   UNL     1      -8.618   1.932 123.468  0.00  0.00    +0.000 A 
ATOM      9  C   UNL     1      -9.944   1.254 123.243  0.00  0.00    +0.000 C 
ATOM     10  C   UNL     1      -9.731  -0.166 122.726  0.00  0.00    +0.000 C 
ATOM     11  C   UNL     1      -9.163  -1.198 123.686  0.00  0.00    +0.000 A 
ATOM     12  C   UNL     1      -9.253  -2.535 123.248  0.00  0.00    +0.000 A 
ATOM     13  C   UNL     1      -8.759  -3.585 124.017  0.00  0.00    +0.000 A 
ATOM     14  C   UNL     1      -8.152  -3.320 125.236  0.00  0.00    +0.000 A 
ATOM     15  C   UNL     1      -8.037  -2.003 125.682  0.00  0.00    +0.000 A 
ATOM     16  C   UNL     1      -8.539  -0.925 124.926  0.00  0.00    +0.000 A 
ENDROOT
BRANCH   1  17
ATOM     17  C   UNL     1      -8.462   2.125 127.352  0.00  0.00    +0.000 C 
BRANCH  17  18
ATOM     18  C   UNL     1      -8.684   2.107 128.869  0.00  0.00    +0.000 C 
BRANCH  18  20
ATOM     19  C   UNL     1     -10.153   3.297 130.355  0.00  0.00    +0.000 C 
ATOM     20  N   UNL     1      -9.133   3.427 129.325  0.00  0.00    +0.000 NA
ATOM     21  H   UNL     1      -8.339   3.948 129.697  0.00  0.00    +0.000 HD
ENDBRANCH  18  20
ENDBRANCH  17  18
ENDBRANCH   1  17
TORSDOF 3
ENDMDL
MODEL 7
REMARK VINA RESULT:      -6.4      2.639      5.453
REMARK  Name = Nortriptyline
REMARK  4 active torsions:
REMARK  status: ('A' for Active; 'I' for Inactive)
REMARK    1  A    between atoms: C_1  and  N_2
REMARK    2  A    between atoms: N_2  and  C_3
REMARK    3  A    between atoms: C_3  and  C_4
REMARK    4  A    between atoms: C_4  and  C_5
REMARK                            x       y       z     vdW  Elec       q    Type
REMARK                         _______ _______ _______ _____ _____    ______ ____
ROOT
ATOM      1  C   UNL     1      -5.877   0.003 127.861  0.00  0.00    +0.000 C 
ATOM      2  C   UNL     1      -7.080  -0.502 128.213  0.00  0.00    +0.000 C 
ATOM      3  C   UNL     1      -7.718  -0.035 129.464  0.00  0.00    +0.000 A 
ATOM      4  C   UNL     1      -8.220   1.266 129.586  0.00  0.00    +0.000 A 
ATOM      5  C   UNL     1      -8.833   1.672 130.770  0.00  0.00    +0.000 A 
ATOM      6  C   UNL     1      -8.973   0.774 131.826  0.00  0.00    +0.000 A 
ATOM      7  C   UNL     1      -8.492  -0.529 131.706  0.00  0.00    +0.000 A 
ATOM      8  C   UNL     1      -7.850  -0.936 130.531  0.00  0.00    +0.000 A 
ATOM      9  C   UNL     1      -7.364  -2.353 130.372  0.00  0.00    +0.000 C 
ATOM     10  C   UNL     1      -8.282  -3.124 129.428  0.00  0.00    +0.000 C 
ATOM     11  C   UNL     1      -8.258  -2.760 127.953  0.00  0.00    +0.000 A 
ATOM     12  C   UNL     1      -8.903  -3.680 127.100  0.00  0.00    +0.000 A 
ATOM     13  C   UNL     1      -8.974  -3.468 125.726  0.00  0.00    +0.000 A 
ATOM     14  C   UNL     1      -8.412  -2.325 125.175  0.00  0.00    +0.000 A 
ATOM     15  C   UNL     1      -7.783  -1.394 126.002  0.00  0.00    +0.000 A 
ATOM     16  C   UNL     1      -7.690  -1.592 127.394  0.00  0.00    +0.000 A 
ENDROOT
BRANCH   1  17
ATOM     17  C   UNL     1      -5.118   1.070 128.617  0.00  0.00    +0.000 C 
BRANCH  17  18
ATOM     18  C   UNL     1      -4.818   2.311 127.769  0.00  0.00    +0.000 C 
BRANCH  18  20
ATOM     19  C   UNL     1      -2.785   3.011 126.693  0.00  0.00    +0.000 C 
ATOM     20  N   UNL     1      -3.819   1.988 126.744  0.00  0.00    +0.000 NA
ATOM     21  H   UNL     1      -3.394   1.085 126.954  0.00  0.00    +0.000 HD
ENDBRANCH  18  20
ENDBRANCH  17  18
ENDBRANCH   1  17
TORSDOF 3
ENDMDL
MODEL 8
REMARK VINA RESULT:      -6.3      3.174      5.586
REMARK  Name = Nortriptyline
REMARK  4 active torsions:
REMARK  status: ('A' for Active; 'I' for Inactive)
REMARK    1  A    between atoms: C_1  and  N_2
REMARK    2  A    between atoms: N_2  and  C_3
REMARK    3  A    between atoms: C_3  and  C_4
REMARK    4  A    between atoms: C_4  and  C_5
REMARK                            x       y       z     vdW  Elec       q    Type
REMARK                         _______ _______ _______ _____ _____    ______ ____
ROOT
ATOM      1  C   UNL     1      -5.564  -0.449 125.482  0.00  0.00    +0.000 C 
ATOM      2  C   UNL     1      -6.122   0.779 125.573  0.00  0.00    +0.000 C 
ATOM      3  C   UNL     1      -7.532   0.959 125.159  0.00  0.00    +0.000 A 
ATOM      4  C   UNL     1      -8.586   0.417 125.903  0.00  0.00    +0.000 A 
ATOM      5  C   UNL     1      -9.905   0.619 125.500  0.00  0.00    +0.000 A 
ATOM      6  C   UNL     1     -10.178   1.388 124.371  0.00  0.00    +0.000 A 
ATOM      7  C   UNL     1      -9.135   1.948 123.635  0.00  0.00    +0.000 A 
ATOM      8  C   UNL     1      -7.807   1.725 124.016  0.00  0.00    +0.000 A 
ATOM      9  C   UNL     1      -6.671   2.360 123.256  0.00  0.00    +0.000 C 
ATOM     10  C   UNL     1      -6.080   3.516 124.056  0.00  0.00    +0.000 C 
ATOM     11  C   UNL     1      -5.291   3.186 125.312  0.00  0.00    +0.000 A 
ATOM     12  C   UNL     1      -4.540   4.254 125.845  0.00  0.00    +0.000 A 
ATOM     13  C   UNL     1      -3.782   4.102 127.002  0.00  0.00    +0.000 A 
ATOM     14  C   UNL     1      -3.767   2.880 127.660  0.00  0.00    +0.000 A 
ATOM     15  C   UNL     1      -4.516   1.814 127.161  0.00  0.00    +0.000 A 
ATOM     16  C   UNL     1      -5.282   1.942 125.985  0.00  0.00    +0.000 A 
ENDROOT
BRANCH   1  17
ATOM     17  C   UNL     1      -6.275  -1.706 125.033  0.00  0.00    +0.000 C 
BRANCH  17  18
ATOM     18  C   UNL     1      -5.951  -2.097 123.587  0.00  0.00    +0.000 C 
BRANCH  18  20
ATOM     19  C   UNL     1      -8.319  -2.178 123.178  0.00  0.00    +0.000 C 
ATOM     20  N   UNL     1      -7.040  -1.677 122.698  0.00  0.00    +0.000 NA
ATOM     21  H   UNL     1      -7.070  -0.658 122.652  0.00  0.00    +0.000 HD
ENDBRANCH  18  20
ENDBRANCH  17  18
ENDBRANCH   1  17
TORSDOF 3
ENDMDL
MODEL 9
REMARK VINA RESULT:      -6.3      7.342      9.804
REMARK  Name = Nortriptyline
REMARK  4 active torsions:
REMARK  status: ('A' for Active; 'I' for Inactive)
REMARK    1  A    between atoms: C_1  and  N_2
REMARK    2  A    between atoms: N_2  and  C_3
REMARK    3  A    between atoms: C_3  and  C_4
REMARK    4  A    between atoms: C_4  and  C_5
REMARK                            x       y       z     vdW  Elec       q    Type
REMARK                         _______ _______ _______ _____ _____    ______ ____
ROOT
ATOM      1  C   UNL     1      -7.902   7.024 130.575  0.00  0.00    +0.000 C 
ATOM      2  C   UNL     1      -8.971   6.374 131.088  0.00  0.00    +0.000 C 
ATOM      3  C   UNL     1      -8.774   5.464 132.239  0.00  0.00    +0.000 A 
ATOM      4  C   UNL     1      -8.452   5.954 133.510  0.00  0.00    +0.000 A 
ATOM      5  C   UNL     1      -8.293   5.074 134.580  0.00  0.00    +0.000 A 
ATOM      6  C   UNL     1      -8.482   3.707 134.391  0.00  0.00    +0.000 A 
ATOM      7  C   UNL     1      -8.821   3.213 133.133  0.00  0.00    +0.000 A 
ATOM      8  C   UNL     1      -8.956   4.086 132.047  0.00  0.00    +0.000 A 
ATOM      9  C   UNL     1      -9.364   3.571 130.692  0.00  0.00    +0.000 C 
ATOM     10  C   UNL     1     -10.816   3.942 130.401  0.00  0.00    +0.000 C 
ATOM     11  C   UNL     1     -11.143   5.403 130.143  0.00  0.00    +0.000 A 
ATOM     12  C   UNL     1     -12.425   5.643 129.608  0.00  0.00    +0.000 A 
ATOM     13  C   UNL     1     -12.867   6.934 129.337  0.00  0.00    +0.000 A 
ATOM     14  C   UNL     1     -12.041   8.016 129.605  0.00  0.00    +0.000 A 
ATOM     15  C   UNL     1     -10.775   7.804 130.150  0.00  0.00    +0.000 A 
ATOM     16  C   UNL     1     -10.301   6.505 130.423  0.00  0.00    +0.000 A 
ENDROOT
BRANCH   1  17
ATOM     17  C   UNL     1      -6.490   6.948 131.110  0.00  0.00    +0.000 C 
BRANCH  17  18
ATOM     18  C   UNL     1      -5.644   5.866 130.428  0.00  0.00    +0.000 C 
BRANCH  18  20
ATOM     19  C   UNL     1      -5.537   3.487 130.761  0.00  0.00    +0.000 C 
ATOM     20  N   UNL     1      -5.345   4.790 131.380  0.00  0.00    +0.000 NA
ATOM     21  H   UNL     1      -4.381   4.876 131.701  0.00  0.00    +0.000 HD
ENDBRANCH  18  20
ENDBRANCH  17  18
ENDBRANCH   1  17
TORSDOF 3
ENDMDL
