MODEL 1
REMARK VINA RESULT:      -7.6      0.000      0.000
REMARK  Name = Noscapine
REMARK  8 active torsions:
REMARK  status: ('A' for Active; 'I' for Inactive)
REMARK    1  A    between atoms: C_2  and  C_16
REMARK    2  A    between atoms: C_10  and  O_11
REMARK    3  A    between atoms: O_11  and  C_12
REMARK    4  A    between atoms: C_13  and  O_14
REMARK    5  A    between atoms: O_14  and  C_15
REMARK    6  A    between atoms: N_18  and  C_19
REMARK    7  A    between atoms: C_29  and  O_30
REMARK    8  A    between atoms: O_30  and  C_31
REMARK                            x       y       z     vdW  Elec       q    Type
REMARK                         _______ _______ _______ _____ _____    ______ ____
ROOT
ATOM      1  C   UNL     1      -8.006   0.749 127.685  0.00  0.00    +0.000 C 
ATOM      2  N   UNL     1      -7.383   0.568 129.032  0.00  0.00    +0.000 NA
ATOM      3  C   UNL     1      -8.289   1.070 130.079  0.00  0.00    +0.000 C 
ATOM      4  C   UNL     1      -7.035  -0.827 129.330  0.00  0.00    +0.000 C 
ATOM      5  C   UNL     1      -6.256  -1.461 128.179  0.00  0.00    +0.000 C 
ATOM      6  C   UNL     1      -7.154  -1.522 126.972  0.00  0.00    +0.000 A 
ATOM      7  C   UNL     1      -7.066  -2.587 126.071  0.00  0.00    +0.000 A 
ATOM      8  C   UNL     1      -7.920  -2.572 124.996  0.00  0.00    +0.000 A 
ATOM      9  C   UNL     1      -8.874  -1.589 124.828  0.00  0.00    +0.000 A 
ATOM     10  O   UNL     1      -9.591  -1.789 123.680  0.00  0.00    +0.000 OA
ATOM     11  C   UNL     1      -9.041  -3.037 123.212  0.00  0.00    +0.000 C 
ATOM     12  O   UNL     1      -7.949  -3.517 124.017  0.00  0.00    +0.000 OA
ATOM     13  C   UNL     1      -9.051  -0.553 125.745  0.00  0.00    +0.000 A 
ATOM     14  C   UNL     1      -8.104  -0.475 126.787  0.00  0.00    +0.000 A 
ENDROOT
BRANCH   1  15
ATOM     15  C   UNL     1      -7.401   2.009 126.905  0.00  0.00    +0.000 C 
ATOM     16  O   UNL     1      -8.357   3.066 127.051  0.00  0.00    +0.000 OA
ATOM     17  C   UNL     1      -7.882   4.108 127.788  0.00  0.00    +0.000 C 
ATOM     18  O   UNL     1      -8.586   5.040 128.066  0.00  0.00    +0.000 OA
ATOM     19  C   UNL     1      -6.426   3.862 128.024  0.00  0.00    +0.000 A 
ATOM     20  C   UNL     1      -6.129   2.695 127.348  0.00  0.00    +0.000 A 
ATOM     21  C   UNL     1      -4.791   2.320 127.199  0.00  0.00    +0.000 A 
ATOM     22  C   UNL     1      -3.813   2.866 128.020  0.00  0.00    +0.000 A 
ATOM     23  C   UNL     1      -4.092   4.034 128.713  0.00  0.00    +0.000 A 
ATOM     24  C   UNL     1      -5.403   4.588 128.667  0.00  0.00    +0.000 A 
BRANCH  23  25
ATOM     25  O   UNL     1      -2.960   4.537 129.315  0.00  0.00    +0.000 OA
ATOM     26  C   UNL     1      -2.303   5.599 128.644  0.00  0.00    +0.000 C 
ENDBRANCH  23  25
BRANCH  24  27
ATOM     27  O   UNL     1      -5.524   5.808 129.259  0.00  0.00    +0.000 OA
ATOM     28  C   UNL     1      -5.962   5.872 130.591  0.00  0.00    +0.000 C 
ENDBRANCH  24  27
ENDBRANCH   1  15
BRANCH  13  29
ATOM     29  O   UNL     1     -10.112   0.283 125.512  0.00  0.00    +0.000 OA
ATOM     30  C   UNL     1     -10.095   1.329 124.540  0.00  0.00    +0.000 C 
ENDBRANCH  13  29
TORSDOF 4
ENDMDL
MODEL 2
REMARK VINA RESULT:      -7.5      4.852      8.117
REMARK  Name = Noscapine
REMARK  8 active torsions:
REMARK  status: ('A' for Active; 'I' for Inactive)
REMARK    1  A    between atoms: C_2  and  C_16
REMARK    2  A    between atoms: C_10  and  O_11
REMARK    3  A    between atoms: O_11  and  C_12
REMARK    4  A    between atoms: C_13  and  O_14
REMARK    5  A    between atoms: O_14  and  C_15
REMARK    6  A    between atoms: N_18  and  C_19
REMARK    7  A    between atoms: C_29  and  O_30
REMARK    8  A    between atoms: O_30  and  C_31
REMARK                            x       y       z     vdW  Elec       q    Type
REMARK                         _______ _______ _______ _____ _____    ______ ____
ROOT
ATOM      1  C   UNL     1      -6.127  -2.080 131.177  0.00  0.00    +0.000 C 
ATOM      2  N   UNL     1      -5.246  -2.725 130.154  0.00  0.00    +0.000 NA
ATOM      3  C   UNL     1      -4.256  -1.755 129.657  0.00  0.00    +0.000 C 
ATOM      4  C   UNL     1      -4.544  -3.912 130.656  0.00  0.00    +0.000 C 
ATOM      5  C   UNL     1      -5.505  -4.867 131.361  0.00  0.00    +0.000 C 
ATOM      6  C   UNL     1      -6.050  -4.179 132.584  0.00  0.00    +0.000 A 
ATOM      7  C   UNL     1      -6.330  -4.905 133.745  0.00  0.00    +0.000 A 
ATOM      8  C   UNL     1      -6.824  -4.205 134.819  0.00  0.00    +0.000 A 
ATOM      9  C   UNL     1      -6.985  -2.834 134.793  0.00  0.00    +0.000 A 
ATOM     10  O   UNL     1      -7.500  -2.376 135.974  0.00  0.00    +0.000 OA
ATOM     11  C   UNL     1      -7.553  -3.588 136.753  0.00  0.00    +0.000 C 
ATOM     12  O   UNL     1      -7.169  -4.761 136.012  0.00  0.00    +0.000 OA
ATOM     13  C   UNL     1      -6.642  -2.061 133.684  0.00  0.00    +0.000 A 
ATOM     14  C   UNL     1      -6.255  -2.769 132.527  0.00  0.00    +0.000 A 
ENDROOT
BRANCH   1  15
ATOM     15  C   UNL     1      -7.556  -1.681 130.576  0.00  0.00    +0.000 C 
ATOM     16  O   UNL     1      -7.494  -0.278 130.295  0.00  0.00    +0.000 OA
ATOM     17  C   UNL     1      -7.576  -0.003 128.964  0.00  0.00    +0.000 C 
ATOM     18  O   UNL     1      -7.464   1.121 128.558  0.00  0.00    +0.000 OA
ATOM     19  C   UNL     1      -7.909  -1.281 128.263  0.00  0.00    +0.000 A 
ATOM     20  C   UNL     1      -8.056  -2.226 129.258  0.00  0.00    +0.000 A 
ATOM     21  C   UNL     1      -8.585  -3.479 128.931  0.00  0.00    +0.000 A 
ATOM     22  C   UNL     1      -8.599  -3.910 127.611  0.00  0.00    +0.000 A 
ATOM     23  C   UNL     1      -8.446  -2.979 126.596  0.00  0.00    +0.000 A 
ATOM     24  C   UNL     1      -8.162  -1.622 126.919  0.00  0.00    +0.000 A 
BRANCH  23  25
ATOM     25  O   UNL     1      -8.681  -3.544 125.363  0.00  0.00    +0.000 OA
ATOM     26  C   UNL     1      -7.548  -3.774 124.543  0.00  0.00    +0.000 C 
ENDBRANCH  23  25
BRANCH  24  27
ATOM     27  O   UNL     1      -8.180  -0.771 125.856  0.00  0.00    +0.000 OA
ATOM     28  C   UNL     1      -9.340  -0.019 125.614  0.00  0.00    +0.000 C 
ENDBRANCH  24  27
ENDBRANCH   1  15
BRANCH  13  29
ATOM     29  O   UNL     1      -6.745  -0.703 133.841  0.00  0.00    +0.000 OA
ATOM     30  C   UNL     1      -5.649   0.134 134.211  0.00  0.00    +0.000 C 
ENDBRANCH  13  29
TORSDOF 4
ENDMDL
MODEL 3
REMARK VINA RESULT:      -7.2      3.513      5.116
REMARK  Name = Noscapine
REMARK  8 active torsions:
REMARK  status: ('A' for Active; 'I' for Inactive)
REMARK    1  A    between atoms: C_2  and  C_16
REMARK    2  A    between atoms: C_10  and  O_11
REMARK    3  A    between atoms: O_11  and  C_12
REMARK    4  A    between atoms: C_13  and  O_14
REMARK    5  A    between atoms: O_14  and  C_15
REMARK    6  A    between atoms: N_18  and  C_19
REMARK    7  A    between atoms: C_29  and  O_30
REMARK    8  A    between atoms: O_30  and  C_31
REMARK                            x       y       z     vdW  Elec       q    Type
REMARK                         _______ _______ _______ _____ _____    ______ ____
ROOT
ATOM      1  C   UNL     1      -7.127  -1.284 128.400  0.00  0.00    +0.000 C 
ATOM      2  N   UNL     1      -7.644  -1.970 129.624  0.00  0.00    +0.000 NA
ATOM      3  C   UNL     1      -8.120  -0.974 130.598  0.00  0.00    +0.000 C 
ATOM      4  C   UNL     1      -8.727  -2.922 129.345  0.00  0.00    +0.000 C 
ATOM      5  C   UNL     1      -8.356  -3.860 128.198  0.00  0.00    +0.000 C 
ATOM      6  C   UNL     1      -8.209  -3.043 126.942  0.00  0.00    +0.000 A 
ATOM      7  C   UNL     1      -8.579  -3.571 125.701  0.00  0.00    +0.000 A 
ATOM      8  C   UNL     1      -8.415  -2.764 124.602  0.00  0.00    +0.000 A 
ATOM      9  C   UNL     1      -7.965  -1.463 124.705  0.00  0.00    +0.000 A 
ATOM     10  O   UNL     1      -7.877  -0.873 123.475  0.00  0.00    +0.000 OA
ATOM     11  C   UNL     1      -8.403  -1.909 122.621  0.00  0.00    +0.000 C 
ATOM     12  O   UNL     1      -8.702  -3.129 123.323  0.00  0.00    +0.000 OA
ATOM     13  C   UNL     1      -7.662  -0.870 125.931  0.00  0.00    +0.000 A 
ATOM     14  C   UNL     1      -7.699  -1.717 127.058  0.00  0.00    +0.000 A 
ENDROOT
BRANCH   1  15
ATOM     15  C   UNL     1      -5.528  -1.226 128.371  0.00  0.00    +0.000 C 
ATOM     16  O   UNL     1      -5.169   0.105 128.763  0.00  0.00    +0.000 OA
ATOM     17  C   UNL     1      -4.508   0.143 129.952  0.00  0.00    +0.000 C 
ATOM     18  O   UNL     1      -4.205   1.190 130.456  0.00  0.00    +0.000 OA
ATOM     19  C   UNL     1      -4.207  -1.268 130.344  0.00  0.00    +0.000 A 
ATOM     20  C   UNL     1      -4.675  -2.051 129.307  0.00  0.00    +0.000 A 
ATOM     21  C   UNL     1      -4.343  -3.409 129.280  0.00  0.00    +0.000 A 
ATOM     22  C   UNL     1      -3.899  -4.046 130.431  0.00  0.00    +0.000 A 
ATOM     23  C   UNL     1      -3.431  -3.278 131.487  0.00  0.00    +0.000 A 
ATOM     24  C   UNL     1      -3.521  -1.859 131.423  0.00  0.00    +0.000 A 
BRANCH  23  25
ATOM     25  O   UNL     1      -2.853  -4.067 132.457  0.00  0.00    +0.000 OA
ATOM     26  C   UNL     1      -3.735  -4.704 133.366  0.00  0.00    +0.000 C 
ENDBRANCH  23  25
BRANCH  24  27
ATOM     27  O   UNL     1      -2.899  -1.206 132.444  0.00  0.00    +0.000 OA
ATOM     28  C   UNL     1      -3.671  -0.753 133.525  0.00  0.00    +0.000 C 
ENDBRANCH  24  27
ENDBRANCH   1  15
BRANCH  13  29
ATOM     29  O   UNL     1      -7.340   0.462 125.893  0.00  0.00    +0.000 OA
ATOM     30  C   UNL     1      -8.281   1.509 126.126  0.00  0.00    +0.000 C 
ENDBRANCH  13  29
TORSDOF 4
ENDMDL
MODEL 4
REMARK VINA RESULT:      -7.2      4.615      6.848
REMARK  Name = Noscapine
REMARK  8 active torsions:
REMARK  status: ('A' for Active; 'I' for Inactive)
REMARK    1  A    between atoms: C_2  and  C_16
REMARK    2  A    between atoms: C_10  and  O_11
REMARK    3  A    between atoms: O_11  and  C_12
REMARK    4  A    between atoms: C_13  and  O_14
REMARK    5  A    between atoms: O_14  and  C_15
REMARK    6  A    between atoms: N_18  and  C_19
REMARK    7  A    between atoms: C_29  and  O_30
REMARK    8  A    between atoms: O_30  and  C_31
REMARK                            x       y       z     vdW  Elec       q    Type
REMARK                         _______ _______ _______ _____ _____    ______ ____
ROOT
ATOM      1  C   UNL     1      -6.258  -2.179 129.007  0.00  0.00    +0.000 C 
ATOM      2  N   UNL     1      -7.079  -2.105 130.255  0.00  0.00    +0.000 NA
ATOM      3  C   UNL     1      -6.751  -0.879 131.003  0.00  0.00    +0.000 C 
ATOM      4  C   UNL     1      -8.525  -2.140 130.003  0.00  0.00    +0.000 C 
ATOM      5  C   UNL     1      -8.895  -3.287 129.065  0.00  0.00    +0.000 C 
ATOM      6  C   UNL     1      -8.262  -3.030 127.723  0.00  0.00    +0.000 A 
ATOM      7  C   UNL     1      -8.911  -3.409 126.545  0.00  0.00    +0.000 A 
ATOM      8  C   UNL     1      -8.270  -3.139 125.361  0.00  0.00    +0.000 A 
ATOM      9  C   UNL     1      -7.065  -2.467 125.313  0.00  0.00    +0.000 A 
ATOM     10  O   UNL     1      -6.628  -2.330 124.025  0.00  0.00    +0.000 OA
ATOM     11  C   UNL     1      -7.726  -2.904 123.287  0.00  0.00    +0.000 C 
ATOM     12  O   UNL     1      -8.751  -3.461 124.129  0.00  0.00    +0.000 OA
ATOM     13  C   UNL     1      -6.423  -1.999 126.460  0.00  0.00    +0.000 A 
ATOM     14  C   UNL     1      -6.996  -2.376 127.692  0.00  0.00    +0.000 A 
ENDROOT
BRANCH   1  15
ATOM     15  C   UNL     1      -5.028  -3.194 129.155  0.00  0.00    +0.000 C 
ATOM     16  O   UNL     1      -3.848  -2.384 129.223  0.00  0.00    +0.000 OA
ATOM     17  C   UNL     1      -3.224  -2.464 130.430  0.00  0.00    +0.000 C 
ATOM     18  O   UNL     1      -2.262  -1.787 130.674  0.00  0.00    +0.000 OA
ATOM     19  C   UNL     1      -3.896  -3.548 131.211  0.00  0.00    +0.000 A 
ATOM     20  C   UNL     1      -4.854  -4.077 130.368  0.00  0.00    +0.000 A 
ATOM     21  C   UNL     1      -5.504  -5.258 130.739  0.00  0.00    +0.000 A 
ATOM     22  C   UNL     1      -5.491  -5.682 132.061  0.00  0.00    +0.000 A 
ATOM     23  C   UNL     1      -4.542  -5.158 132.926  0.00  0.00    +0.000 A 
ATOM     24  C   UNL     1      -3.678  -4.117 132.482  0.00  0.00    +0.000 A 
BRANCH  23  25
ATOM     25  O   UNL     1      -4.545  -5.826 134.130  0.00  0.00    +0.000 OA
ATOM     26  C   UNL     1      -5.737  -5.753 134.893  0.00  0.00    +0.000 C 
ENDBRANCH  23  25
BRANCH  24  27
ATOM     27  O   UNL     1      -2.693  -3.785 133.361  0.00  0.00    +0.000 OA
ATOM     28  C   UNL     1      -2.873  -2.662 134.184  0.00  0.00    +0.000 C 
ENDBRANCH  24  27
ENDBRANCH   1  15
BRANCH  13  29
ATOM     29  O   UNL     1      -5.295  -1.247 126.254  0.00  0.00    +0.000 OA
ATOM     30  C   UNL     1      -5.297   0.179 126.190  0.00  0.00    +0.000 C 
ENDBRANCH  13  29
TORSDOF 4
ENDMDL
MODEL 5
REMARK VINA RESULT:      -7.1      1.938      7.240
REMARK  Name = Noscapine
REMARK  8 active torsions:
REMARK  status: ('A' for Active; 'I' for Inactive)
REMARK    1  A    between atoms: C_2  and  C_16
REMARK    2  A    between atoms: C_10  and  O_11
REMARK    3  A    between atoms: O_11  and  C_12
REMARK    4  A    between atoms: C_13  and  O_14
REMARK    5  A    between atoms: O_14  and  C_15
REMARK    6  A    between atoms: N_18  and  C_19
REMARK    7  A    between atoms: C_29  and  O_30
REMARK    8  A    between atoms: O_30  and  C_31
REMARK                            x       y       z     vdW  Elec       q    Type
REMARK                         _______ _______ _______ _____ _____    ______ ____
ROOT
ATOM      1  C   UNL     1      -7.153   2.927 126.849  0.00  0.00    +0.000 C 
ATOM      2  N   UNL     1      -6.896   3.156 125.393  0.00  0.00    +0.000 NA
ATOM      3  C   UNL     1      -8.061   3.808 124.771  0.00  0.00    +0.000 C 
ATOM      4  C   UNL     1      -5.699   3.965 125.134  0.00  0.00    +0.000 C 
ATOM      5  C   UNL     1      -4.497   3.442 125.918  0.00  0.00    +0.000 C 
ATOM      6  C   UNL     1      -4.778   3.606 127.388  0.00  0.00    +0.000 A 
ATOM      7  C   UNL     1      -3.747   3.910 128.281  0.00  0.00    +0.000 A 
ATOM      8  C   UNL     1      -4.084   4.044 129.606  0.00  0.00    +0.000 A 
ATOM      9  C   UNL     1      -5.389   3.948 130.047  0.00  0.00    +0.000 A 
ATOM     10  O   UNL     1      -5.463   4.108 131.403  0.00  0.00    +0.000 OA
ATOM     11  C   UNL     1      -4.091   4.399 131.734  0.00  0.00    +0.000 C 
ATOM     12  O   UNL     1      -3.201   4.315 130.606  0.00  0.00    +0.000 OA
ATOM     13  C   UNL     1      -6.458   3.727 129.179  0.00  0.00    +0.000 A 
ATOM     14  C   UNL     1      -6.124   3.458 127.835  0.00  0.00    +0.000 A 
ENDROOT
BRANCH   1  15
ATOM     15  C   UNL     1      -7.544   1.407 127.161  0.00  0.00    +0.000 C 
ATOM     16  O   UNL     1      -8.954   1.300 126.930  0.00  0.00    +0.000 OA
ATOM     17  C   UNL     1      -9.256   0.489 125.880  0.00  0.00    +0.000 C 
ATOM     18  O   UNL     1     -10.390   0.354 125.510  0.00  0.00    +0.000 OA
ATOM     19  C   UNL     1      -7.989  -0.180 125.451  0.00  0.00    +0.000 A 
ATOM     20  C   UNL     1      -7.020   0.255 126.334  0.00  0.00    +0.000 A 
ATOM     21  C   UNL     1      -5.767  -0.366 126.325  0.00  0.00    +0.000 A 
ATOM     22  C   UNL     1      -5.364  -1.116 125.228  0.00  0.00    +0.000 A 
ATOM     23  C   UNL     1      -6.319  -1.557 124.326  0.00  0.00    +0.000 A 
ATOM     24  C   UNL     1      -7.673  -1.140 124.470  0.00  0.00    +0.000 A 
BRANCH  23  25
ATOM     25  O   UNL     1      -5.777  -2.441 123.420  0.00  0.00    +0.000 OA
ATOM     26  C   UNL     1      -5.215  -3.629 123.951  0.00  0.00    +0.000 C 
ENDBRANCH  23  25
BRANCH  24  27
ATOM     27  O   UNL     1      -8.546  -1.750 123.622  0.00  0.00    +0.000 OA
ATOM     28  C   UNL     1      -9.170  -2.938 124.034  0.00  0.00    +0.000 C 
ENDBRANCH  24  27
ENDBRANCH   1  15
BRANCH  13  29
ATOM     29  O   UNL     1      -7.708   3.772 129.739  0.00  0.00    +0.000 OA
ATOM     30  C   UNL     1      -8.549   4.925 129.702  0.00  0.00    +0.000 C 
ENDBRANCH  13  29
TORSDOF 4
ENDMDL
MODEL 6
REMARK VINA RESULT:      -7.1      3.854      6.339
REMARK  Name = Noscapine
REMARK  8 active torsions:
REMARK  status: ('A' for Active; 'I' for Inactive)
REMARK    1  A    between atoms: C_2  and  C_16
REMARK    2  A    between atoms: C_10  and  O_11
REMARK    3  A    between atoms: O_11  and  C_12
REMARK    4  A    between atoms: C_13  and  O_14
REMARK    5  A    between atoms: O_14  and  C_15
REMARK    6  A    between atoms: N_18  and  C_19
REMARK    7  A    between atoms: C_29  and  O_30
REMARK    8  A    between atoms: O_30  and  C_31
REMARK                            x       y       z     vdW  Elec       q    Type
REMARK                         _______ _______ _______ _____ _____    ______ ____
ROOT
ATOM      1  C   UNL     1      -5.819  -0.773 127.920  0.00  0.00    +0.000 C 
ATOM      2  N   UNL     1      -5.774   0.121 129.118  0.00  0.00    +0.000 NA
ATOM      3  C   UNL     1      -4.399   0.596 129.342  0.00  0.00    +0.000 C 
ATOM      4  C   UNL     1      -6.670   1.279 129.015  0.00  0.00    +0.000 C 
ATOM      5  C   UNL     1      -8.075   0.855 128.589  0.00  0.00    +0.000 C 
ATOM      6  C   UNL     1      -8.000   0.283 127.198  0.00  0.00    +0.000 A 
ATOM      7  C   UNL     1      -9.050   0.468 126.294  0.00  0.00    +0.000 A 
ATOM      8  C   UNL     1      -8.906  -0.084 125.045  0.00  0.00    +0.000 A 
ATOM      9  C   UNL     1      -7.755  -0.743 124.659  0.00  0.00    +0.000 A 
ATOM     10  O   UNL     1      -7.860  -1.208 123.378  0.00  0.00    +0.000 OA
ATOM     11  C   UNL     1      -9.150  -0.692 122.989  0.00  0.00    +0.000 C 
ATOM     12  O   UNL     1      -9.840  -0.017 124.057  0.00  0.00    +0.000 OA
ATOM     13  C   UNL     1      -6.653  -0.879 125.502  0.00  0.00    +0.000 A 
ATOM     14  C   UNL     1      -6.825  -0.435 126.830  0.00  0.00    +0.000 A 
ENDROOT
BRANCH   1  15
ATOM     15  C   UNL     1      -5.880  -2.321 128.324  0.00  0.00    +0.000 C 
ATOM     16  O   UNL     1      -4.538  -2.812 128.230  0.00  0.00    +0.000 OA
ATOM     17  C   UNL     1      -4.026  -3.180 129.436  0.00  0.00    +0.000 C 
ATOM     18  O   UNL     1      -2.886  -3.543 129.538  0.00  0.00    +0.000 OA
ATOM     19  C   UNL     1      -5.141  -3.127 130.431  0.00  0.00    +0.000 A 
ATOM     20  C   UNL     1      -6.267  -2.776 129.712  0.00  0.00    +0.000 A 
ATOM     21  C   UNL     1      -7.519  -2.858 130.330  0.00  0.00    +0.000 A 
ATOM     22  C   UNL     1      -7.616  -2.906 131.714  0.00  0.00    +0.000 A 
ATOM     23  C   UNL     1      -6.496  -3.250 132.456  0.00  0.00    +0.000 A 
ATOM     24  C   UNL     1      -5.244  -3.432 131.803  0.00  0.00    +0.000 A 
BRANCH  23  25
ATOM     25  O   UNL     1      -6.817  -3.441 133.781  0.00  0.00    +0.000 OA
ATOM     26  C   UNL     1      -8.194  -3.580 134.087  0.00  0.00    +0.000 C 
ENDBRANCH  23  25
BRANCH  24  27
ATOM     27  O   UNL     1      -4.252  -3.911 132.603  0.00  0.00    +0.000 OA
ATOM     28  C   UNL     1      -3.390  -2.997 133.230  0.00  0.00    +0.000 C 
ENDBRANCH  24  27
ENDBRANCH   1  15
BRANCH  13  29
ATOM     29  O   UNL     1      -5.537  -1.452 124.947  0.00  0.00    +0.000 OA
ATOM     30  C   UNL     1      -5.416  -2.849 124.682  0.00  0.00    +0.000 C 
ENDBRANCH  13  29
TORSDOF 4
ENDMDL
MODEL 7
REMARK VINA RESULT:      -7.1      4.701      8.166
REMARK  Name = Noscapine
REMARK  8 active torsions:
REMARK  status: ('A' for Active; 'I' for Inactive)
REMARK    1  A    between atoms: C_2  and  C_16
REMARK    2  A    between atoms: C_10  and  O_11
REMARK    3  A    between atoms: O_11  and  C_12
REMARK    4  A    between atoms: C_13  and  O_14
REMARK    5  A    between atoms: O_14  and  C_15
REMARK    6  A    between atoms: N_18  and  C_19
REMARK    7  A    between atoms: C_29  and  O_30
REMARK    8  A    between atoms: O_30  and  C_31
REMARK                            x       y       z     vdW  Elec       q    Type
REMARK                         _______ _______ _______ _____ _____    ______ ____
ROOT
ATOM      1  C   UNL     1      -6.562   3.812 131.451  0.00  0.00    +0.000 C 
ATOM      2  N   UNL     1      -5.191   4.407 131.471  0.00  0.00    +0.000 NA
ATOM      3  C   UNL     1      -4.254   3.541 130.735  0.00  0.00    +0.000 C 
ATOM      4  C   UNL     1      -5.135   5.761 130.905  0.00  0.00    +0.000 C 
ATOM      5  C   UNL     1      -6.225   6.653 131.498  0.00  0.00    +0.000 C 
ATOM      6  C   UNL     1      -7.566   6.104 131.089  0.00  0.00    +0.000 A 
ATOM      7  C   UNL     1      -8.638   6.962 130.831  0.00  0.00    +0.000 A 
ATOM      8  C   UNL     1      -9.829   6.385 130.462  0.00  0.00    +0.000 A 
ATOM      9  C   UNL     1      -9.963   5.022 130.288  0.00  0.00    +0.000 A 
ATOM     10  O   UNL     1     -11.242   4.694 129.932  0.00  0.00    +0.000 OA
ATOM     11  C   UNL     1     -11.851   5.996 129.818  0.00  0.00    +0.000 C 
ATOM     12  O   UNL     1     -10.974   7.072 130.198  0.00  0.00    +0.000 OA
ATOM     13  C   UNL     1      -8.898   4.137 130.456  0.00  0.00    +0.000 A 
ATOM     14  C   UNL     1      -7.702   4.691 130.958  0.00  0.00    +0.000 A 
ENDROOT
BRANCH   1  15
ATOM     15  C   UNL     1      -6.926   3.089 132.832  0.00  0.00    +0.000 C 
ATOM     16  O   UNL     1      -5.829   2.216 133.128  0.00  0.00    +0.000 OA
ATOM     17  C   UNL     1      -5.146   2.587 134.244  0.00  0.00    +0.000 C 
ATOM     18  O   UNL     1      -4.154   2.002 134.584  0.00  0.00    +0.000 OA
ATOM     19  C   UNL     1      -5.919   3.688 134.897  0.00  0.00    +0.000 A 
ATOM     20  C   UNL     1      -7.056   3.852 134.131  0.00  0.00    +0.000 A 
ATOM     21  C   UNL     1      -8.086   4.665 134.612  0.00  0.00    +0.000 A 
ATOM     22  C   UNL     1      -7.840   5.585 135.622  0.00  0.00    +0.000 A 
ATOM     23  C   UNL     1      -6.701   5.444 136.400  0.00  0.00    +0.000 A 
ATOM     24  C   UNL     1      -5.748   4.435 136.080  0.00  0.00    +0.000 A 
BRANCH  23  25
ATOM     25  O   UNL     1      -6.716   6.314 137.467  0.00  0.00    +0.000 OA
ATOM     26  C   UNL     1      -7.988   6.646 137.997  0.00  0.00    +0.000 C 
ENDBRANCH  23  25
BRANCH  24  27
ATOM     27  O   UNL     1      -4.749   4.290 136.993  0.00  0.00    +0.000 OA
ATOM     28  C   UNL     1      -4.866   3.286 137.967  0.00  0.00    +0.000 C 
ENDBRANCH  24  27
ENDBRANCH   1  15
BRANCH  13  29
ATOM     29  O   UNL     1      -9.146   2.827 130.136  0.00  0.00    +0.000 OA
ATOM     30  C   UNL     1      -8.726   2.220 128.915  0.00  0.00    +0.000 C 
ENDBRANCH  13  29
TORSDOF 4
ENDMDL
MODEL 8
REMARK VINA RESULT:      -6.9      3.181      4.893
REMARK  Name = Noscapine
REMARK  8 active torsions:
REMARK  status: ('A' for Active; 'I' for Inactive)
REMARK    1  A    between atoms: C_2  and  C_16
REMARK    2  A    between atoms: C_10  and  O_11
REMARK    3  A    between atoms: O_11  and  C_12
REMARK    4  A    between atoms: C_13  and  O_14
REMARK    5  A    between atoms: O_14  and  C_15
REMARK    6  A    between atoms: N_18  and  C_19
REMARK    7  A    between atoms: C_29  and  O_30
REMARK    8  A    between atoms: O_30  and  C_31
REMARK                            x       y       z     vdW  Elec       q    Type
REMARK                         _______ _______ _______ _____ _____    ______ ____
ROOT
ATOM      1  C   UNL     1      -7.130   0.625 129.327  0.00  0.00    +0.000 C 
ATOM      2  N   UNL     1      -6.552   2.001 129.228  0.00  0.00    +0.000 NA
ATOM      3  C   UNL     1      -5.226   2.039 129.867  0.00  0.00    +0.000 C 
ATOM      4  C   UNL     1      -6.432   2.484 127.847  0.00  0.00    +0.000 C 
ATOM      5  C   UNL     1      -7.736   2.285 127.076  0.00  0.00    +0.000 C 
ATOM      6  C   UNL     1      -8.000   0.807 126.961  0.00  0.00    +0.000 A 
ATOM      7  C   UNL     1      -8.610   0.279 125.819  0.00  0.00    +0.000 A 
ATOM      8  C   UNL     1      -8.817  -1.078 125.789  0.00  0.00    +0.000 A 
ATOM      9  C   UNL     1      -8.391  -1.910 126.805  0.00  0.00    +0.000 A 
ATOM     10  O   UNL     1      -8.721  -3.212 126.547  0.00  0.00    +0.000 OA
ATOM     11  C   UNL     1      -9.310  -3.104 125.235  0.00  0.00    +0.000 C 
ATOM     12  O   UNL     1      -9.417  -1.748 124.767  0.00  0.00    +0.000 OA
ATOM     13  C   UNL     1      -7.706  -1.436 127.923  0.00  0.00    +0.000 A 
ATOM     14  C   UNL     1      -7.596  -0.034 128.038  0.00  0.00    +0.000 A 
ENDROOT
BRANCH   1  15
ATOM     15  C   UNL     1      -8.233   0.517 130.482  0.00  0.00    +0.000 C 
ATOM     16  O   UNL     1      -7.569  -0.050 131.618  0.00  0.00    +0.000 OA
ATOM     17  C   UNL     1      -7.488   0.816 132.665  0.00  0.00    +0.000 C 
ATOM     18  O   UNL     1      -6.894   0.519 133.666  0.00  0.00    +0.000 OA
ATOM     19  C   UNL     1      -8.316   2.013 132.323  0.00  0.00    +0.000 A 
ATOM     20  C   UNL     1      -8.881   1.737 131.094  0.00  0.00    +0.000 A 
ATOM     21  C   UNL     1      -9.885   2.579 130.606  0.00  0.00    +0.000 A 
ATOM     22  C   UNL     1     -10.045   3.856 131.128  0.00  0.00    +0.000 A 
ATOM     23  C   UNL     1      -9.480   4.156 132.357  0.00  0.00    +0.000 A 
ATOM     24  C   UNL     1      -8.651   3.198 133.007  0.00  0.00    +0.000 A 
BRANCH  23  25
ATOM     25  O   UNL     1      -9.899   5.388 132.809  0.00  0.00    +0.000 OA
ATOM     26  C   UNL     1     -10.363   6.300 131.829  0.00  0.00    +0.000 C 
ENDBRANCH  23  25
BRANCH  24  27
ATOM     27  O   UNL     1      -8.274   3.540 134.270  0.00  0.00    +0.000 OA
ATOM     28  C   UNL     1      -6.991   4.073 134.470  0.00  0.00    +0.000 C 
ENDBRANCH  24  27
ENDBRANCH   1  15
BRANCH  13  29
ATOM     29  O   UNL     1      -7.240  -2.388 128.793  0.00  0.00    +0.000 OA
ATOM     30  C   UNL     1      -8.063  -3.052 129.751  0.00  0.00    +0.000 C 
ENDBRANCH  13  29
TORSDOF 4
ENDMDL
MODEL 9
REMARK VINA RESULT:      -6.9      4.310      7.873
REMARK  Name = Noscapine
REMARK  8 active torsions:
REMARK  status: ('A' for Active; 'I' for Inactive)
REMARK    1  A    between atoms: C_2  and  C_16
REMARK    2  A    between atoms: C_10  and  O_11
REMARK    3  A    between atoms: O_11  and  C_12
REMARK    4  A    between atoms: C_13  and  O_14
REMARK    5  A    between atoms: O_14  and  C_15
REMARK    6  A    between atoms: N_18  and  C_19
REMARK    7  A    between atoms: C_29  and  O_30
REMARK    8  A    between atoms: O_30  and  C_31
REMARK                            x       y       z     vdW  Elec       q    Type
REMARK                         _______ _______ _______ _____ _____    ______ ____
ROOT
ATOM      1  C   UNL     1      -6.428  -1.635 130.349  0.00  0.00    +0.000 C 
ATOM      2  N   UNL     1      -6.558  -0.238 129.830  0.00  0.00    +0.000 NA
ATOM      3  C   UNL     1      -7.948   0.226 129.970  0.00  0.00    +0.000 C 
ATOM      4  C   UNL     1      -5.664   0.717 130.498  0.00  0.00    +0.000 C 
ATOM      5  C   UNL     1      -4.232   0.189 130.554  0.00  0.00    +0.000 C 
ATOM      6  C   UNL     1      -4.212  -1.047 131.415  0.00  0.00    +0.000 A 
ATOM      7  C   UNL     1      -3.107  -1.336 132.220  0.00  0.00    +0.000 A 
ATOM      8  C   UNL     1      -3.165  -2.481 132.977  0.00  0.00    +0.000 A 
ATOM      9  C   UNL     1      -4.283  -3.290 133.002  0.00  0.00    +0.000 A 
ATOM     10  O   UNL     1      -4.092  -4.369 133.820  0.00  0.00    +0.000 OA
ATOM     11  C   UNL     1      -2.784  -4.092 134.360  0.00  0.00    +0.000 C 
ATOM     12  O   UNL     1      -2.169  -2.920 133.794  0.00  0.00    +0.000 OA
ATOM     13  C   UNL     1      -5.438  -2.995 132.278  0.00  0.00    +0.000 A 
ATOM     14  C   UNL     1      -5.356  -1.898 131.396  0.00  0.00    +0.000 A 
ENDROOT
BRANCH   1  15
ATOM     15  C   UNL     1      -6.383  -2.715 129.169  0.00  0.00    +0.000 C 
ATOM     16  O   UNL     1      -7.558  -3.521 129.318  0.00  0.00    +0.000 OA
ATOM     17  C   UNL     1      -8.431  -3.376 128.284  0.00  0.00    +0.000 C 
ATOM     18  O   UNL     1      -9.498  -3.926 128.295  0.00  0.00    +0.000 OA
ATOM     19  C   UNL     1      -7.749  -2.559 127.233  0.00  0.00    +0.000 A 
ATOM     20  C   UNL     1      -6.476  -2.321 127.713  0.00  0.00    +0.000 A 
ATOM     21  C   UNL     1      -5.522  -1.763 126.856  0.00  0.00    +0.000 A 
ATOM     22  C   UNL     1      -5.918  -1.108 125.697  0.00  0.00    +0.000 A 
ATOM     23  C   UNL     1      -7.195  -1.327 125.202  0.00  0.00    +0.000 A 
ATOM     24  C   UNL     1      -8.114  -2.121 125.945  0.00  0.00    +0.000 A 
BRANCH  23  25
ATOM     25  O   UNL     1      -7.349  -0.760 123.957  0.00  0.00    +0.000 OA
ATOM     26  C   UNL     1      -6.688  -1.403 122.880  0.00  0.00    +0.000 C 
ENDBRANCH  23  25
BRANCH  24  27
ATOM     27  O   UNL     1      -9.280  -2.392 125.297  0.00  0.00    +0.000 OA
ATOM     28  C   UNL     1      -9.333  -3.501 124.438  0.00  0.00    +0.000 C 
ENDBRANCH  24  27
ENDBRANCH   1  15
BRANCH  13  29
ATOM     29  O   UNL     1      -6.511  -3.822 132.490  0.00  0.00    +0.000 OA
ATOM     30  C   UNL     1      -7.567  -3.527 133.404  0.00  0.00    +0.000 C 
ENDBRANCH  13  29
TORSDOF 4
ENDMDL
