MODEL 1
REMARK VINA RESULT:      -8.8      0.000      0.000
REMARK  Name = Novobiocin
REMARK  18 active torsions:
REMARK  status: ('A' for Active; 'I' for Inactive)
REMARK    1  A    between atoms: C_1  and  O_2
REMARK    2  A    between atoms: O_2  and  C_3
REMARK    3  A    between atoms: C_4  and  O_5
REMARK    4  A    between atoms: O_5  and  C_6
REMARK    5  A    between atoms: C_9  and  O_10
REMARK    6  A    between atoms: C_11  and  O_12
REMARK    7  A    between atoms: O_12  and  C_13
REMARK    8  A    between atoms: C_14  and  C_15
REMARK    9  A    between atoms: C_20  and  O_21
REMARK   10  A    between atoms: C_22  and  N_23
REMARK   11  A    between atoms: C_24  and  C_26
REMARK   12  A    between atoms: C_29  and  O_30
REMARK   13  A    between atoms: C_31  and  C_32
REMARK   14  A    between atoms: C_32  and  C_33
REMARK   15  A    between atoms: C_34  and  C_35
REMARK   16  A    between atoms: C_34  and  C_36
REMARK   17  A    between atoms: C_42  and  C_43
REMARK   18  A    between atoms: C_42  and  C_44
REMARK                            x       y       z     vdW  Elec       q    Type
REMARK                         _______ _______ _______ _____ _____    ______ ____
ROOT
ATOM      1  C   UNL     1      -5.974   2.613 126.227  0.00  0.00    +0.000 A 
ATOM      2  C   UNL     1      -6.405   3.369 127.306  0.00  0.00    +0.000 A 
ATOM      3  C   UNL     1      -7.756   3.502 127.950  0.00  0.00    +0.000 C 
ATOM      4  C   UNL     1      -5.486   4.241 127.897  0.00  0.00    +0.000 A 
ATOM      5  C   UNL     1      -4.176   4.444 127.544  0.00  0.00    +0.000 A 
ATOM      6  C   UNL     1      -3.737   3.645 126.492  0.00  0.00    +0.000 A 
ATOM      7  C   UNL     1      -4.595   2.661 125.932  0.00  0.00    +0.000 A 
ATOM      8  C   UNL     1      -3.426   5.400 128.392  0.00  0.00    +0.000 A 
ATOM      9  C   UNL     1      -4.009   6.039 129.445  0.00  0.00    +0.000 A 
ATOM     10  C   UNL     1      -5.472   5.839 129.741  0.00  0.00    +0.000 A 
ATOM     11  O   UNL     1      -6.174   6.314 130.587  0.00  0.00    +0.000 OA
ATOM     12  O   UNL     1      -6.084   4.964 128.914  0.00  0.00    +0.000 OA
ENDROOT
BRANCH   9  13
ATOM     13  N   UNL     1      -3.258   6.848 130.288  0.00  0.00    +0.000 N 
ATOM     14  C   UNL     1      -2.783   6.500 131.550  0.00  0.00    +0.000 C 
ATOM     15  O   UNL     1      -2.955   5.499 132.219  0.00  0.00    +0.000 OA
ATOM     16  H   UNL     1      -3.007   7.748 129.885  0.00  0.00    +0.000 HD
BRANCH  14  17
ATOM     17  C   UNL     1      -1.945   7.466 132.238  0.00  0.00    +0.000 A 
ATOM     18  C   UNL     1      -0.628   7.156 132.553  0.00  0.00    +0.000 A 
ATOM     19  C   UNL     1       0.172   8.130 133.132  0.00  0.00    +0.000 A 
ATOM     20  C   UNL     1      -0.436   9.246 133.694  0.00  0.00    +0.000 A 
ATOM     21  C   UNL     1      -1.811   9.462 133.548  0.00  0.00    +0.000 A 
ATOM     22  C   UNL     1      -2.528   8.615 132.707  0.00  0.00    +0.000 A 
BRANCH  20  23
ATOM     23  O   UNL     1       0.290  10.142 134.424  0.00  0.00    +0.000 OA
ATOM     24  H   UNL     1      -0.292  10.573 135.072  0.00  0.00    +0.000 HD
ENDBRANCH  20  23
BRANCH  21  25
ATOM     25  C   UNL     1      -2.487  10.562 134.310  0.00  0.00    +0.000 C 
BRANCH  25  26
ATOM     26  C   UNL     1      -2.657  11.847 133.549  0.00  0.00    +0.000 C 
ATOM     27  C   UNL     1      -2.315  13.058 133.995  0.00  0.00    +0.000 C 
ATOM     28  C   UNL     1      -1.750  13.253 135.362  0.00  0.00    +0.000 C 
ATOM     29  C   UNL     1      -2.514  14.249 133.105  0.00  0.00    +0.000 C 
ENDBRANCH  25  26
ENDBRANCH  21  25
ENDBRANCH  14  17
ENDBRANCH   9  13
BRANCH   8  30
ATOM     30  O   UNL     1      -2.070   5.549 128.127  0.00  0.00    +0.000 OA
ATOM     31  H   UNL     1      -1.746   4.754 127.668  0.00  0.00    +0.000 HD
ENDBRANCH   8  30
BRANCH   1  32
ATOM     32  O   UNL     1      -6.737   1.896 125.332  0.00  0.00    +0.000 OA
BRANCH  32  36
ATOM     33  C   UNL     1      -7.829  -2.226 124.905  0.00  0.00    +0.000 C 
ATOM     34  C   UNL     1      -8.524  -1.518 126.041  0.00  0.00    +0.000 C 
ATOM     35  C   UNL     1      -8.433  -0.001 125.709  0.00  0.00    +0.000 C 
ATOM     36  C   UNL     1      -6.908   0.479 125.572  0.00  0.00    +0.000 C 
ATOM     37  O   UNL     1      -6.294  -0.320 124.509  0.00  0.00    +0.000 OA
ATOM     38  C   UNL     1      -6.344  -1.740 124.787  0.00  0.00    +0.000 C 
ATOM     39  C   UNL     1      -5.519  -2.094 126.055  0.00  0.00    +0.000 C 
ATOM     40  C   UNL     1      -5.602  -2.516 123.683  0.00  0.00    +0.000 C 
BRANCH  33  42
ATOM     41  C   UNL     1      -9.394  -3.050 123.290  0.00  0.00    +0.000 C 
ATOM     42  O   UNL     1      -8.757  -1.937 123.845  0.00  0.00    +0.000 OA
ENDBRANCH  33  42
BRANCH  35  43
ATOM     43  O   UNL     1      -9.348   0.591 126.634  0.00  0.00    +0.000 OA
ATOM     44  H   UNL     1      -9.791   1.311 126.137  0.00  0.00    +0.000 HD
ENDBRANCH  35  43
BRANCH  34  45
ATOM     45  O   UNL     1      -8.018  -1.807 127.372  0.00  0.00    +0.000 OA
BRANCH  45  46
ATOM     46  C   UNL     1      -8.346  -2.916 128.089  0.00  0.00    +0.000 C 
ATOM     47  N   UNL     1      -7.890  -2.959 129.363  0.00  0.00    +0.000 N 
ATOM     48  O   UNL     1      -9.041  -3.810 127.630  0.00  0.00    +0.000 OA
ATOM     49  H   UNL     1      -7.244  -2.295 129.756  0.00  0.00    +0.000 HD
ATOM     50  H   UNL     1      -8.138  -3.766 129.919  0.00  0.00    +0.000 HD
ENDBRANCH  45  46
ENDBRANCH  34  45
ENDBRANCH  32  36
ENDBRANCH   1  32
TORSDOF 12
ENDMDL
MODEL 2
REMARK VINA RESULT:      -8.6      2.586      3.684
REMARK  Name = Novobiocin
REMARK  18 active torsions:
REMARK  status: ('A' for Active; 'I' for Inactive)
REMARK    1  A    between atoms: C_1  and  O_2
REMARK    2  A    between atoms: O_2  and  C_3
REMARK    3  A    between atoms: C_4  and  O_5
REMARK    4  A    between atoms: O_5  and  C_6
REMARK    5  A    between atoms: C_9  and  O_10
REMARK    6  A    between atoms: C_11  and  O_12
REMARK    7  A    between atoms: O_12  and  C_13
REMARK    8  A    between atoms: C_14  and  C_15
REMARK    9  A    between atoms: C_20  and  O_21
REMARK   10  A    between atoms: C_22  and  N_23
REMARK   11  A    between atoms: C_24  and  C_26
REMARK   12  A    between atoms: C_29  and  O_30
REMARK   13  A    between atoms: C_31  and  C_32
REMARK   14  A    between atoms: C_32  and  C_33
REMARK   15  A    between atoms: C_34  and  C_35
REMARK   16  A    between atoms: C_34  and  C_36
REMARK   17  A    between atoms: C_42  and  C_43
REMARK   18  A    between atoms: C_42  and  C_44
REMARK                            x       y       z     vdW  Elec       q    Type
REMARK                         _______ _______ _______ _____ _____    ______ ____
ROOT
ATOM      1  C   UNL     1      -4.195   2.310 126.923  0.00  0.00    +0.000 A 
ATOM      2  C   UNL     1      -4.661   2.498 128.215  0.00  0.00    +0.000 A 
ATOM      3  C   UNL     1      -5.725   1.787 129.002  0.00  0.00    +0.000 C 
ATOM      4  C   UNL     1      -4.143   3.574 128.942  0.00  0.00    +0.000 A 
ATOM      5  C   UNL     1      -3.201   4.486 128.535  0.00  0.00    +0.000 A 
ATOM      6  C   UNL     1      -2.703   4.259 127.256  0.00  0.00    +0.000 A 
ATOM      7  C   UNL     1      -3.109   3.115 126.519  0.00  0.00    +0.000 A 
ATOM      8  C   UNL     1      -2.806   5.492 129.547  0.00  0.00    +0.000 A 
ATOM      9  C   UNL     1      -3.354   5.512 130.795  0.00  0.00    +0.000 A 
ATOM     10  C   UNL     1      -4.441   4.536 131.164  0.00  0.00    +0.000 A 
ATOM     11  O   UNL     1      -5.062   4.401 132.179  0.00  0.00    +0.000 OA
ATOM     12  O   UNL     1      -4.751   3.663 130.182  0.00  0.00    +0.000 OA
ENDROOT
BRANCH   9  13
ATOM     13  N   UNL     1      -2.891   6.398 131.760  0.00  0.00    +0.000 N 
ATOM     14  C   UNL     1      -3.041   7.783 131.740  0.00  0.00    +0.000 C 
ATOM     15  O   UNL     1      -3.514   8.522 130.897  0.00  0.00    +0.000 OA
ATOM     16  H   UNL     1      -2.459   5.949 132.563  0.00  0.00    +0.000 HD
BRANCH  14  17
ATOM     17  C   UNL     1      -2.553   8.524 132.889  0.00  0.00    +0.000 A 
ATOM     18  C   UNL     1      -2.672   7.994 134.168  0.00  0.00    +0.000 A 
ATOM     19  C   UNL     1      -2.119   8.687 135.236  0.00  0.00    +0.000 A 
ATOM     20  C   UNL     1      -1.781  10.023 135.062  0.00  0.00    +0.000 A 
ATOM     21  C   UNL     1      -1.852  10.621 133.798  0.00  0.00    +0.000 A 
ATOM     22  C   UNL     1      -2.127   9.813 132.698  0.00  0.00    +0.000 A 
BRANCH  20  23
ATOM     23  O   UNL     1      -1.398  10.789 136.124  0.00  0.00    +0.000 OA
ATOM     24  H   UNL     1      -2.112  10.801 136.783  0.00  0.00    +0.000 HD
ENDBRANCH  20  23
BRANCH  21  25
ATOM     25  C   UNL     1      -1.667  12.101 133.653  0.00  0.00    +0.000 C 
BRANCH  25  26
ATOM     26  C   UNL     1      -1.067  12.539 132.345  0.00  0.00    +0.000 C 
ATOM     27  C   UNL     1       0.235  12.521 132.051  0.00  0.00    +0.000 C 
ATOM     28  C   UNL     1       1.255  12.088 133.051  0.00  0.00    +0.000 C 
ATOM     29  C   UNL     1       0.683  12.958 130.687  0.00  0.00    +0.000 C 
ENDBRANCH  25  26
ENDBRANCH  21  25
ENDBRANCH  14  17
ENDBRANCH   9  13
BRANCH   8  30
ATOM     30  O   UNL     1      -1.781   6.364 129.204  0.00  0.00    +0.000 OA
ATOM     31  H   UNL     1      -1.539   6.894 129.983  0.00  0.00    +0.000 HD
ENDBRANCH   8  30
BRANCH   1  32
ATOM     32  O   UNL     1      -4.723   1.505 125.938  0.00  0.00    +0.000 OA
BRANCH  32  36
ATOM     33  C   UNL     1      -8.280   2.082 123.617  0.00  0.00    +0.000 C 
ATOM     34  C   UNL     1      -7.871   3.285 124.430  0.00  0.00    +0.000 C 
ATOM     35  C   UNL     1      -6.360   3.088 124.741  0.00  0.00    +0.000 C 
ATOM     36  C   UNL     1      -6.099   1.727 125.548  0.00  0.00    +0.000 C 
ATOM     37  O   UNL     1      -6.603   0.627 124.723  0.00  0.00    +0.000 OA
ATOM     38  C   UNL     1      -8.013   0.764 124.422  0.00  0.00    +0.000 C 
ATOM     39  C   UNL     1      -8.872   0.695 125.715  0.00  0.00    +0.000 C 
ATOM     40  C   UNL     1      -8.502  -0.466 123.634  0.00  0.00    +0.000 C 
BRANCH  33  42
ATOM     41  C   UNL     1      -8.061   3.337 121.589  0.00  0.00    +0.000 C 
ATOM     42  O   UNL     1      -7.531   2.344 122.417  0.00  0.00    +0.000 OA
ENDBRANCH  33  42
BRANCH  35  43
ATOM     43  O   UNL     1      -5.961   4.368 125.237  0.00  0.00    +0.000 OA
ATOM     44  H   UNL     1      -5.962   4.280 126.215  0.00  0.00    +0.000 HD
ENDBRANCH  35  43
BRANCH  34  45
ATOM     45  O   UNL     1      -8.642   3.523 125.639  0.00  0.00    +0.000 OA
BRANCH  45  46
ATOM     46  C   UNL     1      -8.491   4.614 126.437  0.00  0.00    +0.000 C 
ATOM     47  N   UNL     1      -7.914   4.395 127.642  0.00  0.00    +0.000 N 
ATOM     48  O   UNL     1      -8.823   5.735 126.083  0.00  0.00    +0.000 OA
ATOM     49  H   UNL     1      -7.706   3.484 128.014  0.00  0.00    +0.000 HD
ATOM     50  H   UNL     1      -7.775   5.196 128.244  0.00  0.00    +0.000 HD
ENDBRANCH  45  46
ENDBRANCH  34  45
ENDBRANCH  32  36
ENDBRANCH   1  32
TORSDOF 12
ENDMDL
MODEL 3
REMARK VINA RESULT:      -8.6      1.468      1.904
REMARK  Name = Novobiocin
REMARK  18 active torsions:
REMARK  status: ('A' for Active; 'I' for Inactive)
REMARK    1  A    between atoms: C_1  and  O_2
REMARK    2  A    between atoms: O_2  and  C_3
REMARK    3  A    between atoms: C_4  and  O_5
REMARK    4  A    between atoms: O_5  and  C_6
REMARK    5  A    between atoms: C_9  and  O_10
REMARK    6  A    between atoms: C_11  and  O_12
REMARK    7  A    between atoms: O_12  and  C_13
REMARK    8  A    between atoms: C_14  and  C_15
REMARK    9  A    between atoms: C_20  and  O_21
REMARK   10  A    between atoms: C_22  and  N_23
REMARK   11  A    between atoms: C_24  and  C_26
REMARK   12  A    between atoms: C_29  and  O_30
REMARK   13  A    between atoms: C_31  and  C_32
REMARK   14  A    between atoms: C_32  and  C_33
REMARK   15  A    between atoms: C_34  and  C_35
REMARK   16  A    between atoms: C_34  and  C_36
REMARK   17  A    between atoms: C_42  and  C_43
REMARK   18  A    between atoms: C_42  and  C_44
REMARK                            x       y       z     vdW  Elec       q    Type
REMARK                         _______ _______ _______ _____ _____    ______ ____
ROOT
ATOM      1  C   UNL     1      -5.696   2.139 126.443  0.00  0.00    +0.000 A 
ATOM      2  C   UNL     1      -5.116   3.397 126.389  0.00  0.00    +0.000 A 
ATOM      3  C   UNL     1      -4.962   4.374 125.258  0.00  0.00    +0.000 C 
ATOM      4  C   UNL     1      -4.475   3.867 127.539  0.00  0.00    +0.000 A 
ATOM      5  C   UNL     1      -4.350   3.231 128.749  0.00  0.00    +0.000 A 
ATOM      6  C   UNL     1      -4.979   1.991 128.810  0.00  0.00    +0.000 A 
ATOM      7  C   UNL     1      -5.742   1.518 127.709  0.00  0.00    +0.000 A 
ATOM      8  C   UNL     1      -3.658   4.001 129.808  0.00  0.00    +0.000 A 
ATOM      9  C   UNL     1      -3.170   5.254 129.586  0.00  0.00    +0.000 A 
ATOM     10  C   UNL     1      -3.264   5.874 128.215  0.00  0.00    +0.000 A 
ATOM     11  O   UNL     1      -2.884   6.933 127.806  0.00  0.00    +0.000 OA
ATOM     12  O   UNL     1      -3.897   5.102 127.306  0.00  0.00    +0.000 OA
ENDROOT
BRANCH   9  13
ATOM     13  N   UNL     1      -2.619   5.996 130.622  0.00  0.00    +0.000 N 
ATOM     14  C   UNL     1      -3.277   6.966 131.375  0.00  0.00    +0.000 C 
ATOM     15  O   UNL     1      -4.397   7.430 131.275  0.00  0.00    +0.000 OA
ATOM     16  H   UNL     1      -1.665   5.737 130.857  0.00  0.00    +0.000 HD
BRANCH  14  17
ATOM     17  C   UNL     1      -2.543   7.572 132.472  0.00  0.00    +0.000 A 
ATOM     18  C   UNL     1      -2.177   6.812 133.577  0.00  0.00    +0.000 A 
ATOM     19  C   UNL     1      -1.402   7.398 134.567  0.00  0.00    +0.000 A 
ATOM     20  C   UNL     1      -1.308   8.783 134.609  0.00  0.00    +0.000 A 
ATOM     21  C   UNL     1      -1.855   9.570 133.590  0.00  0.00    +0.000 A 
ATOM     22  C   UNL     1      -2.365   8.932 132.463  0.00  0.00    +0.000 A 
BRANCH  20  23
ATOM     23  O   UNL     1      -0.703   9.409 135.661  0.00  0.00    +0.000 OA
ATOM     24  H   UNL     1      -0.396   8.741 136.297  0.00  0.00    +0.000 HD
ENDBRANCH  20  23
BRANCH  21  25
ATOM     25  C   UNL     1      -1.912  11.061 133.735  0.00  0.00    +0.000 C 
BRANCH  25  26
ATOM     26  C   UNL     1      -1.443  11.833 132.534  0.00  0.00    +0.000 C 
ATOM     27  C   UNL     1      -0.179  12.186 132.290  0.00  0.00    +0.000 C 
ATOM     28  C   UNL     1       0.918  11.868 133.250  0.00  0.00    +0.000 C 
ATOM     29  C   UNL     1       0.142  12.928 131.026  0.00  0.00    +0.000 C 
ENDBRANCH  25  26
ENDBRANCH  21  25
ENDBRANCH  14  17
ENDBRANCH   9  13
BRANCH   8  30
ATOM     30  O   UNL     1      -3.608   3.430 131.074  0.00  0.00    +0.000 OA
ATOM     31  H   UNL     1      -3.930   2.513 131.022  0.00  0.00    +0.000 HD
ENDBRANCH   8  30
BRANCH   1  32
ATOM     32  O   UNL     1      -6.145   1.365 125.397  0.00  0.00    +0.000 OA
BRANCH  32  36
ATOM     33  C   UNL     1      -7.460  -2.693 124.979  0.00  0.00    +0.000 C 
ATOM     34  C   UNL     1      -8.255  -1.886 125.975  0.00  0.00    +0.000 C 
ATOM     35  C   UNL     1      -8.009  -0.396 125.600  0.00  0.00    +0.000 C 
ATOM     36  C   UNL     1      -6.450  -0.024 125.665  0.00  0.00    +0.000 C 
ATOM     37  O   UNL     1      -5.751  -0.913 124.734  0.00  0.00    +0.000 OA
ATOM     38  C   UNL     1      -5.941  -2.312 125.057  0.00  0.00    +0.000 C 
ATOM     39  C   UNL     1      -5.331  -2.655 126.443  0.00  0.00    +0.000 C 
ATOM     40  C   UNL     1      -5.109  -3.188 124.102  0.00  0.00    +0.000 C 
BRANCH  33  42
ATOM     41  C   UNL     1      -9.342  -3.183 123.582  0.00  0.00    +0.000 C 
ATOM     42  O   UNL     1      -8.206  -2.396 123.786  0.00  0.00    +0.000 OA
ENDBRANCH  33  42
BRANCH  35  43
ATOM     43  O   UNL     1      -9.001   0.299 126.360  0.00  0.00    +0.000 OA
ATOM     44  H   UNL     1      -8.616   0.400 127.257  0.00  0.00    +0.000 HD
ENDBRANCH  35  43
BRANCH  34  45
ATOM     45  O   UNL     1      -7.962  -2.143 127.375  0.00  0.00    +0.000 OA
BRANCH  45  46
ATOM     46  C   UNL     1      -8.484  -3.178 128.086  0.00  0.00    +0.000 C 
ATOM     47  N   UNL     1      -8.146  -3.233 129.396  0.00  0.00    +0.000 N 
ATOM     48  O   UNL     1      -9.243  -3.997 127.589  0.00  0.00    +0.000 OA
ATOM     49  H   UNL     1      -7.459  -2.639 129.829  0.00  0.00    +0.000 HD
ATOM     50  H   UNL     1      -8.538  -3.984 129.947  0.00  0.00    +0.000 HD
ENDBRANCH  45  46
ENDBRANCH  34  45
ENDBRANCH  32  36
ENDBRANCH   1  32
TORSDOF 12
ENDMDL
MODEL 4
REMARK VINA RESULT:      -8.5      2.074      2.807
REMARK  Name = Novobiocin
REMARK  18 active torsions:
REMARK  status: ('A' for Active; 'I' for Inactive)
REMARK    1  A    between atoms: C_1  and  O_2
REMARK    2  A    between atoms: O_2  and  C_3
REMARK    3  A    between atoms: C_4  and  O_5
REMARK    4  A    between atoms: O_5  and  C_6
REMARK    5  A    between atoms: C_9  and  O_10
REMARK    6  A    between atoms: C_11  and  O_12
REMARK    7  A    between atoms: O_12  and  C_13
REMARK    8  A    between atoms: C_14  and  C_15
REMARK    9  A    between atoms: C_20  and  O_21
REMARK   10  A    between atoms: C_22  and  N_23
REMARK   11  A    between atoms: C_24  and  C_26
REMARK   12  A    between atoms: C_29  and  O_30
REMARK   13  A    between atoms: C_31  and  C_32
REMARK   14  A    between atoms: C_32  and  C_33
REMARK   15  A    between atoms: C_34  and  C_35
REMARK   16  A    between atoms: C_34  and  C_36
REMARK   17  A    between atoms: C_42  and  C_43
REMARK   18  A    between atoms: C_42  and  C_44
REMARK                            x       y       z     vdW  Elec       q    Type
REMARK                         _______ _______ _______ _____ _____    ______ ____
ROOT
ATOM      1  C   UNL     1      -4.674   3.350 126.535  0.00  0.00    +0.000 A 
ATOM      2  C   UNL     1      -5.404   4.060 127.476  0.00  0.00    +0.000 A 
ATOM      3  C   UNL     1      -6.879   4.105 127.763  0.00  0.00    +0.000 C 
ATOM      4  C   UNL     1      -4.715   4.970 128.282  0.00  0.00    +0.000 A 
ATOM      5  C   UNL     1      -3.372   5.253 128.268  0.00  0.00    +0.000 A 
ATOM      6  C   UNL     1      -2.639   4.501 127.356  0.00  0.00    +0.000 A 
ATOM      7  C   UNL     1      -3.270   3.481 126.595  0.00  0.00    +0.000 A 
ATOM      8  C   UNL     1      -2.915   6.233 129.281  0.00  0.00    +0.000 A 
ATOM      9  C   UNL     1      -3.777   6.818 130.159  0.00  0.00    +0.000 A 
ATOM     10  C   UNL     1      -5.254   6.530 130.079  0.00  0.00    +0.000 A 
ATOM     11  O   UNL     1      -6.171   6.950 130.725  0.00  0.00    +0.000 OA
ATOM     12  O   UNL     1      -5.589   5.639 129.121  0.00  0.00    +0.000 OA
ENDROOT
BRANCH   9  13
ATOM     13  N   UNL     1      -3.309   7.651 131.166  0.00  0.00    +0.000 N 
ATOM     14  C   UNL     1      -3.050   7.280 132.484  0.00  0.00    +0.000 C 
ATOM     15  O   UNL     1      -3.226   6.226 133.065  0.00  0.00    +0.000 OA
ATOM     16  H   UNL     1      -3.096   8.597 130.858  0.00  0.00    +0.000 HD
BRANCH  14  17
ATOM     17  C   UNL     1      -2.486   8.288 133.363  0.00  0.00    +0.000 A 
ATOM     18  C   UNL     1      -2.333   8.031 134.720  0.00  0.00    +0.000 A 
ATOM     19  C   UNL     1      -1.712   8.981 135.517  0.00  0.00    +0.000 A 
ATOM     20  C   UNL     1      -1.579  10.277 135.032  0.00  0.00    +0.000 A 
ATOM     21  C   UNL     1      -1.924  10.585 133.712  0.00  0.00    +0.000 A 
ATOM     22  C   UNL     1      -2.263   9.542 132.855  0.00  0.00    +0.000 A 
BRANCH  20  23
ATOM     23  O   UNL     1      -1.135  11.282 135.842  0.00  0.00    +0.000 OA
ATOM     24  H   UNL     1      -1.827  11.504 136.485  0.00  0.00    +0.000 HD
ENDBRANCH  20  23
BRANCH  21  25
ATOM     25  C   UNL     1      -1.954  12.013 133.254  0.00  0.00    +0.000 C 
BRANCH  25  26
ATOM     26  C   UNL     1      -1.131  12.303 132.030  0.00  0.00    +0.000 C 
ATOM     27  C   UNL     1       0.163  12.631 132.031  0.00  0.00    +0.000 C 
ATOM     28  C   UNL     1       0.926  12.787 133.304  0.00  0.00    +0.000 C 
ATOM     29  C   UNL     1       0.860  12.859 130.722  0.00  0.00    +0.000 C 
ENDBRANCH  25  26
ENDBRANCH  21  25
ENDBRANCH  14  17
ENDBRANCH   9  13
BRANCH   8  30
ATOM     30  O   UNL     1      -1.547   6.463 129.364  0.00  0.00    +0.000 OA
ATOM     31  H   UNL     1      -1.350   6.911 130.205  0.00  0.00    +0.000 HD
ENDBRANCH   8  30
BRANCH   1  32
ATOM     32  O   UNL     1      -5.146   2.609 125.475  0.00  0.00    +0.000 OA
BRANCH  32  36
ATOM     33  C   UNL     1      -7.144  -1.160 125.889  0.00  0.00    +0.000 C 
ATOM     34  C   UNL     1      -7.736  -0.260 124.833  0.00  0.00    +0.000 C 
ATOM     35  C   UNL     1      -6.614   0.753 124.467  0.00  0.00    +0.000 C 
ATOM     36  C   UNL     1      -6.141   1.595 125.748  0.00  0.00    +0.000 C 
ATOM     37  O   UNL     1      -5.665   0.636 126.747  0.00  0.00    +0.000 OA
ATOM     38  C   UNL     1      -6.686  -0.317 127.129  0.00  0.00    +0.000 C 
ATOM     39  C   UNL     1      -7.885   0.390 127.819  0.00  0.00    +0.000 C 
ATOM     40  C   UNL     1      -6.155  -1.234 128.247  0.00  0.00    +0.000 C 
BRANCH  33  42
ATOM     41  C   UNL     1      -6.617  -2.982 124.428  0.00  0.00    +0.000 C 
ATOM     42  O   UNL     1      -6.160  -1.842 125.092  0.00  0.00    +0.000 OA
ENDBRANCH  33  42
BRANCH  35  43
ATOM     43  O   UNL     1      -7.110   1.371 123.277  0.00  0.00    +0.000 OA
ATOM     44  H   UNL     1      -7.524   2.210 123.573  0.00  0.00    +0.000 HD
ENDBRANCH  35  43
BRANCH  34  45
ATOM     45  O   UNL     1      -8.971   0.415 125.197  0.00  0.00    +0.000 OA
BRANCH  45  46
ATOM     46  C   UNL     1      -9.777   1.060 124.311  0.00  0.00    +0.000 C 
ATOM     47  N   UNL     1      -9.741   2.413 124.348  0.00  0.00    +0.000 N 
ATOM     48  O   UNL     1     -10.471   0.462 123.502  0.00  0.00    +0.000 OA
ATOM     49  H   UNL     1      -9.258   2.948 125.049  0.00  0.00    +0.000 HD
ATOM     50  H   UNL     1     -10.319   2.911 123.685  0.00  0.00    +0.000 HD
ENDBRANCH  45  46
ENDBRANCH  34  45
ENDBRANCH  32  36
ENDBRANCH   1  32
TORSDOF 12
ENDMDL
MODEL 5
REMARK VINA RESULT:      -8.3      2.489     13.637
REMARK  Name = Novobiocin
REMARK  18 active torsions:
REMARK  status: ('A' for Active; 'I' for Inactive)
REMARK    1  A    between atoms: C_1  and  O_2
REMARK    2  A    between atoms: O_2  and  C_3
REMARK    3  A    between atoms: C_4  and  O_5
REMARK    4  A    between atoms: O_5  and  C_6
REMARK    5  A    between atoms: C_9  and  O_10
REMARK    6  A    between atoms: C_11  and  O_12
REMARK    7  A    between atoms: O_12  and  C_13
REMARK    8  A    between atoms: C_14  and  C_15
REMARK    9  A    between atoms: C_20  and  O_21
REMARK   10  A    between atoms: C_22  and  N_23
REMARK   11  A    between atoms: C_24  and  C_26
REMARK   12  A    between atoms: C_29  and  O_30
REMARK   13  A    between atoms: C_31  and  C_32
REMARK   14  A    between atoms: C_32  and  C_33
REMARK   15  A    between atoms: C_34  and  C_35
REMARK   16  A    between atoms: C_34  and  C_36
REMARK   17  A    between atoms: C_42  and  C_43
REMARK   18  A    between atoms: C_42  and  C_44
REMARK                            x       y       z     vdW  Elec       q    Type
REMARK                         _______ _______ _______ _____ _____    ______ ____
ROOT
ATOM      1  C   UNL     1      -2.488   7.964 132.930  0.00  0.00    +0.000 A 
ATOM      2  C   UNL     1      -2.751   6.610 132.791  0.00  0.00    +0.000 A 
ATOM      3  C   UNL     1      -2.563   5.458 133.738  0.00  0.00    +0.000 C 
ATOM      4  C   UNL     1      -3.202   6.160 131.547  0.00  0.00    +0.000 A 
ATOM      5  C   UNL     1      -3.432   6.906 130.418  0.00  0.00    +0.000 A 
ATOM      6  C   UNL     1      -3.214   8.270 130.581  0.00  0.00    +0.000 A 
ATOM      7  C   UNL     1      -2.868   8.795 131.854  0.00  0.00    +0.000 A 
ATOM      8  C   UNL     1      -3.961   6.157 129.254  0.00  0.00    +0.000 A 
ATOM      9  C   UNL     1      -4.191   4.815 129.305  0.00  0.00    +0.000 A 
ATOM     10  C   UNL     1      -3.846   4.031 130.544  0.00  0.00    +0.000 A 
ATOM     11  O   UNL     1      -3.943   2.862 130.785  0.00  0.00    +0.000 OA
ATOM     12  O   UNL     1      -3.358   4.785 131.552  0.00  0.00    +0.000 OA
ENDROOT
BRANCH   9  13
ATOM     13  N   UNL     1      -4.785   4.156 128.236  0.00  0.00    +0.000 N 
ATOM     14  C   UNL     1      -4.131   3.364 127.295  0.00  0.00    +0.000 C 
ATOM     15  O   UNL     1      -2.948   3.128 127.136  0.00  0.00    +0.000 OA
ATOM     16  H   UNL     1      -5.798   4.238 128.209  0.00  0.00    +0.000 HD
BRANCH  14  17
ATOM     17  C   UNL     1      -4.949   2.695 126.300  0.00  0.00    +0.000 A 
ATOM     18  C   UNL     1      -5.763   3.432 125.448  0.00  0.00    +0.000 A 
ATOM     19  C   UNL     1      -6.467   2.771 124.453  0.00  0.00    +0.000 A 
ATOM     20  C   UNL     1      -6.620   1.393 124.546  0.00  0.00    +0.000 A 
ATOM     21  C   UNL     1      -5.953   0.664 125.537  0.00  0.00    +0.000 A 
ATOM     22  C   UNL     1      -5.022   1.326 126.332  0.00  0.00    +0.000 A 
BRANCH  20  23
ATOM     23  O   UNL     1      -7.446   0.724 123.689  0.00  0.00    +0.000 OA
ATOM     24  H   UNL     1      -7.078   0.767 122.792  0.00  0.00    +0.000 HD
ENDBRANCH  20  23
BRANCH  21  25
ATOM     25  C   UNL     1      -6.267  -0.787 125.746  0.00  0.00    +0.000 C 
BRANCH  25  26
ATOM     26  C   UNL     1      -5.349  -1.743 125.036  0.00  0.00    +0.000 C 
ATOM     27  C   UNL     1      -5.733  -2.667 124.153  0.00  0.00    +0.000 C 
ATOM     28  C   UNL     1      -7.171  -2.870 123.812  0.00  0.00    +0.000 C 
ATOM     29  C   UNL     1      -4.693  -3.529 123.499  0.00  0.00    +0.000 C 
ENDBRANCH  25  26
ENDBRANCH  21  25
ENDBRANCH  14  17
ENDBRANCH   9  13
BRANCH   8  30
ATOM     30  O   UNL     1      -4.304   6.899 128.130  0.00  0.00    +0.000 OA
ATOM     31  H   UNL     1      -4.459   7.823 128.394  0.00  0.00    +0.000 HD
ENDBRANCH   8  30
BRANCH   1  32
ATOM     32  O   UNL     1      -1.805   8.598 133.944  0.00  0.00    +0.000 OA
BRANCH  32  36
ATOM     33  C   UNL     1       0.013  12.458 134.345  0.00  0.00    +0.000 C 
ATOM     34  C   UNL     1      -1.439  12.415 134.749  0.00  0.00    +0.000 C 
ATOM     35  C   UNL     1      -1.748  10.920 135.049  0.00  0.00    +0.000 C 
ATOM     36  C   UNL     1      -1.474   9.996 133.767  0.00  0.00    +0.000 C 
ATOM     37  O   UNL     1      -0.068  10.168 133.397  0.00  0.00    +0.000 OA
ATOM     38  C   UNL     1       0.259  11.546 133.094  0.00  0.00    +0.000 C 
ATOM     39  C   UNL     1      -0.527  12.049 131.852  0.00  0.00    +0.000 C 
ATOM     40  C   UNL     1       1.722  11.646 132.623  0.00  0.00    +0.000 C 
BRANCH  33  42
ATOM     41  C   UNL     1       1.477  13.078 136.136  0.00  0.00    +0.000 C 
ATOM     42  O   UNL     1       0.618  12.113 135.604  0.00  0.00    +0.000 OA
ENDBRANCH  33  42
BRANCH  35  43
ATOM     43  O   UNL     1      -3.017  10.975 135.704  0.00  0.00    +0.000 OA
ATOM     44  H   UNL     1      -3.683  10.970 134.983  0.00  0.00    +0.000 HD
ENDBRANCH  35  43
BRANCH  34  45
ATOM     45  O   UNL     1      -2.379  12.976 133.793  0.00  0.00    +0.000 OA
BRANCH  45  46
ATOM     46  C   UNL     1      -2.617  14.308 133.649  0.00  0.00    +0.000 C 
ATOM     47  N   UNL     1      -3.334  14.671 132.559  0.00  0.00    +0.000 N 
ATOM     48  O   UNL     1      -2.241  15.133 134.468  0.00  0.00    +0.000 OA
ATOM     49  H   UNL     1      -3.588  14.044 131.814  0.00  0.00    +0.000 HD
ATOM     50  H   UNL     1      -3.538  15.654 132.443  0.00  0.00    +0.000 HD
ENDBRANCH  45  46
ENDBRANCH  34  45
ENDBRANCH  32  36
ENDBRANCH   1  32
TORSDOF 12
ENDMDL
MODEL 6
REMARK VINA RESULT:      -8.3      2.806     13.012
REMARK  Name = Novobiocin
REMARK  18 active torsions:
REMARK  status: ('A' for Active; 'I' for Inactive)
REMARK    1  A    between atoms: C_1  and  O_2
REMARK    2  A    between atoms: O_2  and  C_3
REMARK    3  A    between atoms: C_4  and  O_5
REMARK    4  A    between atoms: O_5  and  C_6
REMARK    5  A    between atoms: C_9  and  O_10
REMARK    6  A    between atoms: C_11  and  O_12
REMARK    7  A    between atoms: O_12  and  C_13
REMARK    8  A    between atoms: C_14  and  C_15
REMARK    9  A    between atoms: C_20  and  O_21
REMARK   10  A    between atoms: C_22  and  N_23
REMARK   11  A    between atoms: C_24  and  C_26
REMARK   12  A    between atoms: C_29  and  O_30
REMARK   13  A    between atoms: C_31  and  C_32
REMARK   14  A    between atoms: C_32  and  C_33
REMARK   15  A    between atoms: C_34  and  C_35
REMARK   16  A    between atoms: C_34  and  C_36
REMARK   17  A    between atoms: C_42  and  C_43
REMARK   18  A    between atoms: C_42  and  C_44
REMARK                            x       y       z     vdW  Elec       q    Type
REMARK                         _______ _______ _______ _____ _____    ______ ____
ROOT
ATOM      1  C   UNL     1      -1.819   5.807 131.884  0.00  0.00    +0.000 A 
ATOM      2  C   UNL     1      -2.547   4.635 131.752  0.00  0.00    +0.000 A 
ATOM      3  C   UNL     1      -2.671   3.435 132.648  0.00  0.00    +0.000 C 
ATOM      4  C   UNL     1      -3.253   4.439 130.562  0.00  0.00    +0.000 A 
ATOM      5  C   UNL     1      -3.328   5.283 129.482  0.00  0.00    +0.000 A 
ATOM      6  C   UNL     1      -2.636   6.479 129.644  0.00  0.00    +0.000 A 
ATOM      7  C   UNL     1      -1.998   6.779 130.877  0.00  0.00    +0.000 A 
ATOM      8  C   UNL     1      -4.201   4.829 128.375  0.00  0.00    +0.000 A 
ATOM      9  C   UNL     1      -4.875   3.645 128.428  0.00  0.00    +0.000 A 
ATOM     10  C   UNL     1      -4.694   2.720 129.603  0.00  0.00    +0.000 A 
ATOM     11  O   UNL     1      -5.163   1.642 129.831  0.00  0.00    +0.000 OA
ATOM     12  O   UNL     1      -3.873   3.202 130.560  0.00  0.00    +0.000 OA
ENDROOT
BRANCH   9  13
ATOM     13  N   UNL     1      -5.768   3.291 127.425  0.00  0.00    +0.000 N 
ATOM     14  C   UNL     1      -5.558   2.327 126.442  0.00  0.00    +0.000 C 
ATOM     15  O   UNL     1      -4.580   1.651 126.184  0.00  0.00    +0.000 OA
ATOM     16  H   UNL     1      -6.667   3.763 127.484  0.00  0.00    +0.000 HD
BRANCH  14  17
ATOM     17  C   UNL     1      -6.655   2.050 125.532  0.00  0.00    +0.000 A 
ATOM     18  C   UNL     1      -7.835   2.779 125.613  0.00  0.00    +0.000 A 
ATOM     19  C   UNL     1      -8.831   2.550 124.675  0.00  0.00    +0.000 A 
ATOM     20  C   UNL     1      -8.778   1.388 123.915  0.00  0.00    +0.000 A 
ATOM     21  C   UNL     1      -7.668   0.540 123.981  0.00  0.00    +0.000 A 
ATOM     22  C   UNL     1      -6.558   0.956 124.711  0.00  0.00    +0.000 A 
BRANCH  20  23
ATOM     23  O   UNL     1      -9.820   1.036 123.107  0.00  0.00    +0.000 OA
ATOM     24  H   UNL     1     -10.247   0.240 123.464  0.00  0.00    +0.000 HD
ENDBRANCH  20  23
BRANCH  21  25
ATOM     25  C   UNL     1      -7.699  -0.798 123.304  0.00  0.00    +0.000 C 
BRANCH  25  26
ATOM     26  C   UNL     1      -6.372  -1.500 123.227  0.00  0.00    +0.000 C 
ATOM     27  C   UNL     1      -6.125  -2.732 123.678  0.00  0.00    +0.000 C 
ATOM     28  C   UNL     1      -7.178  -3.536 124.364  0.00  0.00    +0.000 C 
ATOM     29  C   UNL     1      -4.754  -3.315 123.500  0.00  0.00    +0.000 C 
ENDBRANCH  25  26
ENDBRANCH  21  25
ENDBRANCH  14  17
ENDBRANCH   9  13
BRANCH   8  30
ATOM     30  O   UNL     1      -4.383   5.707 127.314  0.00  0.00    +0.000 OA
ATOM     31  H   UNL     1      -5.237   6.161 127.419  0.00  0.00    +0.000 HD
ENDBRANCH   8  30
BRANCH   1  32
ATOM     32  O   UNL     1      -0.857   6.110 132.822  0.00  0.00    +0.000 OA
BRANCH  32  36
ATOM     33  C   UNL     1      -0.054   9.490 135.332  0.00  0.00    +0.000 C 
ATOM     34  C   UNL     1      -1.145   8.585 135.846  0.00  0.00    +0.000 C 
ATOM     35  C   UNL     1      -0.921   7.215 135.144  0.00  0.00    +0.000 C 
ATOM     36  C   UNL     1      -0.987   7.356 133.548  0.00  0.00    +0.000 C 
ATOM     37  O   UNL     1       0.046   8.314 133.151  0.00  0.00    +0.000 OA
ATOM     38  C   UNL     1      -0.135   9.610 133.771  0.00  0.00    +0.000 C 
ATOM     39  C   UNL     1      -1.464  10.271 133.313  0.00  0.00    +0.000 C 
ATOM     40  C   UNL     1       0.925  10.596 133.244  0.00  0.00    +0.000 C 
BRANCH  33  42
ATOM     41  C   UNL     1       1.703   9.578 136.957  0.00  0.00    +0.000 C 
ATOM     42  O   UNL     1       1.085   8.852 135.936  0.00  0.00    +0.000 OA
ENDBRANCH  33  42
BRANCH  35  43
ATOM     43  O   UNL     1      -1.772   6.330 135.877  0.00  0.00    +0.000 OA
ATOM     44  H   UNL     1      -2.536   6.156 135.287  0.00  0.00    +0.000 HD
ENDBRANCH  35  43
BRANCH  34  45
ATOM     45  O   UNL     1      -2.505   9.066 135.662  0.00  0.00    +0.000 OA
BRANCH  45  46
ATOM     46  C   UNL     1      -3.399   9.229 136.674  0.00  0.00    +0.000 C 
ATOM     47  N   UNL     1      -3.269   8.387 137.726  0.00  0.00    +0.000 N 
ATOM     48  O   UNL     1      -4.251  10.104 136.660  0.00  0.00    +0.000 OA
ATOM     49  H   UNL     1      -2.646   7.597 137.746  0.00  0.00    +0.000 HD
ATOM     50  H   UNL     1      -3.912   8.503 138.497  0.00  0.00    +0.000 HD
ENDBRANCH  45  46
ENDBRANCH  34  45
ENDBRANCH  32  36
ENDBRANCH   1  32
TORSDOF 12
ENDMDL
MODEL 7
REMARK VINA RESULT:      -8.3      5.137      6.619
REMARK  Name = Novobiocin
REMARK  18 active torsions:
REMARK  status: ('A' for Active; 'I' for Inactive)
REMARK    1  A    between atoms: C_1  and  O_2
REMARK    2  A    between atoms: O_2  and  C_3
REMARK    3  A    between atoms: C_4  and  O_5
REMARK    4  A    between atoms: O_5  and  C_6
REMARK    5  A    between atoms: C_9  and  O_10
REMARK    6  A    between atoms: C_11  and  O_12
REMARK    7  A    between atoms: O_12  and  C_13
REMARK    8  A    between atoms: C_14  and  C_15
REMARK    9  A    between atoms: C_20  and  O_21
REMARK   10  A    between atoms: C_22  and  N_23
REMARK   11  A    between atoms: C_24  and  C_26
REMARK   12  A    between atoms: C_29  and  O_30
REMARK   13  A    between atoms: C_31  and  C_32
REMARK   14  A    between atoms: C_32  and  C_33
REMARK   15  A    between atoms: C_34  and  C_35
REMARK   16  A    between atoms: C_34  and  C_36
REMARK   17  A    between atoms: C_42  and  C_43
REMARK   18  A    between atoms: C_42  and  C_44
REMARK                            x       y       z     vdW  Elec       q    Type
REMARK                         _______ _______ _______ _____ _____    ______ ____
ROOT
ATOM      1  C   UNL     1      -6.994   1.584 130.720  0.00  0.00    +0.000 A 
ATOM      2  C   UNL     1      -6.319   2.663 131.268  0.00  0.00    +0.000 A 
ATOM      3  C   UNL     1      -4.946   3.215 131.005  0.00  0.00    +0.000 C 
ATOM      4  C   UNL     1      -6.940   3.358 132.310  0.00  0.00    +0.000 A 
ATOM      5  C   UNL     1      -8.169   3.109 132.869  0.00  0.00    +0.000 A 
ATOM      6  C   UNL     1      -8.861   2.055 132.280  0.00  0.00    +0.000 A 
ATOM      7  C   UNL     1      -8.327   1.391 131.144  0.00  0.00    +0.000 A 
ATOM      8  C   UNL     1      -8.591   4.051 133.931  0.00  0.00    +0.000 A 
ATOM      9  C   UNL     1      -7.802   5.088 134.329  0.00  0.00    +0.000 A 
ATOM     10  C   UNL     1      -6.428   5.269 133.737  0.00  0.00    +0.000 A 
ATOM     11  O   UNL     1      -5.579   6.084 133.959  0.00  0.00    +0.000 OA
ATOM     12  O   UNL     1      -6.116   4.362 132.787  0.00  0.00    +0.000 OA
ENDROOT
BRANCH   9  13
ATOM     13  N   UNL     1      -8.263   6.019 135.251  0.00  0.00    +0.000 N 
ATOM     14  C   UNL     1      -7.732   6.251 136.518  0.00  0.00    +0.000 C 
ATOM     15  O   UNL     1      -6.840   5.688 137.124  0.00  0.00    +0.000 OA
ATOM     16  H   UNL     1      -9.024   6.600 134.909  0.00  0.00    +0.000 HD
BRANCH  14  17
ATOM     17  C   UNL     1      -8.313   7.329 137.298  0.00  0.00    +0.000 A 
ATOM     18  C   UNL     1      -9.446   7.993 136.845  0.00  0.00    +0.000 A 
ATOM     19  C   UNL     1     -10.027   8.959 137.653  0.00  0.00    +0.000 A 
ATOM     20  C   UNL     1      -9.288   9.479 138.708  0.00  0.00    +0.000 A 
ATOM     21  C   UNL     1      -8.043   8.938 139.046  0.00  0.00    +0.000 A 
ATOM     22  C   UNL     1      -7.628   7.777 138.398  0.00  0.00    +0.000 A 
BRANCH  20  23
ATOM     23  O   UNL     1      -9.748  10.548 139.421  0.00  0.00    +0.000 OA
ATOM     24  H   UNL     1      -9.146  10.721 140.164  0.00  0.00    +0.000 HD
ENDBRANCH  20  23
BRANCH  21  25
ATOM     25  C   UNL     1      -7.173   9.620 140.058  0.00  0.00    +0.000 C 
BRANCH  25  26
ATOM     26  C   UNL     1      -5.973  10.325 139.490  0.00  0.00    +0.000 C 
ATOM     27  C   UNL     1      -5.854  11.647 139.343  0.00  0.00    +0.000 C 
ATOM     28  C   UNL     1      -6.965  12.574 139.705  0.00  0.00    +0.000 C 
ATOM     29  C   UNL     1      -4.578  12.209 138.790  0.00  0.00    +0.000 C 
ENDBRANCH  25  26
ENDBRANCH  21  25
ENDBRANCH  14  17
ENDBRANCH   9  13
BRANCH   8  30
ATOM     30  O   UNL     1      -9.872   3.890 134.444  0.00  0.00    +0.000 OA
ATOM     31  H   UNL     1      -9.818   3.414 135.291  0.00  0.00    +0.000 HD
ENDBRANCH   8  30
BRANCH   1  32
ATOM     32  O   UNL     1      -6.499   0.605 129.888  0.00  0.00    +0.000 OA
BRANCH  32  36
ATOM     33  C   UNL     1      -6.496  -0.050 125.652  0.00  0.00    +0.000 C 
ATOM     34  C   UNL     1      -5.558   1.038 126.109  0.00  0.00    +0.000 C 
ATOM     35  C   UNL     1      -5.299   0.763 127.618  0.00  0.00    +0.000 C 
ATOM     36  C   UNL     1      -6.664   0.783 128.461  0.00  0.00    +0.000 C 
ATOM     37  O   UNL     1      -7.541  -0.242 127.893  0.00  0.00    +0.000 OA
ATOM     38  C   UNL     1      -7.821  -0.015 126.490  0.00  0.00    +0.000 C 
ATOM     39  C   UNL     1      -8.600   1.312 126.281  0.00  0.00    +0.000 C 
ATOM     40  C   UNL     1      -8.819  -1.070 125.977  0.00  0.00    +0.000 C 
BRANCH  33  42
ATOM     41  C   UNL     1      -5.529  -1.984 124.622  0.00  0.00    +0.000 C 
ATOM     42  O   UNL     1      -5.616  -1.183 125.763  0.00  0.00    +0.000 OA
ENDBRANCH  33  42
BRANCH  35  43
ATOM     43  O   UNL     1      -4.193   1.618 127.920  0.00  0.00    +0.000 OA
ATOM     44  H   UNL     1      -4.582   2.394 128.378  0.00  0.00    +0.000 HD
ENDBRANCH  35  43
BRANCH  34  45
ATOM     45  O   UNL     1      -6.009   2.400 125.881  0.00  0.00    +0.000 OA
BRANCH  45  46
ATOM     46  C   UNL     1      -5.264   3.358 125.266  0.00  0.00    +0.000 C 
ATOM     47  N   UNL     1      -5.748   3.828 124.092  0.00  0.00    +0.000 N 
ATOM     48  O   UNL     1      -4.234   3.800 125.752  0.00  0.00    +0.000 OA
ATOM     49  H   UNL     1      -6.539   3.436 123.608  0.00  0.00    +0.000 HD
ATOM     50  H   UNL     1      -5.220   4.553 123.627  0.00  0.00    +0.000 HD
ENDBRANCH  45  46
ENDBRANCH  34  45
ENDBRANCH  32  36
ENDBRANCH   1  32
TORSDOF 12
ENDMDL
MODEL 8
REMARK VINA RESULT:      -8.1      2.363     13.057
REMARK  Name = Novobiocin
REMARK  18 active torsions:
REMARK  status: ('A' for Active; 'I' for Inactive)
REMARK    1  A    between atoms: C_1  and  O_2
REMARK    2  A    between atoms: O_2  and  C_3
REMARK    3  A    between atoms: C_4  and  O_5
REMARK    4  A    between atoms: O_5  and  C_6
REMARK    5  A    between atoms: C_9  and  O_10
REMARK    6  A    between atoms: C_11  and  O_12
REMARK    7  A    between atoms: O_12  and  C_13
REMARK    8  A    between atoms: C_14  and  C_15
REMARK    9  A    between atoms: C_20  and  O_21
REMARK   10  A    between atoms: C_22  and  N_23
REMARK   11  A    between atoms: C_24  and  C_26
REMARK   12  A    between atoms: C_29  and  O_30
REMARK   13  A    between atoms: C_31  and  C_32
REMARK   14  A    between atoms: C_32  and  C_33
REMARK   15  A    between atoms: C_34  and  C_35
REMARK   16  A    between atoms: C_34  and  C_36
REMARK   17  A    between atoms: C_42  and  C_43
REMARK   18  A    between atoms: C_42  and  C_44
REMARK                            x       y       z     vdW  Elec       q    Type
REMARK                         _______ _______ _______ _____ _____    ______ ____
ROOT
ATOM      1  C   UNL     1      -4.032   7.277 130.860  0.00  0.00    +0.000 A 
ATOM      2  C   UNL     1      -3.582   6.220 130.084  0.00  0.00    +0.000 A 
ATOM      3  C   UNL     1      -2.307   6.025 129.312  0.00  0.00    +0.000 C 
ATOM      4  C   UNL     1      -4.453   5.146 129.880  0.00  0.00    +0.000 A 
ATOM      5  C   UNL     1      -5.726   4.994 130.370  0.00  0.00    +0.000 A 
ATOM      6  C   UNL     1      -6.151   6.035 131.189  0.00  0.00    +0.000 A 
ATOM      7  C   UNL     1      -5.265   7.094 131.523  0.00  0.00    +0.000 A 
ATOM      8  C   UNL     1      -6.395   3.717 130.028  0.00  0.00    +0.000 A 
ATOM      9  C   UNL     1      -5.784   2.765 129.268  0.00  0.00    +0.000 A 
ATOM     10  C   UNL     1      -4.415   3.016 128.690  0.00  0.00    +0.000 A 
ATOM     11  O   UNL     1      -3.723   2.336 127.989  0.00  0.00    +0.000 OA
ATOM     12  O   UNL     1      -3.883   4.207 129.039  0.00  0.00    +0.000 OA
ENDROOT
BRANCH   9  13
ATOM     13  N   UNL     1      -6.389   1.534 129.050  0.00  0.00    +0.000 N 
ATOM     14  C   UNL     1      -6.985   1.113 127.863  0.00  0.00    +0.000 C 
ATOM     15  O   UNL     1      -7.180   1.700 126.816  0.00  0.00    +0.000 OA
ATOM     16  H   UNL     1      -6.319   0.892 129.835  0.00  0.00    +0.000 HD
BRANCH  14  17
ATOM     17  C   UNL     1      -7.492  -0.247 127.817  0.00  0.00    +0.000 A 
ATOM     18  C   UNL     1      -7.506  -1.031 128.964  0.00  0.00    +0.000 A 
ATOM     19  C   UNL     1      -8.075  -2.295 128.907  0.00  0.00    +0.000 A 
ATOM     20  C   UNL     1      -8.293  -2.874 127.662  0.00  0.00    +0.000 A 
ATOM     21  C   UNL     1      -8.085  -2.143 126.487  0.00  0.00    +0.000 A 
ATOM     22  C   UNL     1      -7.799  -0.785 126.593  0.00  0.00    +0.000 A 
BRANCH  20  23
ATOM     23  O   UNL     1      -8.687  -4.176 127.559  0.00  0.00    +0.000 OA
ATOM     24  H   UNL     1      -9.591  -4.209 127.206  0.00  0.00    +0.000 HD
ENDBRANCH  20  23
BRANCH  21  25
ATOM     25  C   UNL     1      -8.142  -2.827 125.154  0.00  0.00    +0.000 C 
BRANCH  25  26
ATOM     26  C   UNL     1      -6.823  -3.350 124.655  0.00  0.00    +0.000 C 
ATOM     27  C   UNL     1      -6.058  -2.759 123.735  0.00  0.00    +0.000 C 
ATOM     28  C   UNL     1      -6.483  -1.496 123.063  0.00  0.00    +0.000 C 
ATOM     29  C   UNL     1      -4.747  -3.386 123.361  0.00  0.00    +0.000 C 
ENDBRANCH  25  26
ENDBRANCH  21  25
ENDBRANCH  14  17
ENDBRANCH   9  13
BRANCH   8  30
ATOM     30  O   UNL     1      -7.642   3.486 130.595  0.00  0.00    +0.000 OA
ATOM     31  H   UNL     1      -8.017   2.671 130.218  0.00  0.00    +0.000 HD
ENDBRANCH   8  30
BRANCH   1  32
ATOM     32  O   UNL     1      -3.481   8.532 130.990  0.00  0.00    +0.000 OA
BRANCH  32  36
ATOM     33  C   UNL     1      -1.454   9.214 134.704  0.00  0.00    +0.000 C 
ATOM     34  C   UNL     1      -1.258  10.307 133.684  0.00  0.00    +0.000 C 
ATOM     35  C   UNL     1      -2.440  10.165 132.683  0.00  0.00    +0.000 C 
ATOM     36  C   UNL     1      -2.450   8.719 131.989  0.00  0.00    +0.000 C 
ATOM     37  O   UNL     1      -2.556   7.724 133.057  0.00  0.00    +0.000 OA
ATOM     38  C   UNL     1      -1.464   7.811 134.005  0.00  0.00    +0.000 C 
ATOM     39  C   UNL     1      -0.104   7.497 133.324  0.00  0.00    +0.000 C 
ATOM     40  C   UNL     1      -1.582   6.683 135.046  0.00  0.00    +0.000 C 
BRANCH  33  42
ATOM     41  C   UNL     1      -2.442  10.535 136.441  0.00  0.00    +0.000 C 
ATOM     42  O   UNL     1      -2.649   9.698 135.341  0.00  0.00    +0.000 OA
ENDBRANCH  33  42
BRANCH  35  43
ATOM     43  O   UNL     1      -2.380  11.381 131.933  0.00  0.00    +0.000 OA
ATOM     44  H   UNL     1      -1.574  11.304 131.378  0.00  0.00    +0.000 HD
ENDBRANCH  35  43
BRANCH  34  45
ATOM     45  O   UNL     1       0.025  10.314 133.002  0.00  0.00    +0.000 OA
BRANCH  45  46
ATOM     46  C   UNL     1       0.823  11.410 132.888  0.00  0.00    +0.000 C 
ATOM     47  N   UNL     1       0.242  12.602 133.165  0.00  0.00    +0.000 N 
ATOM     48  O   UNL     1       2.004  11.332 132.586  0.00  0.00    +0.000 OA
ATOM     49  H   UNL     1      -0.743  12.727 133.329  0.00  0.00    +0.000 HD
ATOM     50  H   UNL     1       0.822  13.427 133.104  0.00  0.00    +0.000 HD
ENDBRANCH  45  46
ENDBRANCH  34  45
ENDBRANCH  32  36
ENDBRANCH   1  32
TORSDOF 12
ENDMDL
MODEL 9
REMARK VINA RESULT:      -8.1      3.716      4.713
REMARK  Name = Novobiocin
REMARK  18 active torsions:
REMARK  status: ('A' for Active; 'I' for Inactive)
REMARK    1  A    between atoms: C_1  and  O_2
REMARK    2  A    between atoms: O_2  and  C_3
REMARK    3  A    between atoms: C_4  and  O_5
REMARK    4  A    between atoms: O_5  and  C_6
REMARK    5  A    between atoms: C_9  and  O_10
REMARK    6  A    between atoms: C_11  and  O_12
REMARK    7  A    between atoms: O_12  and  C_13
REMARK    8  A    between atoms: C_14  and  C_15
REMARK    9  A    between atoms: C_20  and  O_21
REMARK   10  A    between atoms: C_22  and  N_23
REMARK   11  A    between atoms: C_24  and  C_26
REMARK   12  A    between atoms: C_29  and  O_30
REMARK   13  A    between atoms: C_31  and  C_32
REMARK   14  A    between atoms: C_32  and  C_33
REMARK   15  A    between atoms: C_34  and  C_35
REMARK   16  A    between atoms: C_34  and  C_36
REMARK   17  A    between atoms: C_42  and  C_43
REMARK   18  A    between atoms: C_42  and  C_44
REMARK                            x       y       z     vdW  Elec       q    Type
REMARK                         _______ _______ _______ _____ _____    ______ ____
ROOT
ATOM      1  C   UNL     1      -6.297   2.572 126.401  0.00  0.00    +0.000 A 
ATOM      2  C   UNL     1      -5.215   3.146 127.050  0.00  0.00    +0.000 A 
ATOM      3  C   UNL     1      -3.774   3.291 126.645  0.00  0.00    +0.000 C 
ATOM      4  C   UNL     1      -5.414   3.626 128.347  0.00  0.00    +0.000 A 
ATOM      5  C   UNL     1      -6.576   3.611 129.078  0.00  0.00    +0.000 A 
ATOM      6  C   UNL     1      -7.669   3.079 128.401  0.00  0.00    +0.000 A 
ATOM      7  C   UNL     1      -7.549   2.684 127.042  0.00  0.00    +0.000 A 
ATOM      8  C   UNL     1      -6.498   4.243 130.415  0.00  0.00    +0.000 A 
ATOM      9  C   UNL     1      -5.344   4.791 130.887  0.00  0.00    +0.000 A 
ATOM     10  C   UNL     1      -4.077   4.711 130.076  0.00  0.00    +0.000 A 
ATOM     11  O   UNL     1      -2.968   5.098 130.311  0.00  0.00    +0.000 OA
ATOM     12  O   UNL     1      -4.230   4.109 128.877  0.00  0.00    +0.000 OA
ENDROOT
BRANCH   9  13
ATOM     13  N   UNL     1      -5.323   5.470 132.099  0.00  0.00    +0.000 N 
ATOM     14  C   UNL     1      -5.509   4.904 133.358  0.00  0.00    +0.000 C 
ATOM     15  O   UNL     1      -5.791   3.768 133.689  0.00  0.00    +0.000 OA
ATOM     16  H   UNL     1      -5.093   6.457 132.018  0.00  0.00    +0.000 HD
BRANCH  14  17
ATOM     17  C   UNL     1      -5.369   5.778 134.510  0.00  0.00    +0.000 A 
ATOM     18  C   UNL     1      -4.148   6.379 134.791  0.00  0.00    +0.000 A 
ATOM     19  C   UNL     1      -4.068   7.275 135.847  0.00  0.00    +0.000 A 
ATOM     20  C   UNL     1      -5.086   7.286 136.792  0.00  0.00    +0.000 A 
ATOM     21  C   UNL     1      -6.242   6.520 136.608  0.00  0.00    +0.000 A 
ATOM     22  C   UNL     1      -6.415   5.863 135.393  0.00  0.00    +0.000 A 
BRANCH  20  23
ATOM     23  O   UNL     1      -4.969   8.023 137.935  0.00  0.00    +0.000 OA
ATOM     24  H   UNL     1      -5.288   7.499 138.688  0.00  0.00    +0.000 HD
ENDBRANCH  20  23
BRANCH  21  25
ATOM     25  C   UNL     1      -7.247   6.392 137.713  0.00  0.00    +0.000 C 
BRANCH  25  26
ATOM     26  C   UNL     1      -8.554   7.092 137.465  0.00  0.00    +0.000 C 
ATOM     27  C   UNL     1      -8.936   8.236 138.037  0.00  0.00    +0.000 C 
ATOM     28  C   UNL     1      -8.082   8.926 139.047  0.00  0.00    +0.000 C 
ATOM     29  C   UNL     1     -10.261   8.834 137.663  0.00  0.00    +0.000 C 
ENDBRANCH  25  26
ENDBRANCH  21  25
ENDBRANCH  14  17
ENDBRANCH   9  13
BRANCH   8  30
ATOM     30  O   UNL     1      -7.682   4.338 131.138  0.00  0.00    +0.000 OA
ATOM     31  H   UNL     1      -8.428   4.411 130.517  0.00  0.00    +0.000 HD
ENDBRANCH   8  30
BRANCH   1  32
ATOM     32  O   UNL     1      -6.295   1.811 125.253  0.00  0.00    +0.000 OA
BRANCH  32  36
ATOM     33  C   UNL     1      -6.148  -2.472 125.235  0.00  0.00    +0.000 C 
ATOM     34  C   UNL     1      -7.060  -1.881 124.190  0.00  0.00    +0.000 C 
ATOM     35  C   UNL     1      -6.581  -0.414 123.995  0.00  0.00    +0.000 C 
ATOM     36  C   UNL     1      -6.658   0.415 125.367  0.00  0.00    +0.000 C 
ATOM     37  O   UNL     1      -5.814  -0.279 126.342  0.00  0.00    +0.000 OA
ATOM     38  C   UNL     1      -6.236  -1.646 126.565  0.00  0.00    +0.000 C 
ATOM     39  C   UNL     1      -7.659  -1.700 127.184  0.00  0.00    +0.000 C 
ATOM     40  C   UNL     1      -5.371  -2.288 127.665  0.00  0.00    +0.000 C 
BRANCH  33  42
ATOM     41  C   UNL     1      -4.729  -3.611 123.678  0.00  0.00    +0.000 C 
ATOM     42  O   UNL     1      -4.917  -2.491 124.492  0.00  0.00    +0.000 OA
ENDBRANCH  33  42
BRANCH  35  43
ATOM     43  O   UNL     1      -7.262  -0.004 122.807  0.00  0.00    +0.000 OA
ATOM     44  H   UNL     1      -7.661  -0.822 122.440  0.00  0.00    +0.000 HD
ENDBRANCH  35  43
BRANCH  34  45
ATOM     45  O   UNL     1      -8.482  -1.948 124.479  0.00  0.00    +0.000 OA
BRANCH  45  46
ATOM     46  C   UNL     1      -9.438  -2.222 123.551  0.00  0.00    +0.000 C 
ATOM     47  N   UNL     1      -9.856  -3.509 123.487  0.00  0.00    +0.000 N 
ATOM     48  O   UNL     1      -9.922  -1.359 122.834  0.00  0.00    +0.000 OA
ATOM     49  H   UNL     1      -9.428  -4.269 123.989  0.00  0.00    +0.000 HD
ATOM     50  H   UNL     1     -10.578  -3.731 122.817  0.00  0.00    +0.000 HD
ENDBRANCH  45  46
ENDBRANCH  34  45
ENDBRANCH  32  36
ENDBRANCH   1  32
TORSDOF 12
ENDMDL
