MODEL 1
REMARK VINA RESULT:      -3.8      0.000      0.000
REMARK  Name = Noxytiolin
REMARK  5 active torsions:
REMARK  status: ('A' for Active; 'I' for Inactive)
REMARK    1  A    between atoms: C_1  and  N_2
REMARK    2  A    between atoms: N_2  and  C_3
REMARK    3  A    between atoms: C_3  and  N_5
REMARK    4  A    between atoms: N_5  and  C_6
REMARK    5  A    between atoms: C_6  and  O_7
REMARK                            x       y       z     vdW  Elec       q    Type
REMARK                         _______ _______ _______ _____ _____    ______ ____
ROOT
ATOM      1  C   UNL     1     -12.258   8.811 128.984  0.00  0.00    +0.000 C 
ATOM      2  S   UNL     1     -12.616   7.598 130.087  0.00  0.00    +0.000 S 
ENDROOT
BRANCH   1   4
ATOM      3  C   UNL     1     -10.954   7.864 127.074  0.00  0.00    +0.000 C 
ATOM      4  N   UNL     1     -11.141   8.801 128.172  0.00  0.00    +0.000 N 
ATOM      5  H   UNL     1     -10.408   9.476 128.330  0.00  0.00    +0.000 HD
ENDBRANCH   1   4
BRANCH   1   6
ATOM      6  N   UNL     1     -13.031   9.943 128.811  0.00  0.00    +0.000 N 
ATOM      7  H   UNL     1     -13.512  10.099 127.943  0.00  0.00    +0.000 HD
BRANCH   6   8
ATOM      8  C   UNL     1     -13.441  10.780 129.908  0.00  0.00    +0.000 C 
BRANCH   8   9
ATOM      9  O   UNL     1     -13.366  12.110 129.455  0.00  0.00    +0.000 OA
ATOM     10  H   UNL     1     -14.126  12.235 128.866  0.00  0.00    +0.000 HD
ENDBRANCH   8   9
ENDBRANCH   6   8
ENDBRANCH   1   6
TORSDOF 4
ENDMDL
MODEL 2
REMARK VINA RESULT:      -3.6      1.659      2.047
REMARK  Name = Noxytiolin
REMARK  5 active torsions:
REMARK  status: ('A' for Active; 'I' for Inactive)
REMARK    1  A    between atoms: C_1  and  N_2
REMARK    2  A    between atoms: N_2  and  C_3
REMARK    3  A    between atoms: C_3  and  N_5
REMARK    4  A    between atoms: N_5  and  C_6
REMARK    5  A    between atoms: C_6  and  O_7
REMARK                            x       y       z     vdW  Elec       q    Type
REMARK                         _______ _______ _______ _____ _____    ______ ____
ROOT
ATOM      1  C   UNL     1     -12.265   8.815 129.133  0.00  0.00    +0.000 C 
ATOM      2  S   UNL     1     -10.947   8.369 128.195  0.00  0.00    +0.000 S 
ENDROOT
BRANCH   1   4
ATOM      3  C   UNL     1     -12.130   6.824 130.637  0.00  0.00    +0.000 C 
ATOM      4  N   UNL     1     -12.688   8.109 130.241  0.00  0.00    +0.000 N 
ATOM      5  H   UNL     1     -13.419   8.491 130.823  0.00  0.00    +0.000 HD
ENDBRANCH   1   4
BRANCH   1   6
ATOM      6  N   UNL     1     -13.063   9.910 128.864  0.00  0.00    +0.000 N 
ATOM      7  H   UNL     1     -13.554   9.976 127.990  0.00  0.00    +0.000 HD
BRANCH   6   8
ATOM      8  C   UNL     1     -13.483  10.836 129.883  0.00  0.00    +0.000 C 
BRANCH   8   9
ATOM      9  O   UNL     1     -13.352  12.127 129.340  0.00  0.00    +0.000 OA
ATOM     10  H   UNL     1     -14.209  12.333 128.934  0.00  0.00    +0.000 HD
ENDBRANCH   8   9
ENDBRANCH   6   8
ENDBRANCH   1   6
TORSDOF 4
ENDMDL
MODEL 3
REMARK VINA RESULT:      -3.6      2.483      3.762
REMARK  Name = Noxytiolin
REMARK  5 active torsions:
REMARK  status: ('A' for Active; 'I' for Inactive)
REMARK    1  A    between atoms: C_1  and  N_2
REMARK    2  A    between atoms: N_2  and  C_3
REMARK    3  A    between atoms: C_3  and  N_5
REMARK    4  A    between atoms: N_5  and  C_6
REMARK    5  A    between atoms: C_6  and  O_7
REMARK                            x       y       z     vdW  Elec       q    Type
REMARK                         _______ _______ _______ _____ _____    ______ ____
ROOT
ATOM      1  C   UNL     1     -12.132   8.794 128.979  0.00  0.00    +0.000 C 
ATOM      2  S   UNL     1     -12.462   7.604 130.115  0.00  0.00    +0.000 S 
ENDROOT
BRANCH   1   4
ATOM      3  C   UNL     1     -13.445  10.723 129.874  0.00  0.00    +0.000 C 
ATOM      4  N   UNL     1     -12.926   9.907 128.786  0.00  0.00    +0.000 N 
ATOM      5  H   UNL     1     -13.164  10.189 127.846  0.00  0.00    +0.000 HD
ENDBRANCH   1   4
BRANCH   1   6
ATOM      6  N   UNL     1     -11.056   8.752 128.115  0.00  0.00    +0.000 N 
ATOM      7  H   UNL     1     -10.197   9.215 128.353  0.00  0.00    +0.000 HD
BRANCH   6   8
ATOM      8  C   UNL     1     -10.977   7.828 127.014  0.00  0.00    +0.000 C 
BRANCH   8   9
ATOM      9  O   UNL     1     -10.087   6.809 127.400  0.00  0.00    +0.000 OA
ATOM     10  H   UNL     1     -10.637   6.106 127.782  0.00  0.00    +0.000 HD
ENDBRANCH   8   9
ENDBRANCH   6   8
ENDBRANCH   1   6
TORSDOF 4
ENDMDL
MODEL 4
REMARK VINA RESULT:      -3.5      2.622      3.467
REMARK  Name = Noxytiolin
REMARK  5 active torsions:
REMARK  status: ('A' for Active; 'I' for Inactive)
REMARK    1  A    between atoms: C_1  and  N_2
REMARK    2  A    between atoms: N_2  and  C_3
REMARK    3  A    between atoms: C_3  and  N_5
REMARK    4  A    between atoms: N_5  and  C_6
REMARK    5  A    between atoms: C_6  and  O_7
REMARK                            x       y       z     vdW  Elec       q    Type
REMARK                         _______ _______ _______ _____ _____    ______ ____
ROOT
ATOM      1  C   UNL     1     -12.323   8.622 128.752  0.00  0.00    +0.000 C 
ATOM      2  S   UNL     1     -10.808   8.389 128.071  0.00  0.00    +0.000 S 
ENDROOT
BRANCH   1   4
ATOM      3  C   UNL     1     -13.344  10.577 129.929  0.00  0.00    +0.000 C 
ATOM      4  N   UNL     1     -12.994   9.829 128.730  0.00  0.00    +0.000 N 
ATOM      5  H   UNL     1     -13.259  10.233 127.843  0.00  0.00    +0.000 HD
ENDBRANCH   1   4
BRANCH   1   6
ATOM      6  N   UNL     1     -13.024   7.638 129.422  0.00  0.00    +0.000 N 
ATOM      7  H   UNL     1     -13.842   7.228 129.007  0.00  0.00    +0.000 HD
BRANCH   6   8
ATOM      8  C   UNL     1     -12.485   6.937 130.558  0.00  0.00    +0.000 C 
BRANCH   8   9
ATOM      9  O   UNL     1     -13.290   7.272 131.662  0.00  0.00    +0.000 OA
ATOM     10  H   UNL     1     -13.482   8.219 131.575  0.00  0.00    +0.000 HD
ENDBRANCH   8   9
ENDBRANCH   6   8
ENDBRANCH   1   6
TORSDOF 4
ENDMDL
MODEL 5
REMARK VINA RESULT:      -3.5      2.625      3.756
REMARK  Name = Noxytiolin
REMARK  5 active torsions:
REMARK  status: ('A' for Active; 'I' for Inactive)
REMARK    1  A    between atoms: C_1  and  N_2
REMARK    2  A    between atoms: N_2  and  C_3
REMARK    3  A    between atoms: C_3  and  N_5
REMARK    4  A    between atoms: N_5  and  C_6
REMARK    5  A    between atoms: C_6  and  O_7
REMARK                            x       y       z     vdW  Elec       q    Type
REMARK                         _______ _______ _______ _____ _____    ______ ____
ROOT
ATOM      1  C   UNL     1     -11.824   7.901 128.860  0.00  0.00    +0.000 C 
ATOM      2  S   UNL     1     -12.295   7.132 130.275  0.00  0.00    +0.000 S 
ENDROOT
BRANCH   1   4
ATOM      3  C   UNL     1     -13.191   9.959 129.237  0.00  0.00    +0.000 C 
ATOM      4  N   UNL     1     -12.388   9.075 128.403  0.00  0.00    +0.000 N 
ATOM      5  H   UNL     1     -12.243   9.356 127.445  0.00  0.00    +0.000 HD
ENDBRANCH   1   4
BRANCH   1   6
ATOM      6  N   UNL     1     -10.852   7.413 128.009  0.00  0.00    +0.000 N 
ATOM      7  H   UNL     1     -10.166   6.761 128.345  0.00  0.00    +0.000 HD
BRANCH   6   8
ATOM      8  C   UNL     1     -10.933   7.544 126.578  0.00  0.00    +0.000 C 
BRANCH   8   9
ATOM      9  O   UNL     1     -11.985   6.713 126.151  0.00  0.00    +0.000 OA
ATOM     10  H   UNL     1     -12.315   7.102 125.325  0.00  0.00    +0.000 HD
ENDBRANCH   8   9
ENDBRANCH   6   8
ENDBRANCH   1   6
TORSDOF 4
ENDMDL
MODEL 6
REMARK VINA RESULT:      -3.4      3.024      3.857
REMARK  Name = Noxytiolin
REMARK  5 active torsions:
REMARK  status: ('A' for Active; 'I' for Inactive)
REMARK    1  A    between atoms: C_1  and  N_2
REMARK    2  A    between atoms: N_2  and  C_3
REMARK    3  A    between atoms: C_3  and  N_5
REMARK    4  A    between atoms: N_5  and  C_6
REMARK    5  A    between atoms: C_6  and  O_7
REMARK                            x       y       z     vdW  Elec       q    Type
REMARK                         _______ _______ _______ _____ _____    ______ ____
ROOT
ATOM      1  C   UNL     1     -11.975   8.630 129.014  0.00  0.00    +0.000 C 
ATOM      2  S   UNL     1     -13.157   9.801 129.235  0.00  0.00    +0.000 S 
ENDROOT
BRANCH   1   4
ATOM      3  C   UNL     1     -12.691   7.244 130.966  0.00  0.00    +0.000 C 
ATOM      4  N   UNL     1     -11.872   7.492 129.788  0.00  0.00    +0.000 N 
ATOM      5  H   UNL     1     -11.203   6.779 129.537  0.00  0.00    +0.000 HD
ENDBRANCH   1   4
BRANCH   1   6
ATOM      6  N   UNL     1     -10.981   8.714 128.058  0.00  0.00    +0.000 N 
ATOM      7  H   UNL     1     -10.189   9.315 128.203  0.00  0.00    +0.000 HD
BRANCH   6   8
ATOM      8  C   UNL     1     -10.850   7.762 126.987  0.00  0.00    +0.000 C 
BRANCH   8   9
ATOM      9  O   UNL     1     -10.044   6.714 127.469  0.00  0.00    +0.000 OA
ATOM     10  H   UNL     1     -10.649   5.982 127.669  0.00  0.00    +0.000 HD
ENDBRANCH   8   9
ENDBRANCH   6   8
ENDBRANCH   1   6
TORSDOF 4
ENDMDL
MODEL 7
REMARK VINA RESULT:      -3.4      3.218      3.891
REMARK  Name = Noxytiolin
REMARK  5 active torsions:
REMARK  status: ('A' for Active; 'I' for Inactive)
REMARK    1  A    between atoms: C_1  and  N_2
REMARK    2  A    between atoms: N_2  and  C_3
REMARK    3  A    between atoms: C_3  and  N_5
REMARK    4  A    between atoms: N_5  and  C_6
REMARK    5  A    between atoms: C_6  and  O_7
REMARK                            x       y       z     vdW  Elec       q    Type
REMARK                         _______ _______ _______ _____ _____    ______ ____
ROOT
ATOM      1  C   UNL     1     -10.996   8.162 129.040  0.00  0.00    +0.000 C 
ATOM      2  S   UNL     1     -12.470   8.148 129.842  0.00  0.00    +0.000 S 
ENDROOT
BRANCH   1   4
ATOM      3  C   UNL     1      -9.690   6.746 130.632  0.00  0.00    +0.000 C 
ATOM      4  N   UNL     1      -9.802   7.795 129.629  0.00  0.00    +0.000 N 
ATOM      5  H   UNL     1      -8.951   8.264 129.357  0.00  0.00    +0.000 HD
ENDBRANCH   1   4
BRANCH   1   6
ATOM      6  N   UNL     1     -10.839   8.570 127.730  0.00  0.00    +0.000 N 
ATOM      7  H   UNL     1     -10.489   9.489 127.524  0.00  0.00    +0.000 HD
BRANCH   6   8
ATOM      8  C   UNL     1     -10.861   7.651 126.621  0.00  0.00    +0.000 C 
BRANCH   8   9
ATOM      9  O   UNL     1     -10.009   6.584 126.960  0.00  0.00    +0.000 OA
ATOM     10  H   UNL     1     -10.577   5.801 127.030  0.00  0.00    +0.000 HD
ENDBRANCH   8   9
ENDBRANCH   6   8
ENDBRANCH   1   6
TORSDOF 4
ENDMDL
MODEL 8
REMARK VINA RESULT:      -3.3      5.765      6.297
REMARK  Name = Noxytiolin
REMARK  5 active torsions:
REMARK  status: ('A' for Active; 'I' for Inactive)
REMARK    1  A    between atoms: C_1  and  N_2
REMARK    2  A    between atoms: N_2  and  C_3
REMARK    3  A    between atoms: C_3  and  N_5
REMARK    4  A    between atoms: N_5  and  C_6
REMARK    5  A    between atoms: C_6  and  O_7
REMARK                            x       y       z     vdW  Elec       q    Type
REMARK                         _______ _______ _______ _____ _____    ______ ____
ROOT
ATOM      1  C   UNL     1     -10.622   6.257 131.773  0.00  0.00    +0.000 C 
ATOM      2  S   UNL     1      -9.611   6.822 130.558  0.00  0.00    +0.000 S 
ENDROOT
BRANCH   1   4
ATOM      3  C   UNL     1     -12.781   7.370 131.186  0.00  0.00    +0.000 C 
ATOM      4  N   UNL     1     -11.999   6.245 131.678  0.00  0.00    +0.000 N 
ATOM      5  H   UNL     1     -12.508   5.418 131.954  0.00  0.00    +0.000 HD
ENDBRANCH   1   4
BRANCH   1   6
ATOM      6  N   UNL     1     -10.169   5.782 132.988  0.00  0.00    +0.000 N 
ATOM      7  H   UNL     1     -10.603   6.083 133.843  0.00  0.00    +0.000 HD
BRANCH   6   8
ATOM      8  C   UNL     1      -9.301   4.639 133.102  0.00  0.00    +0.000 C 
BRANCH   8   9
ATOM      9  O   UNL     1      -9.884   3.777 134.049  0.00  0.00    +0.000 OA
ATOM     10  H   UNL     1     -10.168   2.991 133.555  0.00  0.00    +0.000 HD
ENDBRANCH   8   9
ENDBRANCH   6   8
ENDBRANCH   1   6
TORSDOF 4
ENDMDL
MODEL 9
REMARK VINA RESULT:      -3.3      3.120      3.266
REMARK  Name = Noxytiolin
REMARK  5 active torsions:
REMARK  status: ('A' for Active; 'I' for Inactive)
REMARK    1  A    between atoms: C_1  and  N_2
REMARK    2  A    between atoms: N_2  and  C_3
REMARK    3  A    between atoms: C_3  and  N_5
REMARK    4  A    between atoms: N_5  and  C_6
REMARK    5  A    between atoms: C_6  and  O_7
REMARK                            x       y       z     vdW  Elec       q    Type
REMARK                         _______ _______ _______ _____ _____    ______ ____
ROOT
ATOM      1  C   UNL     1     -11.697   8.302 129.094  0.00  0.00    +0.000 C 
ATOM      2  S   UNL     1     -13.040   9.288 128.894  0.00  0.00    +0.000 S 
ENDROOT
BRANCH   1   4
ATOM      3  C   UNL     1     -10.877   7.854 126.776  0.00  0.00    +0.000 C 
ATOM      4  N   UNL     1     -10.672   8.210 128.173  0.00  0.00    +0.000 N 
ATOM      5  H   UNL     1      -9.725   8.401 128.464  0.00  0.00    +0.000 HD
ENDBRANCH   1   4
BRANCH   1   6
ATOM      6  N   UNL     1     -11.509   7.472 130.182  0.00  0.00    +0.000 N 
ATOM      7  H   UNL     1     -10.582   7.193 130.451  0.00  0.00    +0.000 HD
BRANCH   6   8
ATOM      8  C   UNL     1     -12.541   7.216 131.152  0.00  0.00    +0.000 C 
BRANCH   8   9
ATOM      9  O   UNL     1     -12.120   6.110 131.912  0.00  0.00    +0.000 OA
ATOM     10  H   UNL     1     -12.129   6.402 132.837  0.00  0.00    +0.000 HD
ENDBRANCH   8   9
ENDBRANCH   6   8
ENDBRANCH   1   6
TORSDOF 4
ENDMDL
