MODEL 1
REMARK VINA RESULT:      -6.3      0.000      0.000
REMARK  Name = Nylidrin
REMARK  11 active torsions:
REMARK  status: ('A' for Active; 'I' for Inactive)
REMARK    1  A    between atoms: C_1  and  C_2
REMARK    2  A    between atoms: C_2  and  C_3
REMARK    3  A    between atoms: C_2  and  N_11
REMARK    4  A    between atoms: C_3  and  C_4
REMARK    5  A    between atoms: C_4  and  C_5
REMARK    6  A    between atoms: N_11  and  C_12
REMARK    7  A    between atoms: C_12  and  C_13
REMARK    8  A    between atoms: C_12  and  C_14
REMARK    9  A    between atoms: C_14  and  O_15
REMARK   10  A    between atoms: C_14  and  C_16
REMARK   11  A    between atoms: C_19  and  O_20
REMARK                            x       y       z     vdW  Elec       q    Type
REMARK                         _______ _______ _______ _____ _____    ______ ____
ROOT
ATOM      1  C   UNL     1      -9.108   0.264 123.528  0.00  0.00    +0.000 C 
ATOM      2  C   UNL     1      -9.747   1.187 122.485  0.00  0.00    +0.000 C 
ENDROOT
BRANCH   1   3
ATOM      3  N   UNL     1      -9.586  -1.150 123.454  0.00  0.00    +0.000 NA
ATOM      4  H   UNL     1      -9.968  -1.401 124.373  0.00  0.00    +0.000 HD
BRANCH   3   6
ATOM      5  C   UNL     1      -7.230  -1.510 122.845  0.00  0.00    +0.000 C 
ATOM      6  C   UNL     1      -8.601  -2.165 123.031  0.00  0.00    +0.000 C 
BRANCH   6   7
ATOM      7  C   UNL     1      -8.440  -3.268 124.071  0.00  0.00    +0.000 C 
BRANCH   7   8
ATOM      8  C   UNL     1      -9.345  -3.229 125.276  0.00  0.00    +0.000 C 
BRANCH   8   9
ATOM      9  C   UNL     1      -8.486  -3.136 126.514  0.00  0.00    +0.000 A 
ATOM     10  C   UNL     1      -8.941  -3.711 127.705  0.00  0.00    +0.000 A 
ATOM     11  C   UNL     1      -8.244  -3.499 128.889  0.00  0.00    +0.000 A 
ATOM     12  C   UNL     1      -7.041  -2.795 128.873  0.00  0.00    +0.000 A 
ATOM     13  C   UNL     1      -6.519  -2.326 127.669  0.00  0.00    +0.000 A 
ATOM     14  C   UNL     1      -7.236  -2.502 126.487  0.00  0.00    +0.000 A 
ENDBRANCH   8   9
ENDBRANCH   7   8
ENDBRANCH   6   7
ENDBRANCH   3   6
ENDBRANCH   1   3
BRANCH   1  15
ATOM     15  C   UNL     1      -9.404   0.858 124.963  0.00  0.00    +0.000 C 
BRANCH  15  16
ATOM     16  C   UNL     1      -8.148   1.035 125.820  0.00  0.00    +0.000 A 
ATOM     17  C   UNL     1      -8.182   1.099 127.211  0.00  0.00    +0.000 A 
ATOM     18  C   UNL     1      -6.997   1.217 127.950  0.00  0.00    +0.000 A 
ATOM     19  C   UNL     1      -5.766   1.132 127.297  0.00  0.00    +0.000 A 
ATOM     20  C   UNL     1      -5.699   1.034 125.930  0.00  0.00    +0.000 A 
ATOM     21  C   UNL     1      -6.878   1.088 125.193  0.00  0.00    +0.000 A 
BRANCH  19  22
ATOM     22  O   UNL     1      -4.591   1.161 127.987  0.00  0.00    +0.000 OA
ATOM     23  H   UNL     1      -4.620   0.475 128.667  0.00  0.00    +0.000 HD
ENDBRANCH  19  22
ENDBRANCH  15  16
BRANCH  15  24
ATOM     24  O   UNL     1     -10.370   0.032 125.634  0.00  0.00    +0.000 OA
ATOM     25  H   UNL     1     -10.402   0.324 126.558  0.00  0.00    +0.000 HD
ENDBRANCH  15  24
ENDBRANCH   1  15
TORSDOF 9
ENDMDL
MODEL 2
REMARK VINA RESULT:      -6.2      1.891      4.658
REMARK  Name = Nylidrin
REMARK  11 active torsions:
REMARK  status: ('A' for Active; 'I' for Inactive)
REMARK    1  A    between atoms: C_1  and  C_2
REMARK    2  A    between atoms: C_2  and  C_3
REMARK    3  A    between atoms: C_2  and  N_11
REMARK    4  A    between atoms: C_3  and  C_4
REMARK    5  A    between atoms: C_4  and  C_5
REMARK    6  A    between atoms: N_11  and  C_12
REMARK    7  A    between atoms: C_12  and  C_13
REMARK    8  A    between atoms: C_12  and  C_14
REMARK    9  A    between atoms: C_14  and  O_15
REMARK   10  A    between atoms: C_14  and  C_16
REMARK   11  A    between atoms: C_19  and  O_20
REMARK                            x       y       z     vdW  Elec       q    Type
REMARK                         _______ _______ _______ _____ _____    ______ ____
ROOT
ATOM      1  C   UNL     1      -7.521  -0.279 127.999  0.00  0.00    +0.000 C 
ATOM      2  C   UNL     1      -7.809   0.678 129.161  0.00  0.00    +0.000 C 
ENDROOT
BRANCH   1   3
ATOM      3  N   UNL     1      -6.798  -1.522 128.407  0.00  0.00    +0.000 NA
ATOM      4  H   UNL     1      -5.883  -1.520 127.942  0.00  0.00    +0.000 HD
BRANCH   3   6
ATOM      5  C   UNL     1      -8.179  -3.282 129.431  0.00  0.00    +0.000 C 
ATOM      6  C   UNL     1      -7.484  -2.805 128.153  0.00  0.00    +0.000 C 
BRANCH   6   7
ATOM      7  C   UNL     1      -8.554  -2.672 127.075  0.00  0.00    +0.000 C 
BRANCH   7   8
ATOM      8  C   UNL     1      -8.573  -3.705 125.978  0.00  0.00    +0.000 C 
BRANCH   8   9
ATOM      9  C   UNL     1      -7.969  -3.093 124.737  0.00  0.00    +0.000 A 
ATOM     10  C   UNL     1      -6.581  -2.938 124.659  0.00  0.00    +0.000 A 
ATOM     11  C   UNL     1      -6.019  -2.235 123.600  0.00  0.00    +0.000 A 
ATOM     12  C   UNL     1      -6.830  -1.766 122.567  0.00  0.00    +0.000 A 
ATOM     13  C   UNL     1      -8.199  -2.026 122.577  0.00  0.00    +0.000 A 
ATOM     14  C   UNL     1      -8.770  -2.696 123.657  0.00  0.00    +0.000 A 
ENDBRANCH   8   9
ENDBRANCH   7   8
ENDBRANCH   6   7
ENDBRANCH   3   6
ENDBRANCH   1   3
BRANCH   1  15
ATOM     15  C   UNL     1      -6.680   0.502 126.912  0.00  0.00    +0.000 C 
BRANCH  15  16
ATOM     16  C   UNL     1      -7.468   0.808 125.636  0.00  0.00    +0.000 A 
ATOM     17  C   UNL     1      -8.845   0.622 125.531  0.00  0.00    +0.000 A 
ATOM     18  C   UNL     1      -9.523   0.961 124.353  0.00  0.00    +0.000 A 
ATOM     19  C   UNL     1      -8.839   1.614 123.326  0.00  0.00    +0.000 A 
ATOM     20  C   UNL     1      -7.489   1.841 123.413  0.00  0.00    +0.000 A 
ATOM     21  C   UNL     1      -6.793   1.351 124.514  0.00  0.00    +0.000 A 
BRANCH  19  22
ATOM     22  O   UNL     1      -9.480   2.032 122.198  0.00  0.00    +0.000 OA
ATOM     23  H   UNL     1      -9.271   2.965 122.056  0.00  0.00    +0.000 HD
ENDBRANCH  19  22
ENDBRANCH  15  16
BRANCH  15  24
ATOM     24  O   UNL     1      -5.484  -0.237 126.610  0.00  0.00    +0.000 OA
ATOM     25  H   UNL     1      -5.750  -1.155 126.449  0.00  0.00    +0.000 HD
ENDBRANCH  15  24
ENDBRANCH   1  15
TORSDOF 9
ENDMDL
MODEL 3
REMARK VINA RESULT:      -6.2      2.565      4.380
REMARK  Name = Nylidrin
REMARK  11 active torsions:
REMARK  status: ('A' for Active; 'I' for Inactive)
REMARK    1  A    between atoms: C_1  and  C_2
REMARK    2  A    between atoms: C_2  and  C_3
REMARK    3  A    between atoms: C_2  and  N_11
REMARK    4  A    between atoms: C_3  and  C_4
REMARK    5  A    between atoms: C_4  and  C_5
REMARK    6  A    between atoms: N_11  and  C_12
REMARK    7  A    between atoms: C_12  and  C_13
REMARK    8  A    between atoms: C_12  and  C_14
REMARK    9  A    between atoms: C_14  and  O_15
REMARK   10  A    between atoms: C_14  and  C_16
REMARK   11  A    between atoms: C_19  and  O_20
REMARK                            x       y       z     vdW  Elec       q    Type
REMARK                         _______ _______ _______ _____ _____    ______ ____
ROOT
ATOM      1  C   UNL     1      -7.019   0.471 126.522  0.00  0.00    +0.000 C 
ATOM      2  C   UNL     1      -5.814  -0.250 125.909  0.00  0.00    +0.000 C 
ENDROOT
BRANCH   1   3
ATOM      3  N   UNL     1      -7.883  -0.410 127.365  0.00  0.00    +0.000 NA
ATOM      4  H   UNL     1      -7.739  -0.143 128.346  0.00  0.00    +0.000 HD
BRANCH   3   6
ATOM      5  C   UNL     1      -7.747  -2.541 128.587  0.00  0.00    +0.000 C 
ATOM      6  C   UNL     1      -7.697  -1.867 127.214  0.00  0.00    +0.000 C 
BRANCH   6   7
ATOM      7  C   UNL     1      -8.796  -2.492 126.361  0.00  0.00    +0.000 C 
BRANCH   7   8
ATOM      8  C   UNL     1      -8.422  -3.662 125.487  0.00  0.00    +0.000 C 
BRANCH   8   9
ATOM      9  C   UNL     1      -7.510  -3.165 124.390  0.00  0.00    +0.000 A 
ATOM     10  C   UNL     1      -6.205  -3.660 124.311  0.00  0.00    +0.000 A 
ATOM     11  C   UNL     1      -5.303  -3.101 123.413  0.00  0.00    +0.000 A 
ATOM     12  C   UNL     1      -5.726  -2.112 122.526  0.00  0.00    +0.000 A 
ATOM     13  C   UNL     1      -7.058  -1.701 122.516  0.00  0.00    +0.000 A 
ATOM     14  C   UNL     1      -7.954  -2.231 123.442  0.00  0.00    +0.000 A 
ENDBRANCH   8   9
ENDBRANCH   7   8
ENDBRANCH   6   7
ENDBRANCH   3   6
ENDBRANCH   1   3
BRANCH   1  15
ATOM     15  C   UNL     1      -7.871   1.097 125.347  0.00  0.00    +0.000 C 
BRANCH  15  16
ATOM     16  C   UNL     1      -7.069   2.040 124.447  0.00  0.00    +0.000 A 
ATOM     17  C   UNL     1      -7.088   1.961 123.057  0.00  0.00    +0.000 A 
ATOM     18  C   UNL     1      -6.369   2.879 122.279  0.00  0.00    +0.000 A 
ATOM     19  C   UNL     1      -5.739   3.961 122.896  0.00  0.00    +0.000 A 
ATOM     20  C   UNL     1      -5.731   4.086 124.262  0.00  0.00    +0.000 A 
ATOM     21  C   UNL     1      -6.304   3.079 125.034  0.00  0.00    +0.000 A 
BRANCH  19  22
ATOM     22  O   UNL     1      -5.098   4.920 122.170  0.00  0.00    +0.000 OA
ATOM     23  H   UNL     1      -5.683   5.204 121.455  0.00  0.00    +0.000 HD
ENDBRANCH  19  22
ENDBRANCH  15  16
BRANCH  15  24
ATOM     24  O   UNL     1      -9.021   1.765 125.893  0.00  0.00    +0.000 OA
ATOM     25  H   UNL     1      -9.183   1.383 126.770  0.00  0.00    +0.000 HD
ENDBRANCH  15  24
ENDBRANCH   1  15
TORSDOF 9
ENDMDL
MODEL 4
REMARK VINA RESULT:      -6.1      1.786      4.866
REMARK  Name = Nylidrin
REMARK  11 active torsions:
REMARK  status: ('A' for Active; 'I' for Inactive)
REMARK    1  A    between atoms: C_1  and  C_2
REMARK    2  A    between atoms: C_2  and  C_3
REMARK    3  A    between atoms: C_2  and  N_11
REMARK    4  A    between atoms: C_3  and  C_4
REMARK    5  A    between atoms: C_4  and  C_5
REMARK    6  A    between atoms: N_11  and  C_12
REMARK    7  A    between atoms: C_12  and  C_13
REMARK    8  A    between atoms: C_12  and  C_14
REMARK    9  A    between atoms: C_14  and  O_15
REMARK   10  A    between atoms: C_14  and  C_16
REMARK   11  A    between atoms: C_19  and  O_20
REMARK                            x       y       z     vdW  Elec       q    Type
REMARK                         _______ _______ _______ _____ _____    ______ ____
ROOT
ATOM      1  C   UNL     1      -6.437  -0.335 128.282  0.00  0.00    +0.000 C 
ATOM      2  C   UNL     1      -5.835   0.441 129.458  0.00  0.00    +0.000 C 
ENDROOT
BRANCH   1   3
ATOM      3  N   UNL     1      -6.003  -1.764 128.218  0.00  0.00    +0.000 NA
ATOM      4  H   UNL     1      -5.557  -1.916 127.306  0.00  0.00    +0.000 HD
BRANCH   3   6
ATOM      5  C   UNL     1      -7.542  -2.712 129.886  0.00  0.00    +0.000 C 
ATOM      6  C   UNL     1      -7.044  -2.787 128.441  0.00  0.00    +0.000 C 
BRANCH   6   7
ATOM      7  C   UNL     1      -8.250  -2.576 127.532  0.00  0.00    +0.000 C 
BRANCH   7   8
ATOM      8  C   UNL     1      -8.584  -3.668 126.549  0.00  0.00    +0.000 C 
BRANCH   8   9
ATOM      9  C   UNL     1      -8.227  -3.187 125.163  0.00  0.00    +0.000 A 
ATOM     10  C   UNL     1      -6.883  -3.000 124.830  0.00  0.00    +0.000 A 
ATOM     11  C   UNL     1      -6.542  -2.407 123.620  0.00  0.00    +0.000 A 
ATOM     12  C   UNL     1      -7.536  -2.088 122.697  0.00  0.00    +0.000 A 
ATOM     13  C   UNL     1      -8.870  -2.386 122.971  0.00  0.00    +0.000 A 
ATOM     14  C   UNL     1      -9.218  -2.943 124.200  0.00  0.00    +0.000 A 
ENDBRANCH   8   9
ENDBRANCH   7   8
ENDBRANCH   6   7
ENDBRANCH   3   6
ENDBRANCH   1   3
BRANCH   1  15
ATOM     15  C   UNL     1      -6.043   0.409 126.944  0.00  0.00    +0.000 C 
BRANCH  15  16
ATOM     16  C   UNL     1      -7.236   0.684 126.025  0.00  0.00    +0.000 A 
ATOM     17  C   UNL     1      -7.096   1.042 124.687  0.00  0.00    +0.000 A 
ATOM     18  C   UNL     1      -8.224   1.239 123.878  0.00  0.00    +0.000 A 
ATOM     19  C   UNL     1      -9.492   0.944 124.381  0.00  0.00    +0.000 A 
ATOM     20  C   UNL     1      -9.660   0.557 125.686  0.00  0.00    +0.000 A 
ATOM     21  C   UNL     1      -8.552   0.527 126.527  0.00  0.00    +0.000 A 
BRANCH  19  22
ATOM     22  O   UNL     1     -10.607   1.045 123.602  0.00  0.00    +0.000 OA
ATOM     23  H   UNL     1     -10.909   0.153 123.384  0.00  0.00    +0.000 HD
ENDBRANCH  19  22
ENDBRANCH  15  16
BRANCH  15  24
ATOM     24  O   UNL     1      -5.031  -0.346 126.257  0.00  0.00    +0.000 OA
ATOM     25  H   UNL     1      -4.927   0.051 125.378  0.00  0.00    +0.000 HD
ENDBRANCH  15  24
ENDBRANCH   1  15
TORSDOF 9
ENDMDL
MODEL 5
REMARK VINA RESULT:      -6.0      3.793      5.212
REMARK  Name = Nylidrin
REMARK  11 active torsions:
REMARK  status: ('A' for Active; 'I' for Inactive)
REMARK    1  A    between atoms: C_1  and  C_2
REMARK    2  A    between atoms: C_2  and  C_3
REMARK    3  A    between atoms: C_2  and  N_11
REMARK    4  A    between atoms: C_3  and  C_4
REMARK    5  A    between atoms: C_4  and  C_5
REMARK    6  A    between atoms: N_11  and  C_12
REMARK    7  A    between atoms: C_12  and  C_13
REMARK    8  A    between atoms: C_12  and  C_14
REMARK    9  A    between atoms: C_14  and  O_15
REMARK   10  A    between atoms: C_14  and  C_16
REMARK   11  A    between atoms: C_19  and  O_20
REMARK                            x       y       z     vdW  Elec       q    Type
REMARK                         _______ _______ _______ _____ _____    ______ ____
ROOT
ATOM      1  C   UNL     1      -7.078   1.617 123.359  0.00  0.00    +0.000 C 
ATOM      2  C   UNL     1      -7.839   0.291 123.256  0.00  0.00    +0.000 C 
ENDROOT
BRANCH   1   3
ATOM      3  N   UNL     1      -6.749   2.015 124.762  0.00  0.00    +0.000 NA
ATOM      4  H   UNL     1      -5.994   2.709 124.722  0.00  0.00    +0.000 HD
BRANCH   3   6
ATOM      5  C   UNL     1      -5.101   1.305 126.443  0.00  0.00    +0.000 C 
ATOM      6  C   UNL     1      -6.381   0.930 125.693  0.00  0.00    +0.000 C 
BRANCH   6   7
ATOM      7  C   UNL     1      -7.466   0.687 126.737  0.00  0.00    +0.000 C 
BRANCH   7   8
ATOM      8  C   UNL     1      -7.066  -0.013 128.010  0.00  0.00    +0.000 C 
BRANCH   8   9
ATOM      9  C   UNL     1      -7.633  -1.412 127.983  0.00  0.00    +0.000 A 
ATOM     10  C   UNL     1      -8.164  -1.910 126.790  0.00  0.00    +0.000 A 
ATOM     11  C   UNL     1      -8.833  -3.128 126.781  0.00  0.00    +0.000 A 
ATOM     12  C   UNL     1      -8.891  -3.899 127.942  0.00  0.00    +0.000 A 
ATOM     13  C   UNL     1      -8.256  -3.465 129.104  0.00  0.00    +0.000 A 
ATOM     14  C   UNL     1      -7.619  -2.226 129.126  0.00  0.00    +0.000 A 
ENDBRANCH   8   9
ENDBRANCH   7   8
ENDBRANCH   6   7
ENDBRANCH   3   6
ENDBRANCH   1   3
BRANCH   1  15
ATOM     15  C   UNL     1      -7.946   2.743 122.668  0.00  0.00    +0.000 C 
BRANCH  15  16
ATOM     16  C   UNL     1      -7.222   3.456 121.524  0.00  0.00    +0.000 A 
ATOM     17  C   UNL     1      -7.868   3.883 120.366  0.00  0.00    +0.000 A 
ATOM     18  C   UNL     1      -7.164   4.571 119.368  0.00  0.00    +0.000 A 
ATOM     19  C   UNL     1      -5.840   4.951 119.595  0.00  0.00    +0.000 A 
ATOM     20  C   UNL     1      -5.186   4.575 120.741  0.00  0.00    +0.000 A 
ATOM     21  C   UNL     1      -5.841   3.748 121.649  0.00  0.00    +0.000 A 
BRANCH  19  22
ATOM     22  O   UNL     1      -5.147   5.691 118.685  0.00  0.00    +0.000 OA
ATOM     23  H   UNL     1      -5.349   5.356 117.801  0.00  0.00    +0.000 HD
ENDBRANCH  19  22
ENDBRANCH  15  16
BRANCH  15  24
ATOM     24  O   UNL     1      -8.387   3.684 123.661  0.00  0.00    +0.000 OA
ATOM     25  H   UNL     1      -7.626   3.877 124.228  0.00  0.00    +0.000 HD
ENDBRANCH  15  24
ENDBRANCH   1  15
TORSDOF 9
ENDMDL
MODEL 6
REMARK VINA RESULT:      -6.0      2.359      4.765
REMARK  Name = Nylidrin
REMARK  11 active torsions:
REMARK  status: ('A' for Active; 'I' for Inactive)
REMARK    1  A    between atoms: C_1  and  C_2
REMARK    2  A    between atoms: C_2  and  C_3
REMARK    3  A    between atoms: C_2  and  N_11
REMARK    4  A    between atoms: C_3  and  C_4
REMARK    5  A    between atoms: C_4  and  C_5
REMARK    6  A    between atoms: N_11  and  C_12
REMARK    7  A    between atoms: C_12  and  C_13
REMARK    8  A    between atoms: C_12  and  C_14
REMARK    9  A    between atoms: C_14  and  O_15
REMARK   10  A    between atoms: C_14  and  C_16
REMARK   11  A    between atoms: C_19  and  O_20
REMARK                            x       y       z     vdW  Elec       q    Type
REMARK                         _______ _______ _______ _____ _____    ______ ____
ROOT
ATOM      1  C   UNL     1      -6.179   3.465 125.719  0.00  0.00    +0.000 C 
ATOM      2  C   UNL     1      -5.438   4.550 124.931  0.00  0.00    +0.000 C 
ENDROOT
BRANCH   1   3
ATOM      3  N   UNL     1      -5.881   2.075 125.257  0.00  0.00    +0.000 NA
ATOM      4  H   UNL     1      -6.728   1.704 124.812  0.00  0.00    +0.000 HD
BRANCH   3   6
ATOM      5  C   UNL     1      -6.142   1.352 127.594  0.00  0.00    +0.000 C 
ATOM      6  C   UNL     1      -5.397   1.123 126.277  0.00  0.00    +0.000 C 
BRANCH   6   7
ATOM      7  C   UNL     1      -5.639  -0.324 125.862  0.00  0.00    +0.000 C 
BRANCH   7   8
ATOM      8  C   UNL     1      -6.086  -0.579 124.445  0.00  0.00    +0.000 C 
BRANCH   8   9
ATOM      9  C   UNL     1      -7.200  -1.598 124.474  0.00  0.00    +0.000 A 
ATOM     10  C   UNL     1      -7.763  -2.028 123.269  0.00  0.00    +0.000 A 
ATOM     11  C   UNL     1      -8.891  -2.840 123.279  0.00  0.00    +0.000 A 
ATOM     12  C   UNL     1      -9.403  -3.305 124.489  0.00  0.00    +0.000 A 
ATOM     13  C   UNL     1      -8.772  -2.981 125.689  0.00  0.00    +0.000 A 
ATOM     14  C   UNL     1      -7.665  -2.134 125.684  0.00  0.00    +0.000 A 
ENDBRANCH   8   9
ENDBRANCH   7   8
ENDBRANCH   6   7
ENDBRANCH   3   6
ENDBRANCH   1   3
BRANCH   1  15
ATOM     15  C   UNL     1      -7.731   3.748 125.613  0.00  0.00    +0.000 C 
BRANCH  15  16
ATOM     16  C   UNL     1      -8.487   2.697 124.796  0.00  0.00    +0.000 A 
ATOM     17  C   UNL     1      -9.179   1.638 125.378  0.00  0.00    +0.000 A 
ATOM     18  C   UNL     1      -9.893   0.729 124.585  0.00  0.00    +0.000 A 
ATOM     19  C   UNL     1     -10.023   0.964 123.215  0.00  0.00    +0.000 A 
ATOM     20  C   UNL     1      -9.382   2.019 122.617  0.00  0.00    +0.000 A 
ATOM     21  C   UNL     1      -8.539   2.817 123.385  0.00  0.00    +0.000 A 
BRANCH  19  22
ATOM     22  O   UNL     1     -10.776   0.150 122.422  0.00  0.00    +0.000 OA
ATOM     23  H   UNL     1     -10.180  -0.366 121.863  0.00  0.00    +0.000 HD
ENDBRANCH  19  22
ENDBRANCH  15  16
BRANCH  15  24
ATOM     24  O   UNL     1      -7.941   5.064 125.075  0.00  0.00    +0.000 OA
ATOM     25  H   UNL     1      -8.864   5.301 125.254  0.00  0.00    +0.000 HD
ENDBRANCH  15  24
ENDBRANCH   1  15
TORSDOF 9
ENDMDL
MODEL 7
REMARK VINA RESULT:      -5.9      6.573      8.375
REMARK  Name = Nylidrin
REMARK  11 active torsions:
REMARK  status: ('A' for Active; 'I' for Inactive)
REMARK    1  A    between atoms: C_1  and  C_2
REMARK    2  A    between atoms: C_2  and  C_3
REMARK    3  A    between atoms: C_2  and  N_11
REMARK    4  A    between atoms: C_3  and  C_4
REMARK    5  A    between atoms: C_4  and  C_5
REMARK    6  A    between atoms: N_11  and  C_12
REMARK    7  A    between atoms: C_12  and  C_13
REMARK    8  A    between atoms: C_12  and  C_14
REMARK    9  A    between atoms: C_14  and  O_15
REMARK   10  A    between atoms: C_14  and  C_16
REMARK   11  A    between atoms: C_19  and  O_20
REMARK                            x       y       z     vdW  Elec       q    Type
REMARK                         _______ _______ _______ _____ _____    ______ ____
ROOT
ATOM      1  C   UNL     1      -4.716   5.581 130.228  0.00  0.00    +0.000 C 
ATOM      2  C   UNL     1      -3.285   5.406 130.749  0.00  0.00    +0.000 C 
ENDROOT
BRANCH   1   3
ATOM      3  N   UNL     1      -4.803   5.711 128.741  0.00  0.00    +0.000 NA
ATOM      4  H   UNL     1      -5.374   6.537 128.531  0.00  0.00    +0.000 HD
BRANCH   3   6
ATOM      5  C   UNL     1      -4.159   3.738 127.419  0.00  0.00    +0.000 C 
ATOM      6  C   UNL     1      -5.324   4.544 128.000  0.00  0.00    +0.000 C 
BRANCH   6   7
ATOM      7  C   UNL     1      -6.119   3.608 128.904  0.00  0.00    +0.000 C 
BRANCH   7   8
ATOM      8  C   UNL     1      -7.623   3.666 128.819  0.00  0.00    +0.000 C 
BRANCH   8   9
ATOM      9  C   UNL     1      -8.193   3.135 130.112  0.00  0.00    +0.000 A 
ATOM     10  C   UNL     1      -7.322   2.755 131.138  0.00  0.00    +0.000 A 
ATOM     11  C   UNL     1      -7.816   2.117 132.269  0.00  0.00    +0.000 A 
ATOM     12  C   UNL     1      -9.191   1.941 132.425  0.00  0.00    +0.000 A 
ATOM     13  C   UNL     1     -10.074   2.428 131.463  0.00  0.00    +0.000 A 
ATOM     14  C   UNL     1      -9.578   3.033 130.309  0.00  0.00    +0.000 A 
ENDBRANCH   8   9
ENDBRANCH   7   8
ENDBRANCH   6   7
ENDBRANCH   3   6
ENDBRANCH   1   3
BRANCH   1  15
ATOM     15  C   UNL     1      -5.342   6.858 130.918  0.00  0.00    +0.000 C 
BRANCH  15  16
ATOM     16  C   UNL     1      -6.750   6.624 131.469  0.00  0.00    +0.000 A 
ATOM     17  C   UNL     1      -7.905   6.900 130.740  0.00  0.00    +0.000 A 
ATOM     18  C   UNL     1      -9.170   6.625 131.276  0.00  0.00    +0.000 A 
ATOM     19  C   UNL     1      -9.272   5.946 132.492  0.00  0.00    +0.000 A 
ATOM     20  C   UNL     1      -8.151   5.631 133.218  0.00  0.00    +0.000 A 
ATOM     21  C   UNL     1      -6.909   6.057 132.758  0.00  0.00    +0.000 A 
BRANCH  19  22
ATOM     22  O   UNL     1     -10.482   5.589 133.009  0.00  0.00    +0.000 OA
ATOM     23  H   UNL     1     -10.382   5.466 133.962  0.00  0.00    +0.000 HD
ENDBRANCH  19  22
ENDBRANCH  15  16
BRANCH  15  24
ATOM     24  O   UNL     1      -5.330   7.957 129.992  0.00  0.00    +0.000 OA
ATOM     25  H   UNL     1      -5.406   8.771 130.514  0.00  0.00    +0.000 HD
ENDBRANCH  15  24
ENDBRANCH   1  15
TORSDOF 9
ENDMDL
MODEL 8
REMARK VINA RESULT:      -5.9      7.332      9.626
REMARK  Name = Nylidrin
REMARK  11 active torsions:
REMARK  status: ('A' for Active; 'I' for Inactive)
REMARK    1  A    between atoms: C_1  and  C_2
REMARK    2  A    between atoms: C_2  and  C_3
REMARK    3  A    between atoms: C_2  and  N_11
REMARK    4  A    between atoms: C_3  and  C_4
REMARK    5  A    between atoms: C_4  and  C_5
REMARK    6  A    between atoms: N_11  and  C_12
REMARK    7  A    between atoms: C_12  and  C_13
REMARK    8  A    between atoms: C_12  and  C_14
REMARK    9  A    between atoms: C_14  and  O_15
REMARK   10  A    between atoms: C_14  and  C_16
REMARK   11  A    between atoms: C_19  and  O_20
REMARK                            x       y       z     vdW  Elec       q    Type
REMARK                         _______ _______ _______ _____ _____    ______ ____
ROOT
ATOM      1  C   UNL     1      -8.260   6.069 131.283  0.00  0.00    +0.000 C 
ATOM      2  C   UNL     1      -7.902   4.861 130.410  0.00  0.00    +0.000 C 
ENDROOT
BRANCH   1   3
ATOM      3  N   UNL     1      -7.516   6.116 132.579  0.00  0.00    +0.000 NA
ATOM      4  H   UNL     1      -7.251   7.093 132.753  0.00  0.00    +0.000 HD
BRANCH   3   6
ATOM      5  C   UNL     1      -5.085   6.107 132.959  0.00  0.00    +0.000 C 
ATOM      6  C   UNL     1      -6.326   5.250 132.696  0.00  0.00    +0.000 C 
BRANCH   6   7
ATOM      7  C   UNL     1      -6.454   4.266 133.854  0.00  0.00    +0.000 C 
BRANCH   7   8
ATOM      8  C   UNL     1      -7.842   3.864 134.280  0.00  0.00    +0.000 C 
BRANCH   8   9
ATOM      9  C   UNL     1      -8.285   2.702 133.423  0.00  0.00    +0.000 A 
ATOM     10  C   UNL     1      -7.397   1.647 133.191  0.00  0.00    +0.000 A 
ATOM     11  C   UNL     1      -7.725   0.650 132.280  0.00  0.00    +0.000 A 
ATOM     12  C   UNL     1      -8.978   0.649 131.669  0.00  0.00    +0.000 A 
ATOM     13  C   UNL     1      -9.916   1.630 131.990  0.00  0.00    +0.000 A 
ATOM     14  C   UNL     1      -9.575   2.653 132.873  0.00  0.00    +0.000 A 
ENDBRANCH   8   9
ENDBRANCH   7   8
ENDBRANCH   6   7
ENDBRANCH   3   6
ENDBRANCH   1   3
BRANCH   1  15
ATOM     15  C   UNL     1      -9.816   6.041 131.555  0.00  0.00    +0.000 C 
BRANCH  15  16
ATOM     16  C   UNL     1     -10.606   7.015 130.677  0.00  0.00    +0.000 A 
ATOM     17  C   UNL     1     -10.079   7.598 129.527  0.00  0.00    +0.000 A 
ATOM     18  C   UNL     1     -10.862   8.449 128.735  0.00  0.00    +0.000 A 
ATOM     19  C   UNL     1     -12.219   8.606 129.024  0.00  0.00    +0.000 A 
ATOM     20  C   UNL     1     -12.776   8.016 130.131  0.00  0.00    +0.000 A 
ATOM     21  C   UNL     1     -11.953   7.312 131.004  0.00  0.00    +0.000 A 
BRANCH  19  22
ATOM     22  O   UNL     1     -13.033   9.360 128.232  0.00  0.00    +0.000 OA
ATOM     23  H   UNL     1     -13.087   8.940 127.363  0.00  0.00    +0.000 HD
ENDBRANCH  19  22
ENDBRANCH  15  16
BRANCH  15  24
ATOM     24  O   UNL     1     -10.063   6.292 132.949  0.00  0.00    +0.000 OA
ATOM     25  H   UNL     1     -11.003   6.116 133.108  0.00  0.00    +0.000 HD
ENDBRANCH  15  24
ENDBRANCH   1  15
TORSDOF 9
ENDMDL
MODEL 9
REMARK VINA RESULT:      -5.9      2.553      4.303
REMARK  Name = Nylidrin
REMARK  11 active torsions:
REMARK  status: ('A' for Active; 'I' for Inactive)
REMARK    1  A    between atoms: C_1  and  C_2
REMARK    2  A    between atoms: C_2  and  C_3
REMARK    3  A    between atoms: C_2  and  N_11
REMARK    4  A    between atoms: C_3  and  C_4
REMARK    5  A    between atoms: C_4  and  C_5
REMARK    6  A    between atoms: N_11  and  C_12
REMARK    7  A    between atoms: C_12  and  C_13
REMARK    8  A    between atoms: C_12  and  C_14
REMARK    9  A    between atoms: C_14  and  O_15
REMARK   10  A    between atoms: C_14  and  C_16
REMARK   11  A    between atoms: C_19  and  O_20
REMARK                            x       y       z     vdW  Elec       q    Type
REMARK                         _______ _______ _______ _____ _____    ______ ____
ROOT
ATOM      1  C   UNL     1      -7.604  -2.648 124.654  0.00  0.00    +0.000 C 
ATOM      2  C   UNL     1      -6.363  -3.404 124.165  0.00  0.00    +0.000 C 
ENDROOT
BRANCH   1   3
ATOM      3  N   UNL     1      -8.546  -3.491 125.451  0.00  0.00    +0.000 NA
ATOM      4  H   UNL     1      -9.389  -3.641 124.884  0.00  0.00    +0.000 HD
BRANCH   3   6
ATOM      5  C   UNL     1      -9.157  -4.162 127.738  0.00  0.00    +0.000 C 
ATOM      6  C   UNL     1      -8.927  -2.986 126.785  0.00  0.00    +0.000 C 
BRANCH   6   7
ATOM      7  C   UNL     1      -7.835  -2.114 127.394  0.00  0.00    +0.000 C 
BRANCH   7   8
ATOM      8  C   UNL     1      -7.746  -2.052 128.897  0.00  0.00    +0.000 C 
BRANCH   8   9
ATOM      9  C   UNL     1      -6.441  -2.682 129.323  0.00  0.00    +0.000 A 
ATOM     10  C   UNL     1      -5.241  -2.177 128.814  0.00  0.00    +0.000 A 
ATOM     11  C   UNL     1      -4.045  -2.840 129.065  0.00  0.00    +0.000 A 
ATOM     12  C   UNL     1      -4.029  -3.953 129.903  0.00  0.00    +0.000 A 
ATOM     13  C   UNL     1      -5.204  -4.389 130.514  0.00  0.00    +0.000 A 
ATOM     14  C   UNL     1      -6.410  -3.750 130.232  0.00  0.00    +0.000 A 
ENDBRANCH   8   9
ENDBRANCH   7   8
ENDBRANCH   6   7
ENDBRANCH   3   6
ENDBRANCH   1   3
BRANCH   1  15
ATOM     15  C   UNL     1      -8.348  -2.050 123.395  0.00  0.00    +0.000 C 
BRANCH  15  16
ATOM     16  C   UNL     1      -8.323  -0.520 123.343  0.00  0.00    +0.000 A 
ATOM     17  C   UNL     1      -7.151   0.224 123.450  0.00  0.00    +0.000 A 
ATOM     18  C   UNL     1      -7.180   1.621 123.351  0.00  0.00    +0.000 A 
ATOM     19  C   UNL     1      -8.371   2.264 123.007  0.00  0.00    +0.000 A 
ATOM     20  C   UNL     1      -9.536   1.555 122.861  0.00  0.00    +0.000 A 
ATOM     21  C   UNL     1      -9.531   0.189 123.127  0.00  0.00    +0.000 A 
BRANCH  19  22
ATOM     22  O   UNL     1      -8.424   3.613 122.821  0.00  0.00    +0.000 OA
ATOM     23  H   UNL     1      -8.699   4.025 123.651  0.00  0.00    +0.000 HD
ENDBRANCH  19  22
ENDBRANCH  15  16
BRANCH  15  24
ATOM     24  O   UNL     1      -9.698  -2.542 123.359  0.00  0.00    +0.000 OA
ATOM     25  H   UNL     1     -10.148  -2.198 124.146  0.00  0.00    +0.000 HD
ENDBRANCH  15  24
ENDBRANCH   1  15
TORSDOF 9
ENDMDL
