MODEL 1
REMARK VINA RESULT:      -8.5      0.000      0.000
REMARK  Name = Obeticholic acid
REMARK  12 active torsions:
REMARK  status: ('A' for Active; 'I' for Inactive)
REMARK    1  A    between atoms: C_2  and  C_29
REMARK    2  A    between atoms: C_9  and  O_10
REMARK    3  A    between atoms: C_11  and  C_12
REMARK    4  A    between atoms: C_12  and  C_13
REMARK    5  A    between atoms: C_17  and  O_18
REMARK    6  A    between atoms: C_21  and  C_22
REMARK    7  A    between atoms: C_27  and  C_28
REMARK    8  A    between atoms: C_29  and  C_30
REMARK    9  A    between atoms: C_29  and  C_31
REMARK   10  A    between atoms: C_31  and  C_32
REMARK   11  A    between atoms: C_32  and  C_33
REMARK   12  A    between atoms: C_33  and  O_34
REMARK                            x       y       z     vdW  Elec       q    Type
REMARK                         _______ _______ _______ _____ _____    ______ ____
ROOT
ATOM      1  C   UNL     1      -7.160   1.535 123.323  0.00  0.00    +0.000 C 
ATOM      2  C   UNL     1      -8.079   1.405 124.408  0.00  0.00    +0.000 C 
ATOM      3  C   UNL     1      -6.742   0.381 124.432  0.00  0.00    +0.000 C 
ATOM      4  C   UNL     1      -7.675  -0.654 124.695  0.00  0.00    +0.000 C 
ATOM      5  C   UNL     1      -7.269  -1.164 126.042  0.00  0.00    +0.000 C 
ATOM      6  C   UNL     1      -7.641   0.000 126.949  0.00  0.00    +0.000 C 
ATOM      7  C   UNL     1      -7.304  -0.391 128.298  0.00  0.00    +0.000 C 
ATOM      8  C   UNL     1      -8.278  -1.533 128.567  0.00  0.00    +0.000 C 
ATOM      9  C   UNL     1      -7.985  -1.781 129.895  0.00  0.00    +0.000 C 
ATOM     10  C   UNL     1      -7.887  -1.046 131.084  0.00  0.00    +0.000 C 
ATOM     11  C   UNL     1      -7.095  -2.670 131.185  0.00  0.00    +0.000 C 
ATOM     12  C   UNL     1      -6.862  -3.517 129.328  0.00  0.00    +0.000 C 
ATOM     13  C   UNL     1      -7.974  -2.920 128.019  0.00  0.00    +0.000 C 
ATOM     14  C   UNL     1      -8.901  -4.109 128.147  0.00  0.00    +0.000 C 
ATOM     15  C   UNL     1      -8.004  -2.450 126.465  0.00  0.00    +0.000 C 
ATOM     16  C   UNL     1      -7.672  -3.316 125.306  0.00  0.00    +0.000 C 
ATOM     17  C   UNL     1      -8.061  -2.376 123.891  0.00  0.00    +0.000 C 
ATOM     18  C   UNL     1      -7.317  -0.678 123.262  0.00  0.00    +0.000 C 
ATOM     19  C   UNL     1      -6.345  -1.961 122.473  0.00  0.00    +0.000 C 
ENDROOT
BRANCH   6  20
ATOM     20  O   UNL     1      -6.906   1.212 126.825  0.00  0.00    +0.000 OA
ATOM     21  H   UNL     1      -7.086   1.586 125.949  0.00  0.00    +0.000 HD
ENDBRANCH   6  20
BRANCH   7  22
ATOM     22  C   UNL     1      -5.660  -0.414 128.426  0.00  0.00    +0.000 C 
ATOM     23  C   UNL     1      -4.861   0.612 129.190  0.00  0.00    +0.000 C 
ENDBRANCH   7  22
BRANCH  10  24
ATOM     24  O   UNL     1      -7.182   0.183 130.972  0.00  0.00    +0.000 OA
ATOM     25  H   UNL     1      -6.966   0.511 130.090  0.00  0.00    +0.000 HD
ENDBRANCH  10  24
BRANCH   1  26
ATOM     26  C   UNL     1      -6.360   3.346 123.411  0.00  0.00    +0.000 C 
ATOM     27  C   UNL     1      -5.609   3.955 122.033  0.00  0.00    +0.000 C 
BRANCH  26  28
ATOM     28  C   UNL     1      -5.430   4.117 124.510  0.00  0.00    +0.000 C 
BRANCH  28  29
ATOM     29  C   UNL     1      -6.300   5.169 125.092  0.00  0.00    +0.000 C 
BRANCH  29  30
ATOM     30  C   UNL     1      -7.503   4.711 125.848  0.00  0.00    +0.000 C 
ATOM     31  O   UNL     1      -7.367   4.023 126.852  0.00  0.00    +0.000 OA
BRANCH  30  32
ATOM     32  O   UNL     1      -8.721   5.084 125.413  0.00  0.00    +0.000 OA
ATOM     33  H   UNL     1      -9.507   4.891 125.957  0.00  0.00    +0.000 HD
ENDBRANCH  30  32
ENDBRANCH  29  30
ENDBRANCH  28  29
ENDBRANCH  26  28
ENDBRANCH   1  26
TORSDOF 8
ENDMDL
MODEL 2
REMARK VINA RESULT:      -8.1      6.342      8.695
REMARK  Name = Obeticholic acid
REMARK  12 active torsions:
REMARK  status: ('A' for Active; 'I' for Inactive)
REMARK    1  A    between atoms: C_2  and  C_29
REMARK    2  A    between atoms: C_9  and  O_10
REMARK    3  A    between atoms: C_11  and  C_12
REMARK    4  A    between atoms: C_12  and  C_13
REMARK    5  A    between atoms: C_17  and  O_18
REMARK    6  A    between atoms: C_21  and  C_22
REMARK    7  A    between atoms: C_27  and  C_28
REMARK    8  A    between atoms: C_29  and  C_30
REMARK    9  A    between atoms: C_29  and  C_31
REMARK   10  A    between atoms: C_31  and  C_32
REMARK   11  A    between atoms: C_32  and  C_33
REMARK   12  A    between atoms: C_33  and  O_34
REMARK                            x       y       z     vdW  Elec       q    Type
REMARK                         _______ _______ _______ _____ _____    ______ ____
ROOT
ATOM      1  C   UNL     1     -10.630   5.769 131.151  0.00  0.00    +0.000 C 
ATOM      2  C   UNL     1      -9.710   6.436 132.014  0.00  0.00    +0.000 C 
ATOM      3  C   UNL     1      -9.073   5.224 131.034  0.00  0.00    +0.000 C 
ATOM      4  C   UNL     1      -8.447   4.747 132.213  0.00  0.00    +0.000 C 
ATOM      5  C   UNL     1      -6.986   4.857 131.907  0.00  0.00    +0.000 C 
ATOM      6  C   UNL     1      -6.777   6.364 131.880  0.00  0.00    +0.000 C 
ATOM      7  C   UNL     1      -5.377   6.591 131.606  0.00  0.00    +0.000 C 
ATOM      8  C   UNL     1      -4.699   6.040 132.856  0.00  0.00    +0.000 C 
ATOM      9  C   UNL     1      -3.390   6.390 132.583  0.00  0.00    +0.000 C 
ATOM     10  C   UNL     1      -2.685   7.544 132.218  0.00  0.00    +0.000 C 
ATOM     11  C   UNL     1      -1.752   6.021 131.928  0.00  0.00    +0.000 C 
ATOM     12  C   UNL     1      -2.956   4.360 132.044  0.00  0.00    +0.000 C 
ATOM     13  C   UNL     1      -4.494   4.539 132.996  0.00  0.00    +0.000 C 
ATOM     14  C   UNL     1      -3.914   3.868 134.222  0.00  0.00    +0.000 C 
ATOM     15  C   UNL     1      -6.081   4.193 132.964  0.00  0.00    +0.000 C 
ATOM     16  C   UNL     1      -6.655   2.825 132.956  0.00  0.00    +0.000 C 
ATOM     17  C   UNL     1      -8.377   3.036 133.122  0.00  0.00    +0.000 C 
ATOM     18  C   UNL     1      -9.656   3.941 131.948  0.00  0.00    +0.000 C 
ATOM     19  C   UNL     1      -9.645   2.225 131.431  0.00  0.00    +0.000 C 
ENDROOT
BRANCH   6  20
ATOM     20  O   UNL     1      -7.384   7.108 130.831  0.00  0.00    +0.000 OA
ATOM     21  H   UNL     1      -8.207   6.660 130.580  0.00  0.00    +0.000 HD
ENDBRANCH   6  20
BRANCH   7  22
ATOM     22  C   UNL     1      -5.092   6.176 130.036  0.00  0.00    +0.000 C 
ATOM     23  C   UNL     1      -5.195   4.768 129.506  0.00  0.00    +0.000 C 
ENDBRANCH   7  22
BRANCH  10  24
ATOM     24  O   UNL     1      -3.293   8.317 131.192  0.00  0.00    +0.000 OA
ATOM     25  H   UNL     1      -3.479   7.893 130.344  0.00  0.00    +0.000 HD
ENDBRANCH  10  24
BRANCH   1  26
ATOM     26  C   UNL     1     -11.328   7.095 129.855  0.00  0.00    +0.000 C 
ATOM     27  C   UNL     1     -12.717   6.708 128.985  0.00  0.00    +0.000 C 
BRANCH  26  28
ATOM     28  C   UNL     1     -10.632   8.039 128.719  0.00  0.00    +0.000 C 
BRANCH  28  29
ATOM     29  C   UNL     1     -11.434   7.832 127.489  0.00  0.00    +0.000 C 
BRANCH  29  30
ATOM     30  C   UNL     1     -10.697   7.408 126.262  0.00  0.00    +0.000 C 
ATOM     31  O   UNL     1     -10.029   6.382 126.277  0.00  0.00    +0.000 OA
BRANCH  30  32
ATOM     32  O   UNL     1     -10.799   8.163 125.152  0.00  0.00    +0.000 OA
ATOM     33  H   UNL     1     -10.043   8.223 124.539  0.00  0.00    +0.000 HD
ENDBRANCH  30  32
ENDBRANCH  29  30
ENDBRANCH  28  29
ENDBRANCH  26  28
ENDBRANCH   1  26
TORSDOF 8
ENDMDL
MODEL 3
REMARK VINA RESULT:      -7.9      2.536      5.400
REMARK  Name = Obeticholic acid
REMARK  12 active torsions:
REMARK  status: ('A' for Active; 'I' for Inactive)
REMARK    1  A    between atoms: C_2  and  C_29
REMARK    2  A    between atoms: C_9  and  O_10
REMARK    3  A    between atoms: C_11  and  C_12
REMARK    4  A    between atoms: C_12  and  C_13
REMARK    5  A    between atoms: C_17  and  O_18
REMARK    6  A    between atoms: C_21  and  C_22
REMARK    7  A    between atoms: C_27  and  C_28
REMARK    8  A    between atoms: C_29  and  C_30
REMARK    9  A    between atoms: C_29  and  C_31
REMARK   10  A    between atoms: C_31  and  C_32
REMARK   11  A    between atoms: C_32  and  C_33
REMARK   12  A    between atoms: C_33  and  O_34
REMARK                            x       y       z     vdW  Elec       q    Type
REMARK                         _______ _______ _______ _____ _____    ______ ____
ROOT
ATOM      1  C   UNL     1      -7.434  -2.689 126.184  0.00  0.00    +0.000 C 
ATOM      2  C   UNL     1      -8.470  -1.748 126.465  0.00  0.00    +0.000 C 
ATOM      3  C   UNL     1      -7.023  -1.542 127.302  0.00  0.00    +0.000 C 
ATOM      4  C   UNL     1      -7.834  -1.423 128.459  0.00  0.00    +0.000 C 
ATOM      5  C   UNL     1      -7.555  -0.036 128.946  0.00  0.00    +0.000 C 
ATOM      6  C   UNL     1      -8.205   0.818 127.867  0.00  0.00    +0.000 C 
ATOM      7  C   UNL     1      -8.010   2.199 128.247  0.00  0.00    +0.000 C 
ATOM      8  C   UNL     1      -8.848   2.316 129.516  0.00  0.00    +0.000 C 
ATOM      9  C   UNL     1      -8.713   3.671 129.758  0.00  0.00    +0.000 C 
ATOM     10  C   UNL     1      -8.883   4.867 129.050  0.00  0.00    +0.000 C 
ATOM     11  C   UNL     1      -7.900   5.067 130.556  0.00  0.00    +0.000 C 
ATOM     12  C   UNL     1      -7.297   3.256 131.313  0.00  0.00    +0.000 C 
ATOM     13  C   UNL     1      -8.285   1.807 130.834  0.00  0.00    +0.000 C 
ATOM     14  C   UNL     1      -9.051   1.791 132.139  0.00  0.00    +0.000 C 
ATOM     15  C   UNL     1      -8.161   0.267 130.331  0.00  0.00    +0.000 C 
ATOM     16  C   UNL     1      -7.556  -0.839 131.112  0.00  0.00    +0.000 C 
ATOM     17  C   UNL     1      -7.867  -2.288 130.194  0.00  0.00    +0.000 C 
ATOM     18  C   UNL     1      -7.279  -2.790 128.396  0.00  0.00    +0.000 C 
ATOM     19  C   UNL     1      -6.041  -3.443 129.516  0.00  0.00    +0.000 C 
ENDROOT
BRANCH   6  20
ATOM     20  O   UNL     1      -7.631   0.810 126.566  0.00  0.00    +0.000 OA
ATOM     21  H   UNL     1      -7.716   1.702 126.194  0.00  0.00    +0.000 HD
ENDBRANCH   6  20
BRANCH   7  22
ATOM     22  C   UNL     1      -6.412   2.558 128.054  0.00  0.00    +0.000 C 
ATOM     23  C   UNL     1      -5.858   3.317 126.874  0.00  0.00    +0.000 C 
ENDBRANCH   7  22
BRANCH  10  24
ATOM     24  O   UNL     1      -8.343   4.867 127.735  0.00  0.00    +0.000 OA
ATOM     25  H   UNL     1      -7.567   5.415 127.555  0.00  0.00    +0.000 HD
ENDBRANCH  10  24
BRANCH   1  26
ATOM     26  C   UNL     1      -6.907  -2.474 124.286  0.00  0.00    +0.000 C 
ATOM     27  C   UNL     1      -5.330  -2.866 123.846  0.00  0.00    +0.000 C 
BRANCH  26  28
ATOM     28  C   UNL     1      -7.146  -1.302 123.174  0.00  0.00    +0.000 C 
BRANCH  28  29
ATOM     29  C   UNL     1      -8.586  -1.376 122.827  0.00  0.00    +0.000 C 
BRANCH  29  30
ATOM     30  C   UNL     1      -9.413  -0.165 123.104  0.00  0.00    +0.000 C 
ATOM     31  O   UNL     1      -9.038   0.652 123.936  0.00  0.00    +0.000 OA
BRANCH  30  32
ATOM     32  O   UNL     1     -10.554   0.013 122.411  0.00  0.00    +0.000 OA
ATOM     33  H   UNL     1     -11.357  -0.473 122.673  0.00  0.00    +0.000 HD
ENDBRANCH  30  32
ENDBRANCH  29  30
ENDBRANCH  28  29
ENDBRANCH  26  28
ENDBRANCH   1  26
TORSDOF 8
ENDMDL
MODEL 4
REMARK VINA RESULT:      -7.7      3.123      7.235
REMARK  Name = Obeticholic acid
REMARK  12 active torsions:
REMARK  status: ('A' for Active; 'I' for Inactive)
REMARK    1  A    between atoms: C_2  and  C_29
REMARK    2  A    between atoms: C_9  and  O_10
REMARK    3  A    between atoms: C_11  and  C_12
REMARK    4  A    between atoms: C_12  and  C_13
REMARK    5  A    between atoms: C_17  and  O_18
REMARK    6  A    between atoms: C_21  and  C_22
REMARK    7  A    between atoms: C_27  and  C_28
REMARK    8  A    between atoms: C_29  and  C_30
REMARK    9  A    between atoms: C_29  and  C_31
REMARK   10  A    between atoms: C_31  and  C_32
REMARK   11  A    between atoms: C_32  and  C_33
REMARK   12  A    between atoms: C_33  and  O_34
REMARK                            x       y       z     vdW  Elec       q    Type
REMARK                         _______ _______ _______ _____ _____    ______ ____
ROOT
ATOM      1  C   UNL     1      -6.817  -1.139 131.438  0.00  0.00    +0.000 C 
ATOM      2  C   UNL     1      -7.890  -1.633 130.636  0.00  0.00    +0.000 C 
ATOM      3  C   UNL     1      -6.695  -0.760 129.833  0.00  0.00    +0.000 C 
ATOM      4  C   UNL     1      -7.766  -0.048 129.237  0.00  0.00    +0.000 C 
ATOM      5  C   UNL     1      -7.616  -0.340 127.776  0.00  0.00    +0.000 C 
ATOM      6  C   UNL     1      -7.979  -1.816 127.707  0.00  0.00    +0.000 C 
ATOM      7  C   UNL     1      -7.885  -2.210 126.320  0.00  0.00    +0.000 C 
ATOM      8  C   UNL     1      -9.010  -1.412 125.670  0.00  0.00    +0.000 C 
ATOM      9  C   UNL     1      -8.939  -1.916 124.385  0.00  0.00    +0.000 C 
ATOM     10  C   UNL     1      -8.929  -3.174 123.769  0.00  0.00    +0.000 C 
ATOM     11  C   UNL     1      -8.348  -1.849 122.683  0.00  0.00    +0.000 C 
ATOM     12  C   UNL     1      -7.950  -0.128 123.733  0.00  0.00    +0.000 C 
ATOM     13  C   UNL     1      -8.790   0.056 125.335  0.00  0.00    +0.000 C 
ATOM     14  C   UNL     1      -9.854   0.971 124.769  0.00  0.00    +0.000 C 
ATOM     15  C   UNL     1      -8.545   0.501 126.879  0.00  0.00    +0.000 C 
ATOM     16  C   UNL     1      -8.152   1.861 127.322  0.00  0.00    +0.000 C 
ATOM     17  C   UNL     1      -8.226   1.828 129.063  0.00  0.00    +0.000 C 
ATOM     18  C   UNL     1      -7.212   0.753 130.347  0.00  0.00    +0.000 C 
ATOM     19  C   UNL     1      -6.290   2.277 130.147  0.00  0.00    +0.000 C 
ENDROOT
BRANCH   6  20
ATOM     20  O   UNL     1      -7.102  -2.755 128.317  0.00  0.00    +0.000 OA
ATOM     21  H   UNL     1      -6.987  -2.500 129.246  0.00  0.00    +0.000 HD
ENDBRANCH   6  20
BRANCH   7  22
ATOM     22  C   UNL     1      -6.289  -2.229 125.905  0.00  0.00    +0.000 C 
ATOM     23  C   UNL     1      -5.422  -0.996 125.838  0.00  0.00    +0.000 C 
ENDBRANCH   7  22
BRANCH  10  24
ATOM     24  O   UNL     1      -8.081  -4.135 124.384  0.00  0.00    +0.000 OA
ATOM     25  H   UNL     1      -8.239  -4.364 125.310  0.00  0.00    +0.000 HD
ENDBRANCH  10  24
BRANCH   1  26
ATOM     26  C   UNL     1      -5.838  -2.695 132.178  0.00  0.00    +0.000 C 
ATOM     27  C   UNL     1      -4.642  -2.412 133.329  0.00  0.00    +0.000 C 
BRANCH  26  28
ATOM     28  C   UNL     1      -5.172  -4.030 131.514  0.00  0.00    +0.000 C 
BRANCH  28  29
ATOM     29  C   UNL     1      -3.777  -3.649 131.179  0.00  0.00    +0.000 C 
BRANCH  29  30
ATOM     30  C   UNL     1      -3.538  -3.084 129.818  0.00  0.00    +0.000 C 
ATOM     31  O   UNL     1      -4.347  -3.289 128.922  0.00  0.00    +0.000 OA
BRANCH  30  32
ATOM     32  O   UNL     1      -2.434  -2.341 129.611  0.00  0.00    +0.000 OA
ATOM     33  H   UNL     1      -2.373  -1.450 130.002  0.00  0.00    +0.000 HD
ENDBRANCH  30  32
ENDBRANCH  29  30
ENDBRANCH  28  29
ENDBRANCH  26  28
ENDBRANCH   1  26
TORSDOF 8
ENDMDL
MODEL 5
REMARK VINA RESULT:      -7.6      2.422      4.782
REMARK  Name = Obeticholic acid
REMARK  12 active torsions:
REMARK  status: ('A' for Active; 'I' for Inactive)
REMARK    1  A    between atoms: C_2  and  C_29
REMARK    2  A    between atoms: C_9  and  O_10
REMARK    3  A    between atoms: C_11  and  C_12
REMARK    4  A    between atoms: C_12  and  C_13
REMARK    5  A    between atoms: C_17  and  O_18
REMARK    6  A    between atoms: C_21  and  C_22
REMARK    7  A    between atoms: C_27  and  C_28
REMARK    8  A    between atoms: C_29  and  C_30
REMARK    9  A    between atoms: C_29  and  C_31
REMARK   10  A    between atoms: C_31  and  C_32
REMARK   11  A    between atoms: C_32  and  C_33
REMARK   12  A    between atoms: C_33  and  O_34
REMARK                            x       y       z     vdW  Elec       q    Type
REMARK                         _______ _______ _______ _____ _____    ______ ____
ROOT
ATOM      1  C   UNL     1      -5.622   4.827 126.088  0.00  0.00    +0.000 C 
ATOM      2  C   UNL     1      -6.781   4.080 126.461  0.00  0.00    +0.000 C 
ATOM      3  C   UNL     1      -5.709   3.322 125.406  0.00  0.00    +0.000 C 
ATOM      4  C   UNL     1      -6.858   3.009 124.635  0.00  0.00    +0.000 C 
ATOM      5  C   UNL     1      -6.889   1.513 124.638  0.00  0.00    +0.000 C 
ATOM      6  C   UNL     1      -7.237   1.204 126.087  0.00  0.00    +0.000 C 
ATOM      7  C   UNL     1      -7.312  -0.234 126.206  0.00  0.00    +0.000 C 
ATOM      8  C   UNL     1      -8.522  -0.577 125.343  0.00  0.00    +0.000 C 
ATOM      9  C   UNL     1      -8.607  -1.934 125.590  0.00  0.00    +0.000 C 
ATOM     10  C   UNL     1      -8.656  -2.778 126.707  0.00  0.00    +0.000 C 
ATOM     11  C   UNL     1      -8.236  -3.649 125.178  0.00  0.00    +0.000 C 
ATOM     12  C   UNL     1      -7.734  -2.342 123.674  0.00  0.00    +0.000 C 
ATOM     13  C   UNL     1      -8.367  -0.645 123.830  0.00  0.00    +0.000 C 
ATOM     14  C   UNL     1      -9.507  -0.891 122.867  0.00  0.00    +0.000 C 
ATOM     15  C   UNL     1      -7.936   0.914 123.678  0.00  0.00    +0.000 C 
ATOM     16  C   UNL     1      -7.509   1.561 122.413  0.00  0.00    +0.000 C 
ATOM     17  C   UNL     1      -7.363   3.259 122.780  0.00  0.00    +0.000 C 
ATOM     18  C   UNL     1      -6.180   4.179 124.040  0.00  0.00    +0.000 C 
ATOM     19  C   UNL     1      -5.312   4.167 122.471  0.00  0.00    +0.000 C 
ENDROOT
BRANCH   6  20
ATOM     20  O   UNL     1      -6.276   1.510 127.090  0.00  0.00    +0.000 OA
ATOM     21  H   UNL     1      -5.751   0.712 127.258  0.00  0.00    +0.000 HD
ENDBRANCH   6  20
BRANCH   7  22
ATOM     22  C   UNL     1      -5.781  -0.835 126.084  0.00  0.00    +0.000 C 
ATOM     23  C   UNL     1      -5.214  -1.444 124.827  0.00  0.00    +0.000 C 
ENDBRANCH   7  22
BRANCH  10  24
ATOM     24  O   UNL     1      -7.724  -2.468 127.734  0.00  0.00    +0.000 OA
ATOM     25  H   UNL     1      -6.900  -2.971 127.775  0.00  0.00    +0.000 HD
ENDBRANCH  10  24
BRANCH   1  26
ATOM     26  C   UNL     1      -4.536   5.127 127.717  0.00  0.00    +0.000 C 
ATOM     27  C   UNL     1      -3.620   6.537 127.817  0.00  0.00    +0.000 C 
BRANCH  26  28
ATOM     28  C   UNL     1      -3.550   4.178 128.608  0.00  0.00    +0.000 C 
BRANCH  28  29
ATOM     29  C   UNL     1      -2.310   4.035 127.805  0.00  0.00    +0.000 C 
BRANCH  29  30
ATOM     30  C   UNL     1      -2.219   2.847 126.906  0.00  0.00    +0.000 C 
ATOM     31  O   UNL     1      -1.203   2.655 126.249  0.00  0.00    +0.000 OA
BRANCH  30  32
ATOM     32  O   UNL     1      -3.260   1.994 126.852  0.00  0.00    +0.000 OA
ATOM     33  H   UNL     1      -3.870   2.025 126.092  0.00  0.00    +0.000 HD
ENDBRANCH  30  32
ENDBRANCH  29  30
ENDBRANCH  28  29
ENDBRANCH  26  28
ENDBRANCH   1  26
TORSDOF 8
ENDMDL
MODEL 6
REMARK VINA RESULT:      -7.6      2.501      5.697
REMARK  Name = Obeticholic acid
REMARK  12 active torsions:
REMARK  status: ('A' for Active; 'I' for Inactive)
REMARK    1  A    between atoms: C_2  and  C_29
REMARK    2  A    between atoms: C_9  and  O_10
REMARK    3  A    between atoms: C_11  and  C_12
REMARK    4  A    between atoms: C_12  and  C_13
REMARK    5  A    between atoms: C_17  and  O_18
REMARK    6  A    between atoms: C_21  and  C_22
REMARK    7  A    between atoms: C_27  and  C_28
REMARK    8  A    between atoms: C_29  and  C_30
REMARK    9  A    between atoms: C_29  and  C_31
REMARK   10  A    between atoms: C_31  and  C_32
REMARK   11  A    between atoms: C_32  and  C_33
REMARK   12  A    between atoms: C_33  and  O_34
REMARK                            x       y       z     vdW  Elec       q    Type
REMARK                         _______ _______ _______ _____ _____    ______ ____
ROOT
ATOM      1  C   UNL     1      -4.586   1.905 130.625  0.00  0.00    +0.000 C 
ATOM      2  C   UNL     1      -4.222   0.742 129.881  0.00  0.00    +0.000 C 
ATOM      3  C   UNL     1      -5.821   1.249 129.742  0.00  0.00    +0.000 C 
ATOM      4  C   UNL     1      -6.159  -0.107 129.981  0.00  0.00    +0.000 C 
ATOM      5  C   UNL     1      -6.868  -0.521 128.729  0.00  0.00    +0.000 C 
ATOM      6  C   UNL     1      -5.738  -0.524 127.709  0.00  0.00    +0.000 C 
ATOM      7  C   UNL     1      -6.310  -0.932 126.447  0.00  0.00    +0.000 C 
ATOM      8  C   UNL     1      -6.713  -2.378 126.715  0.00  0.00    +0.000 C 
ATOM      9  C   UNL     1      -7.140  -2.739 125.451  0.00  0.00    +0.000 C 
ATOM     10  C   UNL     1      -6.642  -2.695 124.142  0.00  0.00    +0.000 C 
ATOM     11  C   UNL     1      -8.433  -2.951 124.212  0.00  0.00    +0.000 C 
ATOM     12  C   UNL     1      -9.181  -2.562 126.086  0.00  0.00    +0.000 C 
ATOM     13  C   UNL     1      -8.004  -2.668 127.467  0.00  0.00    +0.000 C 
ATOM     14  C   UNL     1      -8.465  -4.053 127.866  0.00  0.00    +0.000 C 
ATOM     15  C   UNL     1      -7.531  -1.909 128.823  0.00  0.00    +0.000 C 
ATOM     16  C   UNL     1      -8.381  -1.695 130.020  0.00  0.00    +0.000 C 
ATOM     17  C   UNL     1      -7.325  -1.021 131.232  0.00  0.00    +0.000 C 
ATOM     18  C   UNL     1      -6.318   0.659 131.234  0.00  0.00    +0.000 C 
ATOM     19  C   UNL     1      -7.890   1.029 132.012  0.00  0.00    +0.000 C 
ENDROOT
BRANCH   6  20
ATOM     20  O   UNL     1      -5.149   0.720 127.352  0.00  0.00    +0.000 OA
ATOM     21  H   UNL     1      -5.219   1.316 128.114  0.00  0.00    +0.000 HD
ENDBRANCH   6  20
BRANCH   7  22
ATOM     22  C   UNL     1      -7.262   0.297 125.899  0.00  0.00    +0.000 C 
ATOM     23  C   UNL     1      -6.850   1.262 124.816  0.00  0.00    +0.000 C 
ENDBRANCH   7  22
BRANCH  10  24
ATOM     24  O   UNL     1      -6.023  -1.469 123.778  0.00  0.00    +0.000 OA
ATOM     25  H   UNL     1      -5.059  -1.442 123.711  0.00  0.00    +0.000 HD
ENDBRANCH  10  24
BRANCH   1  26
ATOM     26  C   UNL     1      -3.549   3.437 129.915  0.00  0.00    +0.000 C 
ATOM     27  C   UNL     1      -3.107   4.664 130.980  0.00  0.00    +0.000 C 
BRANCH  26  28
ATOM     28  C   UNL     1      -3.677   4.363 128.576  0.00  0.00    +0.000 C 
BRANCH  28  29
ATOM     29  C   UNL     1      -2.409   4.158 127.833  0.00  0.00    +0.000 C 
BRANCH  29  30
ATOM     30  C   UNL     1      -2.359   3.006 126.884  0.00  0.00    +0.000 C 
ATOM     31  O   UNL     1      -3.399   2.542 126.433  0.00  0.00    +0.000 OA
BRANCH  30  32
ATOM     32  O   UNL     1      -1.158   2.513 126.528  0.00  0.00    +0.000 OA
ATOM     33  H   UNL     1      -1.108   1.792 125.873  0.00  0.00    +0.000 HD
ENDBRANCH  30  32
ENDBRANCH  29  30
ENDBRANCH  28  29
ENDBRANCH  26  28
ENDBRANCH   1  26
TORSDOF 8
ENDMDL
MODEL 7
REMARK VINA RESULT:      -7.5      1.795      6.592
REMARK  Name = Obeticholic acid
REMARK  12 active torsions:
REMARK  status: ('A' for Active; 'I' for Inactive)
REMARK    1  A    between atoms: C_2  and  C_29
REMARK    2  A    between atoms: C_9  and  O_10
REMARK    3  A    between atoms: C_11  and  C_12
REMARK    4  A    between atoms: C_12  and  C_13
REMARK    5  A    between atoms: C_17  and  O_18
REMARK    6  A    between atoms: C_21  and  C_22
REMARK    7  A    between atoms: C_27  and  C_28
REMARK    8  A    between atoms: C_29  and  C_30
REMARK    9  A    between atoms: C_29  and  C_31
REMARK   10  A    between atoms: C_31  and  C_32
REMARK   11  A    between atoms: C_32  and  C_33
REMARK   12  A    between atoms: C_33  and  O_34
REMARK                            x       y       z     vdW  Elec       q    Type
REMARK                         _______ _______ _______ _____ _____    ______ ____
ROOT
ATOM      1  C   UNL     1      -7.094  -3.402 130.252  0.00  0.00    +0.000 C 
ATOM      2  C   UNL     1      -6.258  -2.682 129.347  0.00  0.00    +0.000 C 
ATOM      3  C   UNL     1      -7.909  -2.361 129.257  0.00  0.00    +0.000 C 
ATOM      4  C   UNL     1      -7.755  -2.526 127.858  0.00  0.00    +0.000 C 
ATOM      5  C   UNL     1      -8.131  -1.188 127.301  0.00  0.00    +0.000 C 
ATOM      6  C   UNL     1      -6.976  -0.314 127.767  0.00  0.00    +0.000 C 
ATOM      7  C   UNL     1      -7.226   1.018 127.265  0.00  0.00    +0.000 C 
ATOM      8  C   UNL     1      -7.104   0.834 125.756  0.00  0.00    +0.000 C 
ATOM      9  C   UNL     1      -7.237   2.148 125.350  0.00  0.00    +0.000 C 
ATOM     10  C   UNL     1      -6.655   3.386 125.654  0.00  0.00    +0.000 C 
ATOM     11  C   UNL     1      -8.228   3.539 124.772  0.00  0.00    +0.000 C 
ATOM     12  C   UNL     1      -9.258   1.761 124.745  0.00  0.00    +0.000 C 
ATOM     13  C   UNL     1      -8.274   0.250 124.976  0.00  0.00    +0.000 C 
ATOM     14  C   UNL     1      -8.242  -0.058 123.495  0.00  0.00    +0.000 C 
ATOM     15  C   UNL     1      -8.253  -1.170 125.764  0.00  0.00    +0.000 C 
ATOM     16  C   UNL     1      -9.243  -2.260 125.583  0.00  0.00    +0.000 C 
ATOM     17  C   UNL     1      -8.635  -3.606 126.509  0.00  0.00    +0.000 C 
ATOM     18  C   UNL     1      -8.311  -3.768 128.433  0.00  0.00    +0.000 C 
ATOM     19  C   UNL     1      -9.982  -4.359 128.166  0.00  0.00    +0.000 C 
ENDROOT
BRANCH   6  20
ATOM     20  O   UNL     1      -6.844  -0.059 129.160  0.00  0.00    +0.000 OA
ATOM     21  H   UNL     1      -5.957  -0.339 129.435  0.00  0.00    +0.000 HD
ENDBRANCH   6  20
BRANCH   7  22
ATOM     22  C   UNL     1      -8.497   1.648 128.106  0.00  0.00    +0.000 C 
ATOM     23  C   UNL     1      -8.359   2.716 129.163  0.00  0.00    +0.000 C 
ENDBRANCH   7  22
BRANCH  10  24
ATOM     24  O   UNL     1      -6.487   3.644 127.041  0.00  0.00    +0.000 OA
ATOM     25  H   UNL     1      -7.200   3.400 127.645  0.00  0.00    +0.000 HD
ENDBRANCH  10  24
BRANCH   1  26
ATOM     26  C   UNL     1      -6.614  -2.858 132.096  0.00  0.00    +0.000 C 
ATOM     27  C   UNL     1      -6.206  -4.060 133.202  0.00  0.00    +0.000 C 
BRANCH  26  28
ATOM     28  C   UNL     1      -7.256  -1.803 133.165  0.00  0.00    +0.000 C 
BRANCH  28  29
ATOM     29  C   UNL     1      -6.951  -0.457 132.621  0.00  0.00    +0.000 C 
BRANCH  29  30
ATOM     30  C   UNL     1      -8.112   0.444 132.353  0.00  0.00    +0.000 C 
ATOM     31  O   UNL     1      -8.243   1.476 132.999  0.00  0.00    +0.000 OA
BRANCH  30  32
ATOM     32  O   UNL     1      -8.985   0.105 131.386  0.00  0.00    +0.000 OA
ATOM     33  H   UNL     1      -9.877  -0.204 131.629  0.00  0.00    +0.000 HD
ENDBRANCH  30  32
ENDBRANCH  29  30
ENDBRANCH  28  29
ENDBRANCH  26  28
ENDBRANCH   1  26
TORSDOF 8
ENDMDL
MODEL 8
REMARK VINA RESULT:      -7.5      4.032      7.145
REMARK  Name = Obeticholic acid
REMARK  12 active torsions:
REMARK  status: ('A' for Active; 'I' for Inactive)
REMARK    1  A    between atoms: C_2  and  C_29
REMARK    2  A    between atoms: C_9  and  O_10
REMARK    3  A    between atoms: C_11  and  C_12
REMARK    4  A    between atoms: C_12  and  C_13
REMARK    5  A    between atoms: C_17  and  O_18
REMARK    6  A    between atoms: C_21  and  C_22
REMARK    7  A    between atoms: C_27  and  C_28
REMARK    8  A    between atoms: C_29  and  C_30
REMARK    9  A    between atoms: C_29  and  C_31
REMARK   10  A    between atoms: C_31  and  C_32
REMARK   11  A    between atoms: C_32  and  C_33
REMARK   12  A    between atoms: C_33  and  O_34
REMARK                            x       y       z     vdW  Elec       q    Type
REMARK                         _______ _______ _______ _____ _____    ______ ____
ROOT
ATOM      1  C   UNL     1      -9.752   6.425 131.141  0.00  0.00    +0.000 C 
ATOM      2  C   UNL     1      -8.558   6.316 130.366  0.00  0.00    +0.000 C 
ATOM      3  C   UNL     1      -9.257   4.870 130.873  0.00  0.00    +0.000 C 
ATOM      4  C   UNL     1      -7.951   4.509 131.290  0.00  0.00    +0.000 C 
ATOM      5  C   UNL     1      -7.634   3.305 130.458  0.00  0.00    +0.000 C 
ATOM      6  C   UNL     1      -7.499   3.905 129.067  0.00  0.00    +0.000 C 
ATOM      7  C   UNL     1      -7.171   2.821 128.169  0.00  0.00    +0.000 C 
ATOM      8  C   UNL     1      -5.783   2.403 128.644  0.00  0.00    +0.000 C 
ATOM      9  C   UNL     1      -5.486   1.454 127.684  0.00  0.00    +0.000 C 
ATOM     10  C   UNL     1      -5.477   1.369 126.286  0.00  0.00    +0.000 C 
ATOM     11  C   UNL     1      -5.440  -0.249 127.096  0.00  0.00    +0.000 C 
ATOM     12  C   UNL     1      -5.906  -0.108 129.092  0.00  0.00    +0.000 C 
ATOM     13  C   UNL     1      -5.649   1.514 129.872  0.00  0.00    +0.000 C 
ATOM     14  C   UNL     1      -4.328   1.104 130.487  0.00  0.00    +0.000 C 
ATOM     15  C   UNL     1      -6.337   2.587 130.879  0.00  0.00    +0.000 C 
ATOM     16  C   UNL     1      -6.645   2.338 132.308  0.00  0.00    +0.000 C 
ATOM     17  C   UNL     1      -7.178   3.869 132.949  0.00  0.00    +0.000 C 
ATOM     18  C   UNL     1      -8.722   4.969 132.462  0.00  0.00    +0.000 C 
ATOM     19  C   UNL     1      -9.276   3.912 133.799  0.00  0.00    +0.000 C 
ENDROOT
BRANCH   6  20
ATOM     20  O   UNL     1      -8.664   4.431 128.444  0.00  0.00    +0.000 OA
ATOM     21  H   UNL     1      -9.420   4.264 129.029  0.00  0.00    +0.000 HD
ENDBRANCH   6  20
BRANCH   7  22
ATOM     22  C   UNL     1      -8.511   1.874 128.007  0.00  0.00    +0.000 C 
ATOM     23  C   UNL     1      -8.995   1.320 126.690  0.00  0.00    +0.000 C 
ENDBRANCH   7  22
BRANCH  10  24
ATOM     24  O   UNL     1      -6.620   1.918 125.645  0.00  0.00    +0.000 OA
ATOM     25  H   UNL     1      -6.503   2.360 124.793  0.00  0.00    +0.000 HD
ENDBRANCH  10  24
BRANCH   1  26
ATOM     26  C   UNL     1     -11.150   7.243 130.000  0.00  0.00    +0.000 C 
ATOM     27  C   UNL     1     -12.385   6.256 129.420  0.00  0.00    +0.000 C 
BRANCH  26  28
ATOM     28  C   UNL     1     -11.116   8.288 128.746  0.00  0.00    +0.000 C 
BRANCH  28  29
ATOM     29  C   UNL     1     -11.662   7.534 127.590  0.00  0.00    +0.000 C 
BRANCH  29  30
ATOM     30  C   UNL     1     -10.751   7.328 126.425  0.00  0.00    +0.000 C 
ATOM     31  O   UNL     1     -10.850   8.048 125.439  0.00  0.00    +0.000 OA
BRANCH  30  32
ATOM     32  O   UNL     1      -9.820   6.358 126.494  0.00  0.00    +0.000 OA
ATOM     33  H   UNL     1      -9.973   5.584 127.067  0.00  0.00    +0.000 HD
ENDBRANCH  30  32
ENDBRANCH  29  30
ENDBRANCH  28  29
ENDBRANCH  26  28
ENDBRANCH   1  26
TORSDOF 8
ENDMDL
MODEL 9
REMARK VINA RESULT:      -7.4      2.030      6.626
REMARK  Name = Obeticholic acid
REMARK  12 active torsions:
REMARK  status: ('A' for Active; 'I' for Inactive)
REMARK    1  A    between atoms: C_2  and  C_29
REMARK    2  A    between atoms: C_9  and  O_10
REMARK    3  A    between atoms: C_11  and  C_12
REMARK    4  A    between atoms: C_12  and  C_13
REMARK    5  A    between atoms: C_17  and  O_18
REMARK    6  A    between atoms: C_21  and  C_22
REMARK    7  A    between atoms: C_27  and  C_28
REMARK    8  A    between atoms: C_29  and  C_30
REMARK    9  A    between atoms: C_29  and  C_31
REMARK   10  A    between atoms: C_31  and  C_32
REMARK   11  A    between atoms: C_32  and  C_33
REMARK   12  A    between atoms: C_33  and  O_34
REMARK                            x       y       z     vdW  Elec       q    Type
REMARK                         _______ _______ _______ _____ _____    ______ ____
ROOT
ATOM      1  C   UNL     1      -6.791  -3.492 130.020  0.00  0.00    +0.000 C 
ATOM      2  C   UNL     1      -6.046  -2.832 128.997  0.00  0.00    +0.000 C 
ATOM      3  C   UNL     1      -7.677  -2.428 129.114  0.00  0.00    +0.000 C 
ATOM      4  C   UNL     1      -7.716  -2.626 127.711  0.00  0.00    +0.000 C 
ATOM      5  C   UNL     1      -8.095  -1.281 127.175  0.00  0.00    +0.000 C 
ATOM      6  C   UNL     1      -6.848  -0.459 127.466  0.00  0.00    +0.000 C 
ATOM      7  C   UNL     1      -7.096   0.875 126.968  0.00  0.00    +0.000 C 
ATOM      8  C   UNL     1      -7.181   0.657 125.461  0.00  0.00    +0.000 C 
ATOM      9  C   UNL     1      -7.302   1.970 125.043  0.00  0.00    +0.000 C 
ATOM     10  C   UNL     1      -6.625   3.181 125.238  0.00  0.00    +0.000 C 
ATOM     11  C   UNL     1      -8.290   3.399 124.564  0.00  0.00    +0.000 C 
ATOM     12  C   UNL     1      -9.400   1.677 124.715  0.00  0.00    +0.000 C 
ATOM     13  C   UNL     1      -8.470   0.121 124.854  0.00  0.00    +0.000 C 
ATOM     14  C   UNL     1      -8.647  -0.215 123.389  0.00  0.00    +0.000 C 
ATOM     15  C   UNL     1      -8.416  -1.284 125.667  0.00  0.00    +0.000 C 
ATOM     16  C   UNL     1      -9.473  -2.324 125.642  0.00  0.00    +0.000 C 
ATOM     17  C   UNL     1      -8.816  -3.683 126.514  0.00  0.00    +0.000 C 
ATOM     18  C   UNL     1      -8.252  -3.827 128.384  0.00  0.00    +0.000 C 
ATOM     19  C   UNL     1      -9.970  -4.335 128.350  0.00  0.00    +0.000 C 
ENDROOT
BRANCH   6  20
ATOM     20  O   UNL     1      -6.523  -0.186 128.823  0.00  0.00    +0.000 OA
ATOM     21  H   UNL     1      -7.311  -0.356 129.362  0.00  0.00    +0.000 HD
ENDBRANCH   6  20
BRANCH   7  22
ATOM     22  C   UNL     1      -8.213   1.585 127.951  0.00  0.00    +0.000 C 
ATOM     23  C   UNL     1      -7.874   2.605 129.009  0.00  0.00    +0.000 C 
ENDBRANCH   7  22
BRANCH  10  24
ATOM     24  O   UNL     1      -6.264   3.455 126.585  0.00  0.00    +0.000 OA
ATOM     25  H   UNL     1      -6.516   4.307 126.965  0.00  0.00    +0.000 HD
ENDBRANCH  10  24
BRANCH   1  26
ATOM     26  C   UNL     1      -6.048  -2.940 131.772  0.00  0.00    +0.000 C 
ATOM     27  C   UNL     1      -6.616  -1.515 132.467  0.00  0.00    +0.000 C 
BRANCH  26  28
ATOM     28  C   UNL     1      -4.538  -2.883 132.391  0.00  0.00    +0.000 C 
BRANCH  28  29
ATOM     29  C   UNL     1      -4.011  -1.547 132.020  0.00  0.00    +0.000 C 
BRANCH  29  30
ATOM     30  C   UNL     1      -3.397  -1.414 130.666  0.00  0.00    +0.000 C 
ATOM     31  O   UNL     1      -2.579  -2.242 130.283  0.00  0.00    +0.000 OA
BRANCH  30  32
ATOM     32  O   UNL     1      -3.775  -0.386 129.882  0.00  0.00    +0.000 OA
ATOM     33  H   UNL     1      -4.496  -0.511 129.238  0.00  0.00    +0.000 HD
ENDBRANCH  30  32
ENDBRANCH  29  30
ENDBRANCH  28  29
ENDBRANCH  26  28
ENDBRANCH   1  26
TORSDOF 8
ENDMDL
