MODEL 1
REMARK VINA RESULT:      -3.0      0.000      0.000
REMARK  Name = Octasulfur
REMARK  0 active torsions:
REMARK  status: ('A' for Active; 'I' for Inactive)
REMARK                            x       y       z     vdW  Elec       q    Type
REMARK                         _______ _______ _______ _____ _____    ______ ____
ROOT
ATOM      1  S   UNL     1      -8.007  -1.060 126.724  0.00  0.00    +0.000 S 
ATOM      2  S   UNL     1      -8.716  -2.971 126.575  0.00  0.00    +0.000 S 
ATOM      3  S   UNL     1      -8.338  -3.616 124.661  0.00  0.00    +0.000 S 
ATOM      4  S   UNL     1      -6.382  -3.141 124.248  0.00  0.00    +0.000 S 
ATOM      5  S   UNL     1      -6.490  -1.803 122.690  0.00  0.00    +0.000 S 
ATOM      6  S   UNL     1      -6.991   0.048 123.431  0.00  0.00    +0.000 S 
ATOM      7  S   UNL     1      -9.017  -0.049 123.748  0.00  0.00    +0.000 S 
ATOM      8  S   UNL     1      -9.317   0.183 125.767  0.00  0.00    +0.000 S 
ENDROOT
TORSDOF 0
ENDMDL
MODEL 2
REMARK VINA RESULT:      -2.8      1.380      3.555
REMARK  Name = Octasulfur
REMARK  0 active torsions:
REMARK  status: ('A' for Active; 'I' for Inactive)
REMARK                            x       y       z     vdW  Elec       q    Type
REMARK                         _______ _______ _______ _____ _____    ______ ____
ROOT
ATOM      1  S   UNL     1      -8.705   0.662 125.798  0.00  0.00    +0.000 S 
ATOM      2  S   UNL     1      -7.342   1.011 124.316  0.00  0.00    +0.000 S 
ATOM      3  S   UNL     1      -7.041  -0.767 123.332  0.00  0.00    +0.000 S 
ATOM      4  S   UNL     1      -8.899  -1.556 122.945  0.00  0.00    +0.000 S 
ATOM      5  S   UNL     1      -8.946  -3.318 124.003  0.00  0.00    +0.000 S 
ATOM      6  S   UNL     1      -9.317  -2.901 125.982  0.00  0.00    +0.000 S 
ATOM      7  S   UNL     1      -7.510  -2.271 126.728  0.00  0.00    +0.000 S 
ATOM      8  S   UNL     1      -7.757  -0.320 127.320  0.00  0.00    +0.000 S 
ENDROOT
TORSDOF 0
ENDMDL
MODEL 3
REMARK VINA RESULT:      -2.8      1.587      2.056
REMARK  Name = Octasulfur
REMARK  0 active torsions:
REMARK  status: ('A' for Active; 'I' for Inactive)
REMARK                            x       y       z     vdW  Elec       q    Type
REMARK                         _______ _______ _______ _____ _____    ______ ____
ROOT
ATOM      1  S   UNL     1      -5.872  -1.808 126.634  0.00  0.00    +0.000 S 
ATOM      2  S   UNL     1      -7.514  -2.535 127.609  0.00  0.00    +0.000 S 
ATOM      3  S   UNL     1      -9.018  -2.718 126.221  0.00  0.00    +0.000 S 
ATOM      4  S   UNL     1      -8.209  -3.665 124.587  0.00  0.00    +0.000 S 
ATOM      5  S   UNL     1      -8.354  -2.290 123.066  0.00  0.00    +0.000 S 
ATOM      6  S   UNL     1      -6.841  -0.911 123.264  0.00  0.00    +0.000 S 
ATOM      7  S   UNL     1      -7.487   0.361 124.741  0.00  0.00    +0.000 S 
ATOM      8  S   UNL     1      -6.160   0.188 126.299  0.00  0.00    +0.000 S 
ENDROOT
TORSDOF 0
ENDMDL
MODEL 4
REMARK VINA RESULT:      -2.8      1.126      3.451
REMARK  Name = Octasulfur
REMARK  0 active torsions:
REMARK  status: ('A' for Active; 'I' for Inactive)
REMARK                            x       y       z     vdW  Elec       q    Type
REMARK                         _______ _______ _______ _____ _____    ______ ____
ROOT
ATOM      1  S   UNL     1      -8.931  -3.018 126.007  0.00  0.00    +0.000 S 
ATOM      2  S   UNL     1      -7.852  -1.920 127.350  0.00  0.00    +0.000 S 
ATOM      3  S   UNL     1      -7.534  -0.071 126.513  0.00  0.00    +0.000 S 
ATOM      4  S   UNL     1      -9.343   0.570 125.779  0.00  0.00    +0.000 S 
ATOM      5  S   UNL     1      -9.055   0.724 123.749  0.00  0.00    +0.000 S 
ATOM      6  S   UNL     1      -9.158  -1.152 122.914  0.00  0.00    +0.000 S 
ATOM      7  S   UNL     1      -7.328  -1.997 123.308  0.00  0.00    +0.000 S 
ATOM      8  S   UNL     1      -7.670  -3.623 124.517  0.00  0.00    +0.000 S 
ENDROOT
TORSDOF 0
ENDMDL
MODEL 5
REMARK VINA RESULT:      -2.8      1.473      4.259
REMARK  Name = Octasulfur
REMARK  0 active torsions:
REMARK  status: ('A' for Active; 'I' for Inactive)
REMARK                            x       y       z     vdW  Elec       q    Type
REMARK                         _______ _______ _______ _____ _____    ______ ____
ROOT
ATOM      1  S   UNL     1      -8.052  -1.390 123.249  0.00  0.00    +0.000 S 
ATOM      2  S   UNL     1      -9.299   0.228 123.292  0.00  0.00    +0.000 S 
ATOM      3  S   UNL     1      -9.507   0.788 125.258  0.00  0.00    +0.000 S 
ATOM      4  S   UNL     1      -7.618   0.842 126.065  0.00  0.00    +0.000 S 
ATOM      5  S   UNL     1      -7.639  -0.600 127.530  0.00  0.00    +0.000 S 
ATOM      6  S   UNL     1      -7.426  -2.448 126.653  0.00  0.00    +0.000 S 
ATOM      7  S   UNL     1      -9.290  -2.891 125.916  0.00  0.00    +0.000 S 
ATOM      8  S   UNL     1      -9.107  -3.025 123.874  0.00  0.00    +0.000 S 
ENDROOT
TORSDOF 0
ENDMDL
MODEL 6
REMARK VINA RESULT:      -2.7      7.869     10.037
REMARK  Name = Octasulfur
REMARK  0 active torsions:
REMARK  status: ('A' for Active; 'I' for Inactive)
REMARK                            x       y       z     vdW  Elec       q    Type
REMARK                         _______ _______ _______ _____ _____    ______ ____
ROOT
ATOM      1  S   UNL     1      -9.667   3.266 130.245  0.00  0.00    +0.000 S 
ATOM      2  S   UNL     1     -10.993   4.799 130.499  0.00  0.00    +0.000 S 
ATOM      3  S   UNL     1     -10.133   6.143 131.793  0.00  0.00    +0.000 S 
ATOM      4  S   UNL     1      -8.212   6.457 131.137  0.00  0.00    +0.000 S 
ATOM      5  S   UNL     1      -7.022   5.769 132.666  0.00  0.00    +0.000 S 
ATOM      6  S   UNL     1      -6.930   3.717 132.571  0.00  0.00    +0.000 S 
ATOM      7  S   UNL     1      -8.699   3.079 133.396  0.00  0.00    +0.000 S 
ATOM      8  S   UNL     1      -9.724   2.089 131.916  0.00  0.00    +0.000 S 
ENDROOT
TORSDOF 0
ENDMDL
MODEL 7
REMARK VINA RESULT:      -2.7      1.327      3.443
REMARK  Name = Octasulfur
REMARK  0 active torsions:
REMARK  status: ('A' for Active; 'I' for Inactive)
REMARK                            x       y       z     vdW  Elec       q    Type
REMARK                         _______ _______ _______ _____ _____    ______ ____
ROOT
ATOM      1  S   UNL     1      -8.868  -0.354 123.755  0.00  0.00    +0.000 S 
ATOM      2  S   UNL     1      -8.537  -2.211 122.971  0.00  0.00    +0.000 S 
ATOM      3  S   UNL     1      -7.840  -3.402 124.494  0.00  0.00    +0.000 S 
ATOM      4  S   UNL     1      -9.082  -3.100 126.102  0.00  0.00    +0.000 S 
ATOM      5  S   UNL     1      -7.870  -2.285 127.549  0.00  0.00    +0.000 S 
ATOM      6  S   UNL     1      -7.588  -0.289 127.140  0.00  0.00    +0.000 S 
ATOM      7  S   UNL     1      -6.170  -0.259 125.655  0.00  0.00    +0.000 S 
ATOM      8  S   UNL     1      -7.060   0.568 123.998  0.00  0.00    +0.000 S 
ENDROOT
TORSDOF 0
ENDMDL
MODEL 8
REMARK VINA RESULT:      -2.6      1.495      3.671
REMARK  Name = Octasulfur
REMARK  0 active torsions:
REMARK  status: ('A' for Active; 'I' for Inactive)
REMARK                            x       y       z     vdW  Elec       q    Type
REMARK                         _______ _______ _______ _____ _____    ______ ____
ROOT
ATOM      1  S   UNL     1      -7.465  -0.611 126.849  0.00  0.00    +0.000 S 
ATOM      2  S   UNL     1      -7.089   1.153 125.889  0.00  0.00    +0.000 S 
ATOM      3  S   UNL     1      -7.215   0.790 123.871  0.00  0.00    +0.000 S 
ATOM      4  S   UNL     1      -8.946  -0.274 123.564  0.00  0.00    +0.000 S 
ATOM      5  S   UNL     1      -8.317  -2.085 122.821  0.00  0.00    +0.000 S 
ATOM      6  S   UNL     1      -7.643  -3.249 124.377  0.00  0.00    +0.000 S 
ATOM      7  S   UNL     1      -5.759  -2.537 124.780  0.00  0.00    +0.000 S 
ATOM      8  S   UNL     1      -5.802  -1.790 126.693  0.00  0.00    +0.000 S 
ENDROOT
TORSDOF 0
ENDMDL
MODEL 9
REMARK VINA RESULT:      -2.6      8.402      9.720
REMARK  Name = Octasulfur
REMARK  0 active torsions:
REMARK  status: ('A' for Active; 'I' for Inactive)
REMARK                            x       y       z     vdW  Elec       q    Type
REMARK                         _______ _______ _______ _____ _____    ______ ____
ROOT
ATOM      1  S   UNL     1      -6.270   4.376 132.110  0.00  0.00    +0.000 S 
ATOM      2  S   UNL     1      -7.089   3.938 133.930  0.00  0.00    +0.000 S 
ATOM      3  S   UNL     1      -9.115   3.735 133.656  0.00  0.00    +0.000 S 
ATOM      4  S   UNL     1      -9.377   2.522 132.019  0.00  0.00    +0.000 S 
ATOM      5  S   UNL     1     -10.334   3.709 130.640  0.00  0.00    +0.000 S 
ATOM      6  S   UNL     1      -8.954   4.947 129.750  0.00  0.00    +0.000 S 
ATOM      7  S   UNL     1      -8.642   6.447 131.118  0.00  0.00    +0.000 S 
ATOM      8  S   UNL     1      -6.671   6.335 131.686  0.00  0.00    +0.000 S 
ENDROOT
TORSDOF 0
ENDMDL
