MODEL 1
REMARK VINA RESULT:      -6.5      0.000      0.000
REMARK  Name = Octisalate
REMARK  11 active torsions:
REMARK  status: ('A' for Active; 'I' for Inactive)
REMARK    1  A    between atoms: C_1  and  C_2
REMARK    2  A    between atoms: C_2  and  C_3
REMARK    3  A    between atoms: C_3  and  C_4
REMARK    4  A    between atoms: C_4  and  C_5
REMARK    5  A    between atoms: C_5  and  C_6
REMARK    6  A    between atoms: C_5  and  C_8
REMARK    7  A    between atoms: C_6  and  C_7
REMARK    8  A    between atoms: C_8  and  O_9
REMARK    9  A    between atoms: O_9  and  C_10
REMARK   10  A    between atoms: C_10  and  C_12
REMARK   11  A    between atoms: C_13  and  O_14
REMARK                            x       y       z     vdW  Elec       q    Type
REMARK                         _______ _______ _______ _____ _____    ______ ____
ROOT
ATOM      1  C   UNL     1      -7.835   2.753 123.142  0.00  0.00    +0.000 C 
ATOM      2  O   UNL     1      -8.667   3.334 123.811  0.00  0.00    +0.000 OA
ENDROOT
BRANCH   1   3
ATOM      3  C   UNL     1      -7.153   3.380 121.972  0.00  0.00    +0.000 A 
ATOM      4  C   UNL     1      -7.805   3.729 120.782  0.00  0.00    +0.000 A 
ATOM      5  C   UNL     1      -7.101   4.351 119.743  0.00  0.00    +0.000 A 
ATOM      6  C   UNL     1      -5.744   4.646 119.882  0.00  0.00    +0.000 A 
ATOM      7  C   UNL     1      -5.089   4.326 121.069  0.00  0.00    +0.000 A 
ATOM      8  C   UNL     1      -5.790   3.702 122.110  0.00  0.00    +0.000 A 
BRANCH   4   9
ATOM      9  O   UNL     1      -9.140   3.542 120.554  0.00  0.00    +0.000 OA
ATOM     10  H   UNL     1      -9.345   3.790 119.635  0.00  0.00    +0.000 HD
ENDBRANCH   4   9
ENDBRANCH   1   3
BRANCH   1  11
ATOM     11  O   UNL     1      -7.380   1.483 123.366  0.00  0.00    +0.000 OA
BRANCH  11  12
ATOM     12  C   UNL     1      -8.404   0.452 123.335  0.00  0.00    +0.000 C 
BRANCH  12  13
ATOM     13  C   UNL     1      -7.783  -0.964 123.531  0.00  0.00    +0.000 C 
BRANCH  13  14
ATOM     14  C   UNL     1      -8.831  -1.890 124.204  0.00  0.00    +0.000 C 
ATOM     15  C   UNL     1      -9.201  -3.175 123.471  0.00  0.00    +0.000 C 
ENDBRANCH  13  14
BRANCH  13  16
ATOM     16  C   UNL     1      -6.455  -0.843 124.333  0.00  0.00    +0.000 C 
BRANCH  16  17
ATOM     17  C   UNL     1      -5.751  -2.176 124.559  0.00  0.00    +0.000 C 
BRANCH  17  19
ATOM     18  C   UNL     1      -4.602  -4.207 123.764  0.00  0.00    +0.000 C 
ATOM     19  C   UNL     1      -5.258  -2.898 123.323  0.00  0.00    +0.000 C 
ENDBRANCH  17  19
ENDBRANCH  16  17
ENDBRANCH  13  16
ENDBRANCH  12  13
ENDBRANCH  11  12
ENDBRANCH   1  11
TORSDOF 9
ENDMDL
MODEL 2
REMARK VINA RESULT:      -6.3      1.920      6.506
REMARK  Name = Octisalate
REMARK  11 active torsions:
REMARK  status: ('A' for Active; 'I' for Inactive)
REMARK    1  A    between atoms: C_1  and  C_2
REMARK    2  A    between atoms: C_2  and  C_3
REMARK    3  A    between atoms: C_3  and  C_4
REMARK    4  A    between atoms: C_4  and  C_5
REMARK    5  A    between atoms: C_5  and  C_6
REMARK    6  A    between atoms: C_5  and  C_8
REMARK    7  A    between atoms: C_6  and  C_7
REMARK    8  A    between atoms: C_8  and  O_9
REMARK    9  A    between atoms: O_9  and  C_10
REMARK   10  A    between atoms: C_10  and  C_12
REMARK   11  A    between atoms: C_13  and  O_14
REMARK                            x       y       z     vdW  Elec       q    Type
REMARK                         _______ _______ _______ _____ _____    ______ ____
ROOT
ATOM      1  C   UNL     1      -9.147  -0.393 123.228  0.00  0.00    +0.000 C 
ATOM      2  O   UNL     1     -10.053  -0.540 122.431  0.00  0.00    +0.000 OA
ENDROOT
BRANCH   1   3
ATOM      3  C   UNL     1      -8.211  -1.493 123.603  0.00  0.00    +0.000 A 
ATOM      4  C   UNL     1      -8.623  -2.729 124.117  0.00  0.00    +0.000 A 
ATOM      5  C   UNL     1      -7.683  -3.726 124.409  0.00  0.00    +0.000 A 
ATOM      6  C   UNL     1      -6.324  -3.509 124.179  0.00  0.00    +0.000 A 
ATOM      7  C   UNL     1      -5.902  -2.293 123.647  0.00  0.00    +0.000 A 
ATOM      8  C   UNL     1      -6.840  -1.293 123.355  0.00  0.00    +0.000 A 
BRANCH   4   9
ATOM      9  O   UNL     1      -9.928  -3.077 124.329  0.00  0.00    +0.000 OA
ATOM     10  H   UNL     1     -10.019  -4.043 124.251  0.00  0.00    +0.000 HD
ENDBRANCH   4   9
ENDBRANCH   1   3
BRANCH   1  11
ATOM     11  O   UNL     1      -8.828   0.775 123.863  0.00  0.00    +0.000 OA
BRANCH  11  12
ATOM     12  C   UNL     1      -8.614   1.911 122.982  0.00  0.00    +0.000 C 
BRANCH  12  13
ATOM     13  C   UNL     1      -7.099   2.262 122.874  0.00  0.00    +0.000 C 
BRANCH  13  14
ATOM     14  C   UNL     1      -6.550   2.585 124.288  0.00  0.00    +0.000 C 
ATOM     15  C   UNL     1      -5.673   3.825 124.431  0.00  0.00    +0.000 C 
ENDBRANCH  13  14
BRANCH  13  16
ATOM     16  C   UNL     1      -6.906   3.421 121.852  0.00  0.00    +0.000 C 
BRANCH  16  17
ATOM     17  C   UNL     1      -5.699   3.239 120.939  0.00  0.00    +0.000 C 
BRANCH  17  19
ATOM     18  C   UNL     1      -5.443   5.308 119.624  0.00  0.00    +0.000 C 
ATOM     19  C   UNL     1      -4.822   4.455 120.729  0.00  0.00    +0.000 C 
ENDBRANCH  17  19
ENDBRANCH  16  17
ENDBRANCH  13  16
ENDBRANCH  12  13
ENDBRANCH  11  12
ENDBRANCH   1  11
TORSDOF 9
ENDMDL
MODEL 3
REMARK VINA RESULT:      -6.3      0.826      2.235
REMARK  Name = Octisalate
REMARK  11 active torsions:
REMARK  status: ('A' for Active; 'I' for Inactive)
REMARK    1  A    between atoms: C_1  and  C_2
REMARK    2  A    between atoms: C_2  and  C_3
REMARK    3  A    between atoms: C_3  and  C_4
REMARK    4  A    between atoms: C_4  and  C_5
REMARK    5  A    between atoms: C_5  and  C_6
REMARK    6  A    between atoms: C_5  and  C_8
REMARK    7  A    between atoms: C_6  and  C_7
REMARK    8  A    between atoms: C_8  and  O_9
REMARK    9  A    between atoms: O_9  and  C_10
REMARK   10  A    between atoms: C_10  and  C_12
REMARK   11  A    between atoms: C_13  and  O_14
REMARK                            x       y       z     vdW  Elec       q    Type
REMARK                         _______ _______ _______ _____ _____    ______ ____
ROOT
ATOM      1  C   UNL     1      -7.666   2.913 123.434  0.00  0.00    +0.000 C 
ATOM      2  O   UNL     1      -8.634   3.426 123.962  0.00  0.00    +0.000 OA
ENDROOT
BRANCH   1   3
ATOM      3  C   UNL     1      -7.005   3.485 122.224  0.00  0.00    +0.000 A 
ATOM      4  C   UNL     1      -7.661   3.705 121.005  0.00  0.00    +0.000 A 
ATOM      5  C   UNL     1      -6.979   4.282 119.926  0.00  0.00    +0.000 A 
ATOM      6  C   UNL     1      -5.642   4.660 120.052  0.00  0.00    +0.000 A 
ATOM      7  C   UNL     1      -4.984   4.469 121.265  0.00  0.00    +0.000 A 
ATOM      8  C   UNL     1      -5.663   3.890 122.346  0.00  0.00    +0.000 A 
BRANCH   4   9
ATOM      9  O   UNL     1      -8.981   3.429 120.783  0.00  0.00    +0.000 OA
ATOM     10  H   UNL     1      -9.305   2.833 121.480  0.00  0.00    +0.000 HD
ENDBRANCH   4   9
ENDBRANCH   1   3
BRANCH   1  11
ATOM     11  O   UNL     1      -7.027   1.786 123.869  0.00  0.00    +0.000 OA
BRANCH  11  12
ATOM     12  C   UNL     1      -7.028   0.680 122.926  0.00  0.00    +0.000 C 
BRANCH  12  13
ATOM     13  C   UNL     1      -7.170  -0.687 123.661  0.00  0.00    +0.000 C 
BRANCH  13  14
ATOM     14  C   UNL     1      -6.383  -1.770 122.875  0.00  0.00    +0.000 C 
ATOM     15  C   UNL     1      -5.429  -2.655 123.669  0.00  0.00    +0.000 C 
ENDBRANCH  13  14
BRANCH  13  16
ATOM     16  C   UNL     1      -8.678  -1.025 123.844  0.00  0.00    +0.000 C 
BRANCH  16  17
ATOM     17  C   UNL     1      -9.090  -2.352 123.219  0.00  0.00    +0.000 C 
BRANCH  17  19
ATOM     18  C   UNL     1      -9.336  -2.934 125.601  0.00  0.00    +0.000 C 
ATOM     19  C   UNL     1      -9.400  -3.483 124.176  0.00  0.00    +0.000 C 
ENDBRANCH  17  19
ENDBRANCH  16  17
ENDBRANCH  13  16
ENDBRANCH  12  13
ENDBRANCH  11  12
ENDBRANCH   1  11
TORSDOF 9
ENDMDL
MODEL 4
REMARK VINA RESULT:      -6.3      9.410     12.383
REMARK  Name = Octisalate
REMARK  11 active torsions:
REMARK  status: ('A' for Active; 'I' for Inactive)
REMARK    1  A    between atoms: C_1  and  C_2
REMARK    2  A    between atoms: C_2  and  C_3
REMARK    3  A    between atoms: C_3  and  C_4
REMARK    4  A    between atoms: C_4  and  C_5
REMARK    5  A    between atoms: C_5  and  C_6
REMARK    6  A    between atoms: C_5  and  C_8
REMARK    7  A    between atoms: C_6  and  C_7
REMARK    8  A    between atoms: C_8  and  O_9
REMARK    9  A    between atoms: O_9  and  C_10
REMARK   10  A    between atoms: C_10  and  C_12
REMARK   11  A    between atoms: C_13  and  O_14
REMARK                            x       y       z     vdW  Elec       q    Type
REMARK                         _______ _______ _______ _____ _____    ______ ____
ROOT
ATOM      1  C   UNL     1      -9.795   6.222 130.401  0.00  0.00    +0.000 C 
ATOM      2  O   UNL     1      -8.993   6.515 129.537  0.00  0.00    +0.000 OA
ENDROOT
BRANCH   1   3
ATOM      3  C   UNL     1      -9.618   5.048 131.307  0.00  0.00    +0.000 A 
ATOM      4  C   UNL     1      -9.452   5.149 132.694  0.00  0.00    +0.000 A 
ATOM      5  C   UNL     1      -9.331   3.995 133.480  0.00  0.00    +0.000 A 
ATOM      6  C   UNL     1      -9.389   2.730 132.897  0.00  0.00    +0.000 A 
ATOM      7  C   UNL     1      -9.578   2.614 131.522  0.00  0.00    +0.000 A 
ATOM      8  C   UNL     1      -9.697   3.766 130.732  0.00  0.00    +0.000 A 
BRANCH   4   9
ATOM      9  O   UNL     1      -9.438   6.330 133.382  0.00  0.00    +0.000 OA
ATOM     10  H   UNL     1      -9.476   6.144 134.337  0.00  0.00    +0.000 HD
ENDBRANCH   4   9
ENDBRANCH   1   3
BRANCH   1  11
ATOM     11  O   UNL     1     -10.935   6.915 130.697  0.00  0.00    +0.000 OA
BRANCH  11  12
ATOM     12  C   UNL     1     -12.131   6.446 130.018  0.00  0.00    +0.000 C 
BRANCH  12  13
ATOM     13  C   UNL     1     -12.618   7.477 128.956  0.00  0.00    +0.000 C 
BRANCH  13  14
ATOM     14  C   UNL     1     -12.135   7.026 127.552  0.00  0.00    +0.000 C 
ATOM     15  C   UNL     1     -11.102   7.904 126.853  0.00  0.00    +0.000 C 
ENDBRANCH  13  14
BRANCH  13  16
ATOM     16  C   UNL     1     -12.131   8.901 129.353  0.00  0.00    +0.000 C 
BRANCH  16  17
ATOM     17  C   UNL     1     -13.200   9.978 129.207  0.00  0.00    +0.000 C 
BRANCH  17  19
ATOM     18  C   UNL     1     -13.821  12.244 129.952  0.00  0.00    +0.000 C 
ATOM     19  C   UNL     1     -13.467  10.835 130.426  0.00  0.00    +0.000 C 
ENDBRANCH  17  19
ENDBRANCH  16  17
ENDBRANCH  13  16
ENDBRANCH  12  13
ENDBRANCH  11  12
ENDBRANCH   1  11
TORSDOF 9
ENDMDL
MODEL 5
REMARK VINA RESULT:      -6.2      3.862      6.821
REMARK  Name = Octisalate
REMARK  11 active torsions:
REMARK  status: ('A' for Active; 'I' for Inactive)
REMARK    1  A    between atoms: C_1  and  C_2
REMARK    2  A    between atoms: C_2  and  C_3
REMARK    3  A    between atoms: C_3  and  C_4
REMARK    4  A    between atoms: C_4  and  C_5
REMARK    5  A    between atoms: C_5  and  C_6
REMARK    6  A    between atoms: C_5  and  C_8
REMARK    7  A    between atoms: C_6  and  C_7
REMARK    8  A    between atoms: C_8  and  O_9
REMARK    9  A    between atoms: O_9  and  C_10
REMARK   10  A    between atoms: C_10  and  C_12
REMARK   11  A    between atoms: C_13  and  O_14
REMARK                            x       y       z     vdW  Elec       q    Type
REMARK                         _______ _______ _______ _____ _____    ______ ____
ROOT
ATOM      1  C   UNL     1      -6.779  -0.814 126.533  0.00  0.00    +0.000 C 
ATOM      2  O   UNL     1      -5.757  -0.283 126.921  0.00  0.00    +0.000 OA
ENDROOT
BRANCH   1   3
ATOM      3  C   UNL     1      -7.460  -1.910 127.284  0.00  0.00    +0.000 A 
ATOM      4  C   UNL     1      -7.299  -2.133 128.657  0.00  0.00    +0.000 A 
ATOM      5  C   UNL     1      -8.004  -3.161 129.297  0.00  0.00    +0.000 A 
ATOM      6  C   UNL     1      -8.887  -3.968 128.580  0.00  0.00    +0.000 A 
ATOM      7  C   UNL     1      -9.074  -3.743 127.218  0.00  0.00    +0.000 A 
ATOM      8  C   UNL     1      -8.369  -2.716 126.575  0.00  0.00    +0.000 A 
BRANCH   4   9
ATOM      9  O   UNL     1      -6.508  -1.372 129.472  0.00  0.00    +0.000 OA
ATOM     10  H   UNL     1      -6.237  -0.568 128.994  0.00  0.00    +0.000 HD
ENDBRANCH   4   9
ENDBRANCH   1   3
BRANCH   1  11
ATOM     11  O   UNL     1      -7.467  -0.481 125.399  0.00  0.00    +0.000 OA
BRANCH  11  12
ATOM     12  C   UNL     1      -6.638  -0.216 124.235  0.00  0.00    +0.000 C 
BRANCH  12  13
ATOM     13  C   UNL     1      -7.197  -0.934 122.970  0.00  0.00    +0.000 C 
BRANCH  13  14
ATOM     14  C   UNL     1      -8.658  -1.379 123.243  0.00  0.00    +0.000 C 
ATOM     15  C   UNL     1      -8.987  -2.855 123.043  0.00  0.00    +0.000 C 
ENDBRANCH  13  14
BRANCH  13  16
ATOM     16  C   UNL     1      -6.252  -2.106 122.577  0.00  0.00    +0.000 C 
BRANCH  16  17
ATOM     17  C   UNL     1      -5.216  -2.444 123.644  0.00  0.00    +0.000 C 
BRANCH  17  19
ATOM     18  C   UNL     1      -4.289  -4.717 123.438  0.00  0.00    +0.000 C 
ATOM     19  C   UNL     1      -5.269  -3.843 124.219  0.00  0.00    +0.000 C 
ENDBRANCH  17  19
ENDBRANCH  16  17
ENDBRANCH  13  16
ENDBRANCH  12  13
ENDBRANCH  11  12
ENDBRANCH   1  11
TORSDOF 9
ENDMDL
MODEL 6
REMARK VINA RESULT:      -6.2      1.239      1.978
REMARK  Name = Octisalate
REMARK  11 active torsions:
REMARK  status: ('A' for Active; 'I' for Inactive)
REMARK    1  A    between atoms: C_1  and  C_2
REMARK    2  A    between atoms: C_2  and  C_3
REMARK    3  A    between atoms: C_3  and  C_4
REMARK    4  A    between atoms: C_4  and  C_5
REMARK    5  A    between atoms: C_5  and  C_6
REMARK    6  A    between atoms: C_5  and  C_8
REMARK    7  A    between atoms: C_6  and  C_7
REMARK    8  A    between atoms: C_8  and  O_9
REMARK    9  A    between atoms: O_9  and  C_10
REMARK   10  A    between atoms: C_10  and  C_12
REMARK   11  A    between atoms: C_13  and  O_14
REMARK                            x       y       z     vdW  Elec       q    Type
REMARK                         _______ _______ _______ _____ _____    ______ ____
ROOT
ATOM      1  C   UNL     1      -7.671   2.737 123.713  0.00  0.00    +0.000 C 
ATOM      2  O   UNL     1      -8.800   3.098 123.985  0.00  0.00    +0.000 OA
ENDROOT
BRANCH   1   3
ATOM      3  C   UNL     1      -6.817   3.435 122.707  0.00  0.00    +0.000 A 
ATOM      4  C   UNL     1      -5.593   4.044 123.010  0.00  0.00    +0.000 A 
ATOM      5  C   UNL     1      -4.831   4.646 122.000  0.00  0.00    +0.000 A 
ATOM      6  C   UNL     1      -5.272   4.635 120.676  0.00  0.00    +0.000 A 
ATOM      7  C   UNL     1      -6.476   4.011 120.357  0.00  0.00    +0.000 A 
ATOM      8  C   UNL     1      -7.242   3.410 121.366  0.00  0.00    +0.000 A 
BRANCH   4   9
ATOM      9  O   UNL     1      -5.034   4.068 124.257  0.00  0.00    +0.000 OA
ATOM     10  H   UNL     1      -4.165   4.504 124.209  0.00  0.00    +0.000 HD
ENDBRANCH   4   9
ENDBRANCH   1   3
BRANCH   1  11
ATOM     11  O   UNL     1      -7.011   1.688 124.290  0.00  0.00    +0.000 OA
BRANCH  11  12
ATOM     12  C   UNL     1      -7.703   0.412 124.212  0.00  0.00    +0.000 C 
BRANCH  12  13
ATOM     13  C   UNL     1      -6.811  -0.673 123.536  0.00  0.00    +0.000 C 
BRANCH  13  14
ATOM     14  C   UNL     1      -7.722  -1.695 122.805  0.00  0.00    +0.000 C 
ATOM     15  C   UNL     1      -9.226  -1.451 122.855  0.00  0.00    +0.000 C 
ENDBRANCH  13  14
BRANCH  13  16
ATOM     16  C   UNL     1      -5.881  -1.320 124.603  0.00  0.00    +0.000 C 
BRANCH  16  17
ATOM     17  C   UNL     1      -5.679  -2.819 124.414  0.00  0.00    +0.000 C 
BRANCH  17  19
ATOM     18  C   UNL     1      -4.425  -4.763 123.564  0.00  0.00    +0.000 C 
ATOM     19  C   UNL     1      -4.535  -3.239 123.516  0.00  0.00    +0.000 C 
ENDBRANCH  17  19
ENDBRANCH  16  17
ENDBRANCH  13  16
ENDBRANCH  12  13
ENDBRANCH  11  12
ENDBRANCH   1  11
TORSDOF 9
ENDMDL
MODEL 7
REMARK VINA RESULT:      -6.2      9.375     11.075
REMARK  Name = Octisalate
REMARK  11 active torsions:
REMARK  status: ('A' for Active; 'I' for Inactive)
REMARK    1  A    between atoms: C_1  and  C_2
REMARK    2  A    between atoms: C_2  and  C_3
REMARK    3  A    between atoms: C_3  and  C_4
REMARK    4  A    between atoms: C_4  and  C_5
REMARK    5  A    between atoms: C_5  and  C_6
REMARK    6  A    between atoms: C_5  and  C_8
REMARK    7  A    between atoms: C_6  and  C_7
REMARK    8  A    between atoms: C_8  and  O_9
REMARK    9  A    between atoms: O_9  and  C_10
REMARK   10  A    between atoms: C_10  and  C_12
REMARK   11  A    between atoms: C_13  and  O_14
REMARK                            x       y       z     vdW  Elec       q    Type
REMARK                         _______ _______ _______ _____ _____    ______ ____
ROOT
ATOM      1  C   UNL     1     -10.171   5.419 129.662  0.00  0.00    +0.000 C 
ATOM      2  O   UNL     1     -10.540   4.270 129.806  0.00  0.00    +0.000 OA
ENDROOT
BRANCH   1   3
ATOM      3  C   UNL     1     -11.099   6.585 129.743  0.00  0.00    +0.000 A 
ATOM      4  C   UNL     1     -11.970   6.818 130.816  0.00  0.00    +0.000 A 
ATOM      5  C   UNL     1     -12.784   7.958 130.835  0.00  0.00    +0.000 A 
ATOM      6  C   UNL     1     -12.729   8.887 129.796  0.00  0.00    +0.000 A 
ATOM      7  C   UNL     1     -11.850   8.681 128.735  0.00  0.00    +0.000 A 
ATOM      8  C   UNL     1     -11.036   7.540 128.711  0.00  0.00    +0.000 A 
BRANCH   4   9
ATOM      9  O   UNL     1     -12.069   6.010 131.914  0.00  0.00    +0.000 OA
ATOM     10  H   UNL     1     -12.196   5.090 131.624  0.00  0.00    +0.000 HD
ENDBRANCH   4   9
ENDBRANCH   1   3
BRANCH   1  11
ATOM     11  O   UNL     1      -8.882   5.819 129.442  0.00  0.00    +0.000 OA
BRANCH  11  12
ATOM     12  C   UNL     1      -7.916   5.335 130.414  0.00  0.00    +0.000 C 
BRANCH  12  13
ATOM     13  C   UNL     1      -7.670   6.389 131.537  0.00  0.00    +0.000 C 
BRANCH  13  14
ATOM     14  C   UNL     1      -6.155   6.433 131.868  0.00  0.00    +0.000 C 
ATOM     15  C   UNL     1      -5.233   7.075 130.837  0.00  0.00    +0.000 C 
ENDBRANCH  13  14
BRANCH  13  16
ATOM     16  C   UNL     1      -8.566   6.057 132.766  0.00  0.00    +0.000 C 
BRANCH  16  17
ATOM     17  C   UNL     1      -8.801   4.565 132.969  0.00  0.00    +0.000 C 
BRANCH  17  19
ATOM     18  C   UNL     1      -7.772   5.114 135.140  0.00  0.00    +0.000 C 
ATOM     19  C   UNL     1      -8.316   3.976 134.277  0.00  0.00    +0.000 C 
ENDBRANCH  17  19
ENDBRANCH  16  17
ENDBRANCH  13  16
ENDBRANCH  12  13
ENDBRANCH  11  12
ENDBRANCH   1  11
TORSDOF 9
ENDMDL
MODEL 8
REMARK VINA RESULT:      -6.1      1.286      2.046
REMARK  Name = Octisalate
REMARK  11 active torsions:
REMARK  status: ('A' for Active; 'I' for Inactive)
REMARK    1  A    between atoms: C_1  and  C_2
REMARK    2  A    between atoms: C_2  and  C_3
REMARK    3  A    between atoms: C_3  and  C_4
REMARK    4  A    between atoms: C_4  and  C_5
REMARK    5  A    between atoms: C_5  and  C_6
REMARK    6  A    between atoms: C_5  and  C_8
REMARK    7  A    between atoms: C_6  and  C_7
REMARK    8  A    between atoms: C_8  and  O_9
REMARK    9  A    between atoms: O_9  and  C_10
REMARK   10  A    between atoms: C_10  and  C_12
REMARK   11  A    between atoms: C_13  and  O_14
REMARK                            x       y       z     vdW  Elec       q    Type
REMARK                         _______ _______ _______ _____ _____    ______ ____
ROOT
ATOM      1  C   UNL     1      -6.404   3.247 122.709  0.00  0.00    +0.000 C 
ATOM      2  O   UNL     1      -5.942   3.858 123.652  0.00  0.00    +0.000 OA
ENDROOT
BRANCH   1   3
ATOM      3  C   UNL     1      -6.505   3.827 121.338  0.00  0.00    +0.000 A 
ATOM      4  C   UNL     1      -7.683   3.841 120.579  0.00  0.00    +0.000 A 
ATOM      5  C   UNL     1      -7.705   4.440 119.313  0.00  0.00    +0.000 A 
ATOM      6  C   UNL     1      -6.561   5.046 118.795  0.00  0.00    +0.000 A 
ATOM      7  C   UNL     1      -5.389   5.061 119.548  0.00  0.00    +0.000 A 
ATOM      8  C   UNL     1      -5.363   4.460 120.814  0.00  0.00    +0.000 A 
BRANCH   4   9
ATOM      9  O   UNL     1      -8.877   3.331 121.006  0.00  0.00    +0.000 OA
ATOM     10  H   UNL     1      -9.030   2.471 120.576  0.00  0.00    +0.000 HD
ENDBRANCH   4   9
ENDBRANCH   1   3
BRANCH   1  11
ATOM     11  O   UNL     1      -6.861   1.959 122.743  0.00  0.00    +0.000 OA
BRANCH  11  12
ATOM     12  C   UNL     1      -7.761   1.657 123.844  0.00  0.00    +0.000 C 
BRANCH  12  13
ATOM     13  C   UNL     1      -7.581   0.189 124.334  0.00  0.00    +0.000 C 
BRANCH  13  14
ATOM     14  C   UNL     1      -6.935   0.200 125.744  0.00  0.00    +0.000 C 
ATOM     15  C   UNL     1      -5.412   0.189 125.815  0.00  0.00    +0.000 C 
ENDBRANCH  13  14
BRANCH  13  16
ATOM     16  C   UNL     1      -6.761  -0.613 123.281  0.00  0.00    +0.000 C 
BRANCH  16  17
ATOM     17  C   UNL     1      -7.222  -2.057 123.115  0.00  0.00    +0.000 C 
BRANCH  17  19
ATOM     18  C   UNL     1      -4.988  -2.910 123.714  0.00  0.00    +0.000 C 
ATOM     19  C   UNL     1      -6.489  -3.098 123.933  0.00  0.00    +0.000 C 
ENDBRANCH  17  19
ENDBRANCH  16  17
ENDBRANCH  13  16
ENDBRANCH  12  13
ENDBRANCH  11  12
ENDBRANCH   1  11
TORSDOF 9
ENDMDL
MODEL 9
REMARK VINA RESULT:      -6.0      4.706      7.999
REMARK  Name = Octisalate
REMARK  11 active torsions:
REMARK  status: ('A' for Active; 'I' for Inactive)
REMARK    1  A    between atoms: C_1  and  C_2
REMARK    2  A    between atoms: C_2  and  C_3
REMARK    3  A    between atoms: C_3  and  C_4
REMARK    4  A    between atoms: C_4  and  C_5
REMARK    5  A    between atoms: C_5  and  C_6
REMARK    6  A    between atoms: C_5  and  C_8
REMARK    7  A    between atoms: C_6  and  C_7
REMARK    8  A    between atoms: C_8  and  O_9
REMARK    9  A    between atoms: O_9  and  C_10
REMARK   10  A    between atoms: C_10  and  C_12
REMARK   11  A    between atoms: C_13  and  O_14
REMARK                            x       y       z     vdW  Elec       q    Type
REMARK                         _______ _______ _______ _____ _____    ______ ____
ROOT
ATOM      1  C   UNL     1      -5.735  -1.293 127.325  0.00  0.00    +0.000 C 
ATOM      2  O   UNL     1      -5.229  -0.203 127.504  0.00  0.00    +0.000 OA
ENDROOT
BRANCH   1   3
ATOM      3  C   UNL     1      -5.838  -2.325 128.398  0.00  0.00    +0.000 A 
ATOM      4  C   UNL     1      -4.756  -2.752 129.179  0.00  0.00    +0.000 A 
ATOM      5  C   UNL     1      -4.943  -3.698 130.195  0.00  0.00    +0.000 A 
ATOM      6  C   UNL     1      -6.211  -4.220 130.454  0.00  0.00    +0.000 A 
ATOM      7  C   UNL     1      -7.299  -3.787 129.701  0.00  0.00    +0.000 A 
ATOM      8  C   UNL     1      -7.116  -2.842 128.683  0.00  0.00    +0.000 A 
BRANCH   4   9
ATOM      9  O   UNL     1      -3.482  -2.270 129.056  0.00  0.00    +0.000 OA
ATOM     10  H   UNL     1      -3.494  -1.303 129.169  0.00  0.00    +0.000 HD
ENDBRANCH   4   9
ENDBRANCH   1   3
BRANCH   1  11
ATOM     11  O   UNL     1      -6.303  -1.724 126.159  0.00  0.00    +0.000 OA
BRANCH  11  12
ATOM     12  C   UNL     1      -5.468  -1.575 124.979  0.00  0.00    +0.000 C 
BRANCH  12  13
ATOM     13  C   UNL     1      -5.832  -2.632 123.893  0.00  0.00    +0.000 C 
BRANCH  13  14
ATOM     14  C   UNL     1      -4.531  -3.315 123.393  0.00  0.00    +0.000 C 
ATOM     15  C   UNL     1      -4.406  -4.819 123.606  0.00  0.00    +0.000 C 
ENDBRANCH  13  14
BRANCH  13  16
ATOM     16  C   UNL     1      -6.651  -1.951 122.759  0.00  0.00    +0.000 C 
BRANCH  16  17
ATOM     17  C   UNL     1      -8.124  -1.756 123.098  0.00  0.00    +0.000 C 
BRANCH  17  19
ATOM     18  C   UNL     1      -9.260  -3.105 124.820  0.00  0.00    +0.000 C 
ATOM     19  C   UNL     1      -8.936  -3.012 123.329  0.00  0.00    +0.000 C 
ENDBRANCH  17  19
ENDBRANCH  16  17
ENDBRANCH  13  16
ENDBRANCH  12  13
ENDBRANCH  11  12
ENDBRANCH   1  11
TORSDOF 9
ENDMDL
