MODEL 1
REMARK VINA RESULT:      -6.8      0.000      0.000
REMARK  Name = Octinoxate
REMARK  13 active torsions:
REMARK  status: ('A' for Active; 'I' for Inactive)
REMARK    1  A    between atoms: C_2  and  C_13
REMARK    2  A    between atoms: C_3  and  C_5
REMARK    3  A    between atoms: C_8  and  O_9
REMARK    4  A    between atoms: O_9  and  C_10
REMARK    5  A    between atoms: C_13  and  O_15
REMARK    6  A    between atoms: O_15  and  C_16
REMARK    7  A    between atoms: C_16  and  C_17
REMARK    8  A    between atoms: C_17  and  C_18
REMARK    9  A    between atoms: C_17  and  C_20
REMARK   10  A    between atoms: C_18  and  C_19
REMARK   11  A    between atoms: C_20  and  C_21
REMARK   12  A    between atoms: C_21  and  C_22
REMARK   13  A    between atoms: C_22  and  C_23
REMARK                            x       y       z     vdW  Elec       q    Type
REMARK                         _______ _______ _______ _____ _____    ______ ____
ROOT
ATOM      1  C   UNL     1      -8.316   1.088 125.391  0.00  0.00    +0.000 C 
ATOM      2  O   UNL     1      -9.246   1.551 126.045  0.00  0.00    +0.000 OA
ENDROOT
BRANCH   1   3
ATOM      3  C   UNL     1      -7.893   1.697 124.105  0.00  0.00    +0.000 C 
ATOM      4  C   UNL     1      -8.558   2.620 123.386  0.00  0.00    +0.000 C 
BRANCH   4   5
ATOM      5  C   UNL     1      -8.074   3.140 122.092  0.00  0.00    +0.000 A 
ATOM      6  C   UNL     1      -6.706   3.354 121.869  0.00  0.00    +0.000 A 
ATOM      7  C   UNL     1      -6.258   3.946 120.675  0.00  0.00    +0.000 A 
ATOM      8  C   UNL     1      -7.159   4.265 119.656  0.00  0.00    +0.000 A 
ATOM      9  C   UNL     1      -8.518   4.063 119.877  0.00  0.00    +0.000 A 
ATOM     10  C   UNL     1      -8.970   3.515 121.084  0.00  0.00    +0.000 A 
BRANCH   8  11
ATOM     11  O   UNL     1      -6.611   4.750 118.498  0.00  0.00    +0.000 OA
ATOM     12  C   UNL     1      -5.877   5.969 118.607  0.00  0.00    +0.000 C 
ENDBRANCH   8  11
ENDBRANCH   4   5
ENDBRANCH   1   3
BRANCH   1  13
ATOM     13  O   UNL     1      -7.570   0.016 125.738  0.00  0.00    +0.000 OA
BRANCH  13  14
ATOM     14  C   UNL     1      -8.291  -1.142 126.213  0.00  0.00    +0.000 C 
BRANCH  14  15
ATOM     15  C   UNL     1      -7.823  -2.410 125.457  0.00  0.00    +0.000 C 
BRANCH  15  16
ATOM     16  C   UNL     1      -8.998  -3.170 124.799  0.00  0.00    +0.000 C 
ATOM     17  C   UNL     1      -9.085  -2.998 123.298  0.00  0.00    +0.000 C 
ENDBRANCH  15  16
BRANCH  15  18
ATOM     18  C   UNL     1      -6.772  -2.037 124.387  0.00  0.00    +0.000 C 
BRANCH  18  19
ATOM     19  C   UNL     1      -5.440  -2.763 124.594  0.00  0.00    +0.000 C 
BRANCH  19  20
ATOM     20  C   UNL     1      -4.906  -3.353 123.298  0.00  0.00    +0.000 C 
ATOM     21  C   UNL     1      -4.251  -4.698 123.568  0.00  0.00    +0.000 C 
ENDBRANCH  19  20
ENDBRANCH  18  19
ENDBRANCH  15  18
ENDBRANCH  14  15
ENDBRANCH  13  14
ENDBRANCH   1  13
TORSDOF 10
ENDMDL
MODEL 2
REMARK VINA RESULT:      -6.4      3.764      8.379
REMARK  Name = Octinoxate
REMARK  13 active torsions:
REMARK  status: ('A' for Active; 'I' for Inactive)
REMARK    1  A    between atoms: C_2  and  C_13
REMARK    2  A    between atoms: C_3  and  C_5
REMARK    3  A    between atoms: C_8  and  O_9
REMARK    4  A    between atoms: O_9  and  C_10
REMARK    5  A    between atoms: C_13  and  O_15
REMARK    6  A    between atoms: O_15  and  C_16
REMARK    7  A    between atoms: C_16  and  C_17
REMARK    8  A    between atoms: C_17  and  C_18
REMARK    9  A    between atoms: C_17  and  C_20
REMARK   10  A    between atoms: C_18  and  C_19
REMARK   11  A    between atoms: C_20  and  C_21
REMARK   12  A    between atoms: C_21  and  C_22
REMARK   13  A    between atoms: C_22  and  C_23
REMARK                            x       y       z     vdW  Elec       q    Type
REMARK                         _______ _______ _______ _____ _____    ______ ____
ROOT
ATOM      1  C   UNL     1      -9.070  -2.447 125.439  0.00  0.00    +0.000 C 
ATOM      2  O   UNL     1      -9.995  -3.227 125.230  0.00  0.00    +0.000 OA
ENDROOT
BRANCH   1   3
ATOM      3  C   UNL     1      -7.995  -2.763 126.413  0.00  0.00    +0.000 C 
ATOM      4  C   UNL     1      -7.974  -2.465 127.725  0.00  0.00    +0.000 C 
BRANCH   4   5
ATOM      5  C   UNL     1      -6.837  -2.786 128.610  0.00  0.00    +0.000 A 
ATOM      6  C   UNL     1      -5.531  -2.404 128.270  0.00  0.00    +0.000 A 
ATOM      7  C   UNL     1      -4.439  -2.801 129.061  0.00  0.00    +0.000 A 
ATOM      8  C   UNL     1      -4.638  -3.521 130.241  0.00  0.00    +0.000 A 
ATOM      9  C   UNL     1      -5.931  -3.911 130.577  0.00  0.00    +0.000 A 
ATOM     10  C   UNL     1      -7.015  -3.555 129.766  0.00  0.00    +0.000 A 
BRANCH   8  11
ATOM     11  O   UNL     1      -3.518  -3.777 130.987  0.00  0.00    +0.000 OA
ATOM     12  C   UNL     1      -3.734  -4.113 132.358  0.00  0.00    +0.000 C 
ENDBRANCH   8  11
ENDBRANCH   4   5
ENDBRANCH   1   3
BRANCH   1  13
ATOM     13  O   UNL     1      -8.900  -1.251 124.834  0.00  0.00    +0.000 OA
BRANCH  13  14
ATOM     14  C   UNL     1      -8.589  -1.282 123.424  0.00  0.00    +0.000 C 
BRANCH  14  15
ATOM     15  C   UNL     1      -7.133  -0.811 123.187  0.00  0.00    +0.000 C 
BRANCH  15  16
ATOM     16  C   UNL     1      -6.540  -0.092 124.421  0.00  0.00    +0.000 C 
ATOM     17  C   UNL     1      -6.744   1.407 124.424  0.00  0.00    +0.000 C 
ENDBRANCH  15  16
BRANCH  15  18
ATOM     18  C   UNL     1      -6.241  -2.010 122.796  0.00  0.00    +0.000 C 
BRANCH  18  19
ATOM     19  C   UNL     1      -5.301  -2.436 123.927  0.00  0.00    +0.000 C 
BRANCH  19  20
ATOM     20  C   UNL     1      -5.338  -3.938 124.163  0.00  0.00    +0.000 C 
ATOM     21  C   UNL     1      -4.174  -4.606 123.449  0.00  0.00    +0.000 C 
ENDBRANCH  19  20
ENDBRANCH  18  19
ENDBRANCH  15  18
ENDBRANCH  14  15
ENDBRANCH  13  14
ENDBRANCH   1  13
TORSDOF 10
ENDMDL
MODEL 3
REMARK VINA RESULT:      -6.4      3.304      4.888
REMARK  Name = Octinoxate
REMARK  13 active torsions:
REMARK  status: ('A' for Active; 'I' for Inactive)
REMARK    1  A    between atoms: C_2  and  C_13
REMARK    2  A    between atoms: C_3  and  C_5
REMARK    3  A    between atoms: C_8  and  O_9
REMARK    4  A    between atoms: O_9  and  C_10
REMARK    5  A    between atoms: C_13  and  O_15
REMARK    6  A    between atoms: O_15  and  C_16
REMARK    7  A    between atoms: C_16  and  C_17
REMARK    8  A    between atoms: C_17  and  C_18
REMARK    9  A    between atoms: C_17  and  C_20
REMARK   10  A    between atoms: C_18  and  C_19
REMARK   11  A    between atoms: C_20  and  C_21
REMARK   12  A    between atoms: C_21  and  C_22
REMARK   13  A    between atoms: C_22  and  C_23
REMARK                            x       y       z     vdW  Elec       q    Type
REMARK                         _______ _______ _______ _____ _____    ______ ____
ROOT
ATOM      1  C   UNL     1      -9.788  -0.338 123.091  0.00  0.00    +0.000 C 
ATOM      2  O   UNL     1     -10.528   0.334 122.379  0.00  0.00    +0.000 OA
ENDROOT
BRANCH   1   3
ATOM      3  C   UNL     1      -8.716   0.288 123.906  0.00  0.00    +0.000 C 
ATOM      4  C   UNL     1      -7.729   1.090 123.470  0.00  0.00    +0.000 C 
BRANCH   4   5
ATOM      5  C   UNL     1      -6.679   1.636 124.354  0.00  0.00    +0.000 A 
ATOM      6  C   UNL     1      -6.141   0.862 125.392  0.00  0.00    +0.000 A 
ATOM      7  C   UNL     1      -5.219   1.418 126.296  0.00  0.00    +0.000 A 
ATOM      8  C   UNL     1      -4.763   2.729 126.135  0.00  0.00    +0.000 A 
ATOM      9  C   UNL     1      -5.302   3.503 125.111  0.00  0.00    +0.000 A 
ATOM     10  C   UNL     1      -6.255   2.964 124.237  0.00  0.00    +0.000 A 
BRANCH   8  11
ATOM     11  O   UNL     1      -3.796   3.143 127.011  0.00  0.00    +0.000 OA
ATOM     12  C   UNL     1      -2.553   3.547 126.437  0.00  0.00    +0.000 C 
ENDBRANCH   8  11
ENDBRANCH   4   5
ENDBRANCH   1   3
BRANCH   1  13
ATOM     13  O   UNL     1      -9.847  -1.681 123.238  0.00  0.00    +0.000 OA
BRANCH  13  14
ATOM     14  C   UNL     1      -8.643  -2.415 122.927  0.00  0.00    +0.000 C 
BRANCH  14  15
ATOM     15  C   UNL     1      -8.298  -3.387 124.083  0.00  0.00    +0.000 C 
BRANCH  15  16
ATOM     16  C   UNL     1      -6.786  -3.402 124.407  0.00  0.00    +0.000 C 
ATOM     17  C   UNL     1      -5.954  -2.493 123.528  0.00  0.00    +0.000 C 
ENDBRANCH  15  16
BRANCH  15  18
ATOM     18  C   UNL     1      -9.105  -3.020 125.348  0.00  0.00    +0.000 C 
BRANCH  18  19
ATOM     19  C   UNL     1      -8.292  -2.181 126.339  0.00  0.00    +0.000 C 
BRANCH  19  20
ATOM     20  C   UNL     1      -8.207  -2.840 127.707  0.00  0.00    +0.000 C 
ATOM     21  C   UNL     1      -9.072  -4.089 127.738  0.00  0.00    +0.000 C 
ENDBRANCH  19  20
ENDBRANCH  18  19
ENDBRANCH  15  18
ENDBRANCH  14  15
ENDBRANCH  13  14
ENDBRANCH   1  13
TORSDOF 10
ENDMDL
MODEL 4
REMARK VINA RESULT:      -6.3      4.411      9.157
REMARK  Name = Octinoxate
REMARK  13 active torsions:
REMARK  status: ('A' for Active; 'I' for Inactive)
REMARK    1  A    between atoms: C_2  and  C_13
REMARK    2  A    between atoms: C_3  and  C_5
REMARK    3  A    between atoms: C_8  and  O_9
REMARK    4  A    between atoms: O_9  and  C_10
REMARK    5  A    between atoms: C_13  and  O_15
REMARK    6  A    between atoms: O_15  and  C_16
REMARK    7  A    between atoms: C_16  and  C_17
REMARK    8  A    between atoms: C_17  and  C_18
REMARK    9  A    between atoms: C_17  and  C_20
REMARK   10  A    between atoms: C_18  and  C_19
REMARK   11  A    between atoms: C_20  and  C_21
REMARK   12  A    between atoms: C_21  and  C_22
REMARK   13  A    between atoms: C_22  and  C_23
REMARK                            x       y       z     vdW  Elec       q    Type
REMARK                         _______ _______ _______ _____ _____    ______ ____
ROOT
ATOM      1  C   UNL     1      -8.995  -3.142 126.062  0.00  0.00    +0.000 C 
ATOM      2  O   UNL     1     -10.112  -2.655 125.911  0.00  0.00    +0.000 OA
ENDROOT
BRANCH   1   3
ATOM      3  C   UNL     1      -8.455  -3.438 127.413  0.00  0.00    +0.000 C 
ATOM      4  C   UNL     1      -7.993  -2.553 128.315  0.00  0.00    +0.000 C 
BRANCH   4   5
ATOM      5  C   UNL     1      -7.436  -2.948 129.624  0.00  0.00    +0.000 A 
ATOM      6  C   UNL     1      -7.785  -2.255 130.791  0.00  0.00    +0.000 A 
ATOM      7  C   UNL     1      -7.174  -2.566 132.019  0.00  0.00    +0.000 A 
ATOM      8  C   UNL     1      -6.262  -3.620 132.115  0.00  0.00    +0.000 A 
ATOM      9  C   UNL     1      -5.906  -4.304 130.957  0.00  0.00    +0.000 A 
ATOM     10  C   UNL     1      -6.480  -3.965 129.725  0.00  0.00    +0.000 A 
BRANCH   8  11
ATOM     11  O   UNL     1      -5.796  -3.901 133.372  0.00  0.00    +0.000 OA
ATOM     12  C   UNL     1      -5.893  -5.262 133.793  0.00  0.00    +0.000 C 
ENDBRANCH   8  11
ENDBRANCH   4   5
ENDBRANCH   1   3
BRANCH   1  13
ATOM     13  O   UNL     1      -8.142  -3.473 125.068  0.00  0.00    +0.000 OA
BRANCH  13  14
ATOM     14  C   UNL     1      -8.554  -3.132 123.726  0.00  0.00    +0.000 C 
BRANCH  14  15
ATOM     15  C   UNL     1      -7.652  -2.007 123.160  0.00  0.00    +0.000 C 
BRANCH  15  16
ATOM     16  C   UNL     1      -8.340  -0.623 123.206  0.00  0.00    +0.000 C 
ATOM     17  C   UNL     1      -9.769  -0.624 122.706  0.00  0.00    +0.000 C 
ENDBRANCH  15  16
BRANCH  15  18
ATOM     18  C   UNL     1      -6.315  -1.956 123.932  0.00  0.00    +0.000 C 
BRANCH  18  19
ATOM     19  C   UNL     1      -5.223  -2.802 123.269  0.00  0.00    +0.000 C 
BRANCH  19  20
ATOM     20  C   UNL     1      -4.753  -3.933 124.170  0.00  0.00    +0.000 C 
ATOM     21  C   UNL     1      -4.172  -5.060 123.331  0.00  0.00    +0.000 C 
ENDBRANCH  19  20
ENDBRANCH  18  19
ENDBRANCH  15  18
ENDBRANCH  14  15
ENDBRANCH  13  14
ENDBRANCH   1  13
TORSDOF 10
ENDMDL
MODEL 5
REMARK VINA RESULT:      -6.3      1.585      2.661
REMARK  Name = Octinoxate
REMARK  13 active torsions:
REMARK  status: ('A' for Active; 'I' for Inactive)
REMARK    1  A    between atoms: C_2  and  C_13
REMARK    2  A    between atoms: C_3  and  C_5
REMARK    3  A    between atoms: C_8  and  O_9
REMARK    4  A    between atoms: O_9  and  C_10
REMARK    5  A    between atoms: C_13  and  O_15
REMARK    6  A    between atoms: O_15  and  C_16
REMARK    7  A    between atoms: C_16  and  C_17
REMARK    8  A    between atoms: C_17  and  C_18
REMARK    9  A    between atoms: C_17  and  C_20
REMARK   10  A    between atoms: C_18  and  C_19
REMARK   11  A    between atoms: C_20  and  C_21
REMARK   12  A    between atoms: C_21  and  C_22
REMARK   13  A    between atoms: C_22  and  C_23
REMARK                            x       y       z     vdW  Elec       q    Type
REMARK                         _______ _______ _______ _____ _____    ______ ____
ROOT
ATOM      1  C   UNL     1      -9.650   0.780 124.262  0.00  0.00    +0.000 C 
ATOM      2  O   UNL     1     -10.787   1.103 124.594  0.00  0.00    +0.000 OA
ENDROOT
BRANCH   1   3
ATOM      3  C   UNL     1      -8.896   1.541 123.234  0.00  0.00    +0.000 C 
ATOM      4  C   UNL     1      -7.816   2.319 123.429  0.00  0.00    +0.000 C 
BRANCH   4   5
ATOM      5  C   UNL     1      -7.154   3.072 122.345  0.00  0.00    +0.000 A 
ATOM      6  C   UNL     1      -5.868   3.601 122.520  0.00  0.00    +0.000 A 
ATOM      7  C   UNL     1      -5.282   4.405 121.526  0.00  0.00    +0.000 A 
ATOM      8  C   UNL     1      -5.939   4.632 120.314  0.00  0.00    +0.000 A 
ATOM      9  C   UNL     1      -7.220   4.117 120.141  0.00  0.00    +0.000 A 
ATOM     10  C   UNL     1      -7.823   3.353 121.148  0.00  0.00    +0.000 A 
BRANCH   8  11
ATOM     11  O   UNL     1      -5.244   5.350 119.377  0.00  0.00    +0.000 OA
ATOM     12  C   UNL     1      -5.973   5.745 118.215  0.00  0.00    +0.000 C 
ENDBRANCH   8  11
ENDBRANCH   4   5
ENDBRANCH   1   3
BRANCH   1  13
ATOM     13  O   UNL     1      -8.950  -0.259 124.769  0.00  0.00    +0.000 OA
BRANCH  13  14
ATOM     14  C   UNL     1      -8.560  -1.289 123.835  0.00  0.00    +0.000 C 
BRANCH  14  15
ATOM     15  C   UNL     1      -8.014  -2.522 124.597  0.00  0.00    +0.000 C 
BRANCH  15  16
ATOM     16  C   UNL     1      -6.518  -2.781 124.302  0.00  0.00    +0.000 C 
ATOM     17  C   UNL     1      -6.041  -2.223 122.978  0.00  0.00    +0.000 C 
ENDBRANCH  15  16
BRANCH  15  18
ATOM     18  C   UNL     1      -8.230  -2.349 126.117  0.00  0.00    +0.000 C 
BRANCH  18  19
ATOM     19  C   UNL     1      -8.971  -3.534 126.743  0.00  0.00    +0.000 C 
BRANCH  19  20
ATOM     20  C   UNL     1      -8.675  -3.668 128.229  0.00  0.00    +0.000 C 
ATOM     21  C   UNL     1      -7.431  -2.872 128.587  0.00  0.00    +0.000 C 
ENDBRANCH  19  20
ENDBRANCH  18  19
ENDBRANCH  15  18
ENDBRANCH  14  15
ENDBRANCH  13  14
ENDBRANCH   1  13
TORSDOF 10
ENDMDL
MODEL 6
REMARK VINA RESULT:      -6.2      9.525     11.955
REMARK  Name = Octinoxate
REMARK  13 active torsions:
REMARK  status: ('A' for Active; 'I' for Inactive)
REMARK    1  A    between atoms: C_2  and  C_13
REMARK    2  A    between atoms: C_3  and  C_5
REMARK    3  A    between atoms: C_8  and  O_9
REMARK    4  A    between atoms: O_9  and  C_10
REMARK    5  A    between atoms: C_13  and  O_15
REMARK    6  A    between atoms: O_15  and  C_16
REMARK    7  A    between atoms: C_16  and  C_17
REMARK    8  A    between atoms: C_17  and  C_18
REMARK    9  A    between atoms: C_17  and  C_20
REMARK   10  A    between atoms: C_18  and  C_19
REMARK   11  A    between atoms: C_20  and  C_21
REMARK   12  A    between atoms: C_21  and  C_22
REMARK   13  A    between atoms: C_22  and  C_23
REMARK                            x       y       z     vdW  Elec       q    Type
REMARK                         _______ _______ _______ _____ _____    ______ ____
ROOT
ATOM      1  C   UNL     1      -9.977   6.205 130.955  0.00  0.00    +0.000 C 
ATOM      2  O   UNL     1     -10.360   5.060 131.172  0.00  0.00    +0.000 OA
ENDROOT
BRANCH   1   3
ATOM      3  C   UNL     1      -8.551   6.590 131.117  0.00  0.00    +0.000 C 
ATOM      4  C   UNL     1      -7.581   5.877 131.716  0.00  0.00    +0.000 C 
BRANCH   4   5
ATOM      5  C   UNL     1      -6.194   6.362 131.864  0.00  0.00    +0.000 A 
ATOM      6  C   UNL     1      -5.564   7.062 130.825  0.00  0.00    +0.000 A 
ATOM      7  C   UNL     1      -4.211   7.431 130.928  0.00  0.00    +0.000 A 
ATOM      8  C   UNL     1      -3.488   7.175 132.095  0.00  0.00    +0.000 A 
ATOM      9  C   UNL     1      -4.108   6.472 133.125  0.00  0.00    +0.000 A 
ATOM     10  C   UNL     1      -5.442   6.063 133.005  0.00  0.00    +0.000 A 
BRANCH   8  11
ATOM     11  O   UNL     1      -2.207   7.658 132.130  0.00  0.00    +0.000 OA
ATOM     12  C   UNL     1      -1.174   6.737 131.779  0.00  0.00    +0.000 C 
ENDBRANCH   8  11
ENDBRANCH   4   5
ENDBRANCH   1   3
BRANCH   1  13
ATOM     13  O   UNL     1     -10.757   7.230 130.546  0.00  0.00    +0.000 OA
BRANCH  13  14
ATOM     14  C   UNL     1     -12.113   7.244 131.043  0.00  0.00    +0.000 C 
BRANCH  14  15
ATOM     15  C   UNL     1     -13.072   7.802 129.963  0.00  0.00    +0.000 C 
BRANCH  15  16
ATOM     16  C   UNL     1     -12.632   9.192 129.447  0.00  0.00    +0.000 C 
ATOM     17  C   UNL     1     -13.376  10.351 130.075  0.00  0.00    +0.000 C 
ENDBRANCH  15  16
BRANCH  15  18
ATOM     18  C   UNL     1     -13.180   6.811 128.782  0.00  0.00    +0.000 C 
BRANCH  18  19
ATOM     19  C   UNL     1     -13.383   7.519 127.439  0.00  0.00    +0.000 C 
BRANCH  19  20
ATOM     20  C   UNL     1     -12.416   7.016 126.379  0.00  0.00    +0.000 C 
ATOM     21  C   UNL     1     -11.049   7.650 126.579  0.00  0.00    +0.000 C 
ENDBRANCH  19  20
ENDBRANCH  18  19
ENDBRANCH  15  18
ENDBRANCH  14  15
ENDBRANCH  13  14
ENDBRANCH   1  13
TORSDOF 10
ENDMDL
MODEL 7
REMARK VINA RESULT:      -6.2      4.036      8.119
REMARK  Name = Octinoxate
REMARK  13 active torsions:
REMARK  status: ('A' for Active; 'I' for Inactive)
REMARK    1  A    between atoms: C_2  and  C_13
REMARK    2  A    between atoms: C_3  and  C_5
REMARK    3  A    between atoms: C_8  and  O_9
REMARK    4  A    between atoms: O_9  and  C_10
REMARK    5  A    between atoms: C_13  and  O_15
REMARK    6  A    between atoms: O_15  and  C_16
REMARK    7  A    between atoms: C_16  and  C_17
REMARK    8  A    between atoms: C_17  and  C_18
REMARK    9  A    between atoms: C_17  and  C_20
REMARK   10  A    between atoms: C_18  and  C_19
REMARK   11  A    between atoms: C_20  and  C_21
REMARK   12  A    between atoms: C_21  and  C_22
REMARK   13  A    between atoms: C_22  and  C_23
REMARK                            x       y       z     vdW  Elec       q    Type
REMARK                         _______ _______ _______ _____ _____    ______ ____
ROOT
ATOM      1  C   UNL     1      -8.257   0.869 126.662  0.00  0.00    +0.000 C 
ATOM      2  O   UNL     1      -8.892   1.822 127.105  0.00  0.00    +0.000 OA
ENDROOT
BRANCH   1   3
ATOM      3  C   UNL     1      -7.745  -0.202 127.554  0.00  0.00    +0.000 C 
ATOM      4  C   UNL     1      -6.730  -1.049 127.305  0.00  0.00    +0.000 C 
BRANCH   4   5
ATOM      5  C   UNL     1      -6.317  -2.114 128.240  0.00  0.00    +0.000 A 
ATOM      6  C   UNL     1      -7.258  -2.761 129.053  0.00  0.00    +0.000 A 
ATOM      7  C   UNL     1      -6.849  -3.700 130.016  0.00  0.00    +0.000 A 
ATOM      8  C   UNL     1      -5.505  -4.063 130.132  0.00  0.00    +0.000 A 
ATOM      9  C   UNL     1      -4.566  -3.416 129.333  0.00  0.00    +0.000 A 
ATOM     10  C   UNL     1      -4.968  -2.447 128.405  0.00  0.00    +0.000 A 
BRANCH   8  11
ATOM     11  O   UNL     1      -5.223  -5.054 131.035  0.00  0.00    +0.000 OA
ATOM     12  C   UNL     1      -5.538  -4.775 132.399  0.00  0.00    +0.000 C 
ENDBRANCH   8  11
ENDBRANCH   4   5
ENDBRANCH   1   3
BRANCH   1  13
ATOM     13  O   UNL     1      -7.957   0.662 125.361  0.00  0.00    +0.000 OA
BRANCH  13  14
ATOM     14  C   UNL     1      -8.897  -0.129 124.602  0.00  0.00    +0.000 C 
BRANCH  14  15
ATOM     15  C   UNL     1      -8.186  -1.362 123.990  0.00  0.00    +0.000 C 
BRANCH  15  16
ATOM     16  C   UNL     1      -9.078  -2.110 122.972  0.00  0.00    +0.000 C 
ATOM     17  C   UNL     1      -9.586  -3.449 123.459  0.00  0.00    +0.000 C 
ENDBRANCH  15  16
BRANCH  15  18
ATOM     18  C   UNL     1      -6.863  -0.934 123.317  0.00  0.00    +0.000 C 
BRANCH  18  19
ATOM     19  C   UNL     1      -5.969  -2.128 122.967  0.00  0.00    +0.000 C 
BRANCH  19  20
ATOM     20  C   UNL     1      -5.411  -2.805 124.209  0.00  0.00    +0.000 C 
ATOM     21  C   UNL     1      -4.693  -4.088 123.825  0.00  0.00    +0.000 C 
ENDBRANCH  19  20
ENDBRANCH  18  19
ENDBRANCH  15  18
ENDBRANCH  14  15
ENDBRANCH  13  14
ENDBRANCH   1  13
TORSDOF 10
ENDMDL
MODEL 8
REMARK VINA RESULT:      -6.1      3.111      4.621
REMARK  Name = Octinoxate
REMARK  13 active torsions:
REMARK  status: ('A' for Active; 'I' for Inactive)
REMARK    1  A    between atoms: C_2  and  C_13
REMARK    2  A    between atoms: C_3  and  C_5
REMARK    3  A    between atoms: C_8  and  O_9
REMARK    4  A    between atoms: O_9  and  C_10
REMARK    5  A    between atoms: C_13  and  O_15
REMARK    6  A    between atoms: O_15  and  C_16
REMARK    7  A    between atoms: C_16  and  C_17
REMARK    8  A    between atoms: C_17  and  C_18
REMARK    9  A    between atoms: C_17  and  C_20
REMARK   10  A    between atoms: C_18  and  C_19
REMARK   11  A    between atoms: C_20  and  C_21
REMARK   12  A    between atoms: C_21  and  C_22
REMARK   13  A    between atoms: C_22  and  C_23
REMARK                            x       y       z     vdW  Elec       q    Type
REMARK                         _______ _______ _______ _____ _____    ______ ____
ROOT
ATOM      1  C   UNL     1      -8.911  -0.839 123.006  0.00  0.00    +0.000 C 
ATOM      2  O   UNL     1     -10.063  -0.690 122.609  0.00  0.00    +0.000 OA
ENDROOT
BRANCH   1   3
ATOM      3  C   UNL     1      -8.196   0.241 123.733  0.00  0.00    +0.000 C 
ATOM      4  C   UNL     1      -8.011   1.509 123.325  0.00  0.00    +0.000 C 
BRANCH   4   5
ATOM      5  C   UNL     1      -7.248   2.506 124.102  0.00  0.00    +0.000 A 
ATOM      6  C   UNL     1      -7.331   2.542 125.501  0.00  0.00    +0.000 A 
ATOM      7  C   UNL     1      -6.686   3.556 126.231  0.00  0.00    +0.000 A 
ATOM      8  C   UNL     1      -5.890   4.504 125.585  0.00  0.00    +0.000 A 
ATOM      9  C   UNL     1      -5.813   4.478 124.195  0.00  0.00    +0.000 A 
ATOM     10  C   UNL     1      -6.492   3.495 123.463  0.00  0.00    +0.000 A 
BRANCH   8  11
ATOM     11  O   UNL     1      -5.231   5.391 126.394  0.00  0.00    +0.000 OA
ATOM     12  C   UNL     1      -4.732   4.873 127.627  0.00  0.00    +0.000 C 
ENDBRANCH   8  11
ENDBRANCH   4   5
ENDBRANCH   1   3
BRANCH   1  13
ATOM     13  O   UNL     1      -8.168  -1.958 122.858  0.00  0.00    +0.000 OA
BRANCH  13  14
ATOM     14  C   UNL     1      -6.734  -1.788 122.903  0.00  0.00    +0.000 C 
BRANCH  14  15
ATOM     15  C   UNL     1      -6.096  -2.877 123.801  0.00  0.00    +0.000 C 
BRANCH  15  16
ATOM     16  C   UNL     1      -4.658  -3.234 123.359  0.00  0.00    +0.000 C 
ATOM     17  C   UNL     1      -4.279  -4.681 123.590  0.00  0.00    +0.000 C 
ENDBRANCH  15  16
BRANCH  15  18
ATOM     18  C   UNL     1      -6.096  -2.419 125.277  0.00  0.00    +0.000 C 
BRANCH  18  19
ATOM     19  C   UNL     1      -5.410  -1.063 125.471  0.00  0.00    +0.000 C 
BRANCH  19  20
ATOM     20  C   UNL     1      -5.615  -0.517 126.875  0.00  0.00    +0.000 C 
ATOM     21  C   UNL     1      -7.067  -0.685 127.292  0.00  0.00    +0.000 C 
ENDBRANCH  19  20
ENDBRANCH  18  19
ENDBRANCH  15  18
ENDBRANCH  14  15
ENDBRANCH  13  14
ENDBRANCH   1  13
TORSDOF 10
ENDMDL
MODEL 9
REMARK VINA RESULT:      -6.1      3.359      4.495
REMARK  Name = Octinoxate
REMARK  13 active torsions:
REMARK  status: ('A' for Active; 'I' for Inactive)
REMARK    1  A    between atoms: C_2  and  C_13
REMARK    2  A    between atoms: C_3  and  C_5
REMARK    3  A    between atoms: C_8  and  O_9
REMARK    4  A    between atoms: O_9  and  C_10
REMARK    5  A    between atoms: C_13  and  O_15
REMARK    6  A    between atoms: O_15  and  C_16
REMARK    7  A    between atoms: C_16  and  C_17
REMARK    8  A    between atoms: C_17  and  C_18
REMARK    9  A    between atoms: C_17  and  C_20
REMARK   10  A    between atoms: C_18  and  C_19
REMARK   11  A    between atoms: C_20  and  C_21
REMARK   12  A    between atoms: C_21  and  C_22
REMARK   13  A    between atoms: C_22  and  C_23
REMARK                            x       y       z     vdW  Elec       q    Type
REMARK                         _______ _______ _______ _____ _____    ______ ____
ROOT
ATOM      1  C   UNL     1      -9.317  -0.321 123.815  0.00  0.00    +0.000 C 
ATOM      2  O   UNL     1     -10.092   0.045 122.936  0.00  0.00    +0.000 OA
ENDROOT
BRANCH   1   3
ATOM      3  C   UNL     1      -8.383   0.629 124.470  0.00  0.00    +0.000 C 
ATOM      4  C   UNL     1      -7.135   0.943 124.075  0.00  0.00    +0.000 C 
BRANCH   4   5
ATOM      5  C   UNL     1      -6.262   1.875 124.817  0.00  0.00    +0.000 A 
ATOM      6  C   UNL     1      -6.043   3.178 124.351  0.00  0.00    +0.000 A 
ATOM      7  C   UNL     1      -5.131   4.028 125.001  0.00  0.00    +0.000 A 
ATOM      8  C   UNL     1      -4.481   3.618 126.168  0.00  0.00    +0.000 A 
ATOM      9  C   UNL     1      -4.689   2.321 126.628  0.00  0.00    +0.000 A 
ATOM     10  C   UNL     1      -5.563   1.458 125.955  0.00  0.00    +0.000 A 
BRANCH   8  11
ATOM     11  O   UNL     1      -3.686   4.553 126.776  0.00  0.00    +0.000 OA
ATOM     12  C   UNL     1      -2.413   4.098 127.236  0.00  0.00    +0.000 C 
ENDBRANCH   8  11
ENDBRANCH   4   5
ENDBRANCH   1   3
BRANCH   1  13
ATOM     13  O   UNL     1      -9.216  -1.579 124.299  0.00  0.00    +0.000 OA
BRANCH  13  14
ATOM     14  C   UNL     1      -9.215  -1.717 125.737  0.00  0.00    +0.000 C 
BRANCH  14  15
ATOM     15  C   UNL     1      -7.806  -2.127 126.233  0.00  0.00    +0.000 C 
BRANCH  15  16
ATOM     16  C   UNL     1      -7.858  -2.906 127.568  0.00  0.00    +0.000 C 
ATOM     17  C   UNL     1      -8.950  -3.951 127.635  0.00  0.00    +0.000 C 
ENDBRANCH  15  16
BRANCH  15  18
ATOM     18  C   UNL     1      -7.086  -2.971 125.158  0.00  0.00    +0.000 C 
BRANCH  18  19
ATOM     19  C   UNL     1      -5.725  -2.388 124.769  0.00  0.00    +0.000 C 
BRANCH  19  20
ATOM     20  C   UNL     1      -5.179  -3.016 123.495  0.00  0.00    +0.000 C 
ATOM     21  C   UNL     1      -4.573  -4.376 123.803  0.00  0.00    +0.000 C 
ENDBRANCH  19  20
ENDBRANCH  18  19
ENDBRANCH  15  18
ENDBRANCH  14  15
ENDBRANCH  13  14
ENDBRANCH   1  13
TORSDOF 10
ENDMDL
