MODEL 1
REMARK VINA RESULT:      -7.0      0.000      0.000
REMARK  Name = Octocrylene
REMARK  13 active torsions:
REMARK  status: ('A' for Active; 'I' for Inactive)
REMARK    1  A    between atoms: C_1  and  C_2
REMARK    2  A    between atoms: C_2  and  C_3
REMARK    3  A    between atoms: C_3  and  C_4
REMARK    4  A    between atoms: C_4  and  C_5
REMARK    5  A    between atoms: C_5  and  C_6
REMARK    6  A    between atoms: C_5  and  C_8
REMARK    7  A    between atoms: C_6  and  C_7
REMARK    8  A    between atoms: C_8  and  O_9
REMARK    9  A    between atoms: O_9  and  C_10
REMARK   10  A    between atoms: C_10  and  C_12
REMARK   11  A    between atoms: C_12  and  C_13
REMARK   12  A    between atoms: C_15  and  C_16
REMARK   13  A    between atoms: C_15  and  C_22
REMARK                            x       y       z     vdW  Elec       q    Type
REMARK                         _______ _______ _______ _____ _____    ______ ____
ROOT
ATOM      1  C   UNL     1      -6.366   2.320 124.749  0.00  0.00    +0.000 C 
ATOM      2  C   UNL     1      -5.753   2.009 125.927  0.00  0.00    +0.000 C 
ENDROOT
BRANCH   2   3
ATOM      3  C   UNL     1      -6.103   0.777 126.706  0.00  0.00    +0.000 A 
ATOM      4  C   UNL     1      -7.084   0.822 127.708  0.00  0.00    +0.000 A 
ATOM      5  C   UNL     1      -7.328  -0.300 128.505  0.00  0.00    +0.000 A 
ATOM      6  C   UNL     1      -6.698  -1.510 128.223  0.00  0.00    +0.000 A 
ATOM      7  C   UNL     1      -5.751  -1.579 127.210  0.00  0.00    +0.000 A 
ATOM      8  C   UNL     1      -5.405  -0.426 126.512  0.00  0.00    +0.000 A 
ENDBRANCH   2   3
BRANCH   2   9
ATOM      9  C   UNL     1      -4.692   2.927 126.460  0.00  0.00    +0.000 A 
ATOM     10  C   UNL     1      -3.338   2.588 126.327  0.00  0.00    +0.000 A 
ATOM     11  C   UNL     1      -2.352   3.378 126.922  0.00  0.00    +0.000 A 
ATOM     12  C   UNL     1      -2.698   4.567 127.560  0.00  0.00    +0.000 A 
ATOM     13  C   UNL     1      -4.034   4.929 127.681  0.00  0.00    +0.000 A 
ATOM     14  C   UNL     1      -5.021   4.087 127.181  0.00  0.00    +0.000 A 
ENDBRANCH   2   9
BRANCH   1  15
ATOM     15  C   UNL     1      -7.561   1.526 124.214  0.00  0.00    +0.000 C 
ATOM     16  O   UNL     1      -8.723   1.786 124.457  0.00  0.00    +0.000 OA
BRANCH  15  17
ATOM     17  O   UNL     1      -7.244   0.459 123.414  0.00  0.00    +0.000 OA
BRANCH  17  18
ATOM     18  C   UNL     1      -8.351  -0.489 123.287  0.00  0.00    +0.000 C 
BRANCH  18  19
ATOM     19  C   UNL     1      -7.843  -1.920 122.997  0.00  0.00    +0.000 C 
BRANCH  19  20
ATOM     20  C   UNL     1      -8.334  -2.850 124.135  0.00  0.00    +0.000 C 
ATOM     21  C   UNL     1      -8.973  -2.179 125.342  0.00  0.00    +0.000 C 
ENDBRANCH  19  20
BRANCH  19  22
ATOM     22  C   UNL     1      -6.295  -1.910 122.822  0.00  0.00    +0.000 C 
BRANCH  22  23
ATOM     23  C   UNL     1      -5.578  -2.817 123.815  0.00  0.00    +0.000 C 
BRANCH  23  25
ATOM     24  C   UNL     1      -4.387  -4.957 123.561  0.00  0.00    +0.000 C 
ATOM     25  C   UNL     1      -4.285  -3.446 123.348  0.00  0.00    +0.000 C 
ENDBRANCH  23  25
ENDBRANCH  22  23
ENDBRANCH  19  22
ENDBRANCH  18  19
ENDBRANCH  17  18
ENDBRANCH  15  17
ENDBRANCH   1  15
BRANCH   1  26
ATOM     26  C   UNL     1      -5.937   3.552 123.969  0.00  0.00    +0.000 C 
ATOM     27  N   UNL     1      -5.582   4.574 123.323  0.00  0.00    +0.000 NA
ENDBRANCH   1  26
TORSDOF 11
ENDMDL
MODEL 2
REMARK VINA RESULT:      -6.9      2.972      4.935
REMARK  Name = Octocrylene
REMARK  13 active torsions:
REMARK  status: ('A' for Active; 'I' for Inactive)
REMARK    1  A    between atoms: C_1  and  C_2
REMARK    2  A    between atoms: C_2  and  C_3
REMARK    3  A    between atoms: C_3  and  C_4
REMARK    4  A    between atoms: C_4  and  C_5
REMARK    5  A    between atoms: C_5  and  C_6
REMARK    6  A    between atoms: C_5  and  C_8
REMARK    7  A    between atoms: C_6  and  C_7
REMARK    8  A    between atoms: C_8  and  O_9
REMARK    9  A    between atoms: O_9  and  C_10
REMARK   10  A    between atoms: C_10  and  C_12
REMARK   11  A    between atoms: C_12  and  C_13
REMARK   12  A    between atoms: C_15  and  C_16
REMARK   13  A    between atoms: C_15  and  C_22
REMARK                            x       y       z     vdW  Elec       q    Type
REMARK                         _______ _______ _______ _____ _____    ______ ____
ROOT
ATOM      1  C   UNL     1      -8.112   2.277 124.924  0.00  0.00    +0.000 C 
ATOM      2  C   UNL     1      -7.919   1.729 123.691  0.00  0.00    +0.000 C 
ENDROOT
BRANCH   2   3
ATOM      3  C   UNL     1      -7.972   0.248 123.462  0.00  0.00    +0.000 A 
ATOM      4  C   UNL     1      -6.793  -0.485 123.266  0.00  0.00    +0.000 A 
ATOM      5  C   UNL     1      -6.853  -1.843 122.942  0.00  0.00    +0.000 A 
ATOM      6  C   UNL     1      -8.076  -2.511 122.946  0.00  0.00    +0.000 A 
ATOM      7  C   UNL     1      -9.250  -1.805 123.174  0.00  0.00    +0.000 A 
ATOM      8  C   UNL     1      -9.199  -0.426 123.354  0.00  0.00    +0.000 A 
ENDBRANCH   2   3
BRANCH   2   9
ATOM      9  C   UNL     1      -7.649   2.634 122.526  0.00  0.00    +0.000 A 
ATOM     10  C   UNL     1      -8.710   3.097 121.734  0.00  0.00    +0.000 A 
ATOM     11  C   UNL     1      -8.456   3.842 120.581  0.00  0.00    +0.000 A 
ATOM     12  C   UNL     1      -7.154   4.225 120.267  0.00  0.00    +0.000 A 
ATOM     13  C   UNL     1      -6.094   3.795 121.054  0.00  0.00    +0.000 A 
ATOM     14  C   UNL     1      -6.339   2.964 122.141  0.00  0.00    +0.000 A 
ENDBRANCH   2   9
BRANCH   1  15
ATOM     15  C   UNL     1      -8.238   1.424 126.189  0.00  0.00    +0.000 C 
ATOM     16  O   UNL     1      -9.278   1.233 126.788  0.00  0.00    +0.000 OA
BRANCH  15  17
ATOM     17  O   UNL     1      -7.071   0.862 126.635  0.00  0.00    +0.000 OA
BRANCH  17  18
ATOM     18  C   UNL     1      -7.302  -0.350 127.423  0.00  0.00    +0.000 C 
BRANCH  18  19
ATOM     19  C   UNL     1      -7.235  -1.620 126.544  0.00  0.00    +0.000 C 
BRANCH  19  20
ATOM     20  C   UNL     1      -8.532  -2.437 126.771  0.00  0.00    +0.000 C 
ATOM     21  C   UNL     1      -8.519  -3.440 127.915  0.00  0.00    +0.000 C 
ENDBRANCH  19  20
BRANCH  19  22
ATOM     22  C   UNL     1      -5.932  -2.415 126.857  0.00  0.00    +0.000 C 
BRANCH  22  23
ATOM     23  C   UNL     1      -5.209  -1.906 128.098  0.00  0.00    +0.000 C 
BRANCH  23  25
ATOM     24  C   UNL     1      -3.624  -3.516 129.076  0.00  0.00    +0.000 C 
ATOM     25  C   UNL     1      -5.015  -2.898 129.223  0.00  0.00    +0.000 C 
ENDBRANCH  23  25
ENDBRANCH  22  23
ENDBRANCH  19  22
ENDBRANCH  18  19
ENDBRANCH  17  18
ENDBRANCH  15  17
ENDBRANCH   1  15
BRANCH   1  26
ATOM     26  C   UNL     1      -8.103   3.788 125.096  0.00  0.00    +0.000 C 
ATOM     27  N   UNL     1      -8.095   5.040 125.239  0.00  0.00    +0.000 NA
ENDBRANCH   1  26
TORSDOF 11
ENDMDL
MODEL 3
REMARK VINA RESULT:      -6.8      2.600      5.872
REMARK  Name = Octocrylene
REMARK  13 active torsions:
REMARK  status: ('A' for Active; 'I' for Inactive)
REMARK    1  A    between atoms: C_1  and  C_2
REMARK    2  A    between atoms: C_2  and  C_3
REMARK    3  A    between atoms: C_3  and  C_4
REMARK    4  A    between atoms: C_4  and  C_5
REMARK    5  A    between atoms: C_5  and  C_6
REMARK    6  A    between atoms: C_5  and  C_8
REMARK    7  A    between atoms: C_6  and  C_7
REMARK    8  A    between atoms: C_8  and  O_9
REMARK    9  A    between atoms: O_9  and  C_10
REMARK   10  A    between atoms: C_10  and  C_12
REMARK   11  A    between atoms: C_12  and  C_13
REMARK   12  A    between atoms: C_15  and  C_16
REMARK   13  A    between atoms: C_15  and  C_22
REMARK                            x       y       z     vdW  Elec       q    Type
REMARK                         _______ _______ _______ _____ _____    ______ ____
ROOT
ATOM      1  C   UNL     1      -8.253   0.042 127.161  0.00  0.00    +0.000 C 
ATOM      2  C   UNL     1      -7.858  -1.215 126.808  0.00  0.00    +0.000 C 
ENDROOT
BRANCH   2   3
ATOM      3  C   UNL     1      -8.147  -1.787 125.452  0.00  0.00    +0.000 A 
ATOM      4  C   UNL     1      -9.203  -2.692 125.271  0.00  0.00    +0.000 A 
ATOM      5  C   UNL     1      -9.398  -3.308 124.032  0.00  0.00    +0.000 A 
ATOM      6  C   UNL     1      -8.632  -2.927 122.932  0.00  0.00    +0.000 A 
ATOM      7  C   UNL     1      -7.606  -2.005 123.088  0.00  0.00    +0.000 A 
ATOM      8  C   UNL     1      -7.321  -1.501 124.353  0.00  0.00    +0.000 A 
ENDBRANCH   2   3
BRANCH   2   9
ATOM      9  C   UNL     1      -7.110  -2.050 127.804  0.00  0.00    +0.000 A 
ATOM     10  C   UNL     1      -7.810  -2.831 128.734  0.00  0.00    +0.000 A 
ATOM     11  C   UNL     1      -7.123  -3.518 129.737  0.00  0.00    +0.000 A 
ATOM     12  C   UNL     1      -5.730  -3.520 129.756  0.00  0.00    +0.000 A 
ATOM     13  C   UNL     1      -5.021  -2.770 128.828  0.00  0.00    +0.000 A 
ATOM     14  C   UNL     1      -5.709  -2.001 127.896  0.00  0.00    +0.000 A 
ENDBRANCH   2   9
BRANCH   1  15
ATOM     15  C   UNL     1      -9.151   0.900 126.266  0.00  0.00    +0.000 C 
ATOM     16  O   UNL     1     -10.144   0.492 125.695  0.00  0.00    +0.000 OA
BRANCH  15  17
ATOM     17  O   UNL     1      -8.765   2.208 126.131  0.00  0.00    +0.000 OA
BRANCH  17  18
ATOM     18  C   UNL     1      -8.440   2.552 124.746  0.00  0.00    +0.000 C 
BRANCH  18  19
ATOM     19  C   UNL     1      -7.085   1.947 124.313  0.00  0.00    +0.000 C 
BRANCH  19  20
ATOM     20  C   UNL     1      -5.960   2.660 125.104  0.00  0.00    +0.000 C 
ATOM     21  C   UNL     1      -5.193   1.819 126.114  0.00  0.00    +0.000 C 
ENDBRANCH  19  20
BRANCH  19  22
ATOM     22  C   UNL     1      -6.925   2.051 122.767  0.00  0.00    +0.000 C 
BRANCH  22  23
ATOM     23  C   UNL     1      -6.703   3.480 122.287  0.00  0.00    +0.000 C 
BRANCH  23  25
ATOM     24  C   UNL     1      -4.602   4.676 121.818  0.00  0.00    +0.000 C 
ATOM     25  C   UNL     1      -5.621   3.687 121.251  0.00  0.00    +0.000 C 
ENDBRANCH  23  25
ENDBRANCH  22  23
ENDBRANCH  19  22
ENDBRANCH  18  19
ENDBRANCH  17  18
ENDBRANCH  15  17
ENDBRANCH   1  15
BRANCH   1  26
ATOM     26  C   UNL     1      -7.889   0.598 128.528  0.00  0.00    +0.000 C 
ATOM     27  N   UNL     1      -7.587   1.059 129.661  0.00  0.00    +0.000 NA
ENDBRANCH   1  26
TORSDOF 11
ENDMDL
MODEL 4
REMARK VINA RESULT:      -6.5      2.493      5.783
REMARK  Name = Octocrylene
REMARK  13 active torsions:
REMARK  status: ('A' for Active; 'I' for Inactive)
REMARK    1  A    between atoms: C_1  and  C_2
REMARK    2  A    between atoms: C_2  and  C_3
REMARK    3  A    between atoms: C_3  and  C_4
REMARK    4  A    between atoms: C_4  and  C_5
REMARK    5  A    between atoms: C_5  and  C_6
REMARK    6  A    between atoms: C_5  and  C_8
REMARK    7  A    between atoms: C_6  and  C_7
REMARK    8  A    between atoms: C_8  and  O_9
REMARK    9  A    between atoms: O_9  and  C_10
REMARK   10  A    between atoms: C_10  and  C_12
REMARK   11  A    between atoms: C_12  and  C_13
REMARK   12  A    between atoms: C_15  and  C_16
REMARK   13  A    between atoms: C_15  and  C_22
REMARK                            x       y       z     vdW  Elec       q    Type
REMARK                         _______ _______ _______ _____ _____    ______ ____
ROOT
ATOM      1  C   UNL     1      -8.368   0.133 127.077  0.00  0.00    +0.000 C 
ATOM      2  C   UNL     1      -7.944  -1.131 126.791  0.00  0.00    +0.000 C 
ENDROOT
BRANCH   2   3
ATOM      3  C   UNL     1      -8.171  -1.762 125.450  0.00  0.00    +0.000 A 
ATOM      4  C   UNL     1      -7.442  -1.334 124.330  0.00  0.00    +0.000 A 
ATOM      5  C   UNL     1      -7.735  -1.845 123.063  0.00  0.00    +0.000 A 
ATOM      6  C   UNL     1      -8.657  -2.880 122.920  0.00  0.00    +0.000 A 
ATOM      7  C   UNL     1      -9.361  -3.339 124.026  0.00  0.00    +0.000 A 
ATOM      8  C   UNL     1      -9.171  -2.729 125.263  0.00  0.00    +0.000 A 
ENDBRANCH   2   3
BRANCH   2   9
ATOM      9  C   UNL     1      -7.225  -1.915 127.849  0.00  0.00    +0.000 A 
ATOM     10  C   UNL     1      -5.823  -1.943 127.872  0.00  0.00    +0.000 A 
ATOM     11  C   UNL     1      -5.150  -2.763 128.780  0.00  0.00    +0.000 A 
ATOM     12  C   UNL     1      -5.862  -3.475 129.742  0.00  0.00    +0.000 A 
ATOM     13  C   UNL     1      -7.250  -3.439 129.748  0.00  0.00    +0.000 A 
ATOM     14  C   UNL     1      -7.922  -2.707 128.776  0.00  0.00    +0.000 A 
ENDBRANCH   2   9
BRANCH   1  15
ATOM     15  C   UNL     1      -9.241   0.941 126.114  0.00  0.00    +0.000 C 
ATOM     16  O   UNL     1     -10.281   0.541 125.628  0.00  0.00    +0.000 OA
BRANCH  15  17
ATOM     17  O   UNL     1      -8.773   2.193 125.809  0.00  0.00    +0.000 OA
BRANCH  17  18
ATOM     18  C   UNL     1      -8.867   2.489 124.379  0.00  0.00    +0.000 C 
BRANCH  18  19
ATOM     19  C   UNL     1      -7.671   3.339 123.894  0.00  0.00    +0.000 C 
BRANCH  19  20
ATOM     20  C   UNL     1      -6.783   2.453 122.983  0.00  0.00    +0.000 C 
ATOM     21  C   UNL     1      -6.238   3.101 121.719  0.00  0.00    +0.000 C 
ENDBRANCH  19  20
BRANCH  19  22
ATOM     22  C   UNL     1      -6.912   3.936 125.117  0.00  0.00    +0.000 C 
BRANCH  22  23
ATOM     23  C   UNL     1      -5.500   3.384 125.268  0.00  0.00    +0.000 C 
BRANCH  23  25
ATOM     24  C   UNL     1      -5.029   1.105 126.074  0.00  0.00    +0.000 C 
ATOM     25  C   UNL     1      -5.223   2.559 126.506  0.00  0.00    +0.000 C 
ENDBRANCH  23  25
ENDBRANCH  22  23
ENDBRANCH  19  22
ENDBRANCH  18  19
ENDBRANCH  17  18
ENDBRANCH  15  17
ENDBRANCH   1  15
BRANCH   1  26
ATOM     26  C   UNL     1      -8.066   0.749 128.434  0.00  0.00    +0.000 C 
ATOM     27  N   UNL     1      -7.817   1.259 129.559  0.00  0.00    +0.000 NA
ENDBRANCH   1  26
TORSDOF 11
ENDMDL
MODEL 5
REMARK VINA RESULT:      -6.5      2.333      5.785
REMARK  Name = Octocrylene
REMARK  13 active torsions:
REMARK  status: ('A' for Active; 'I' for Inactive)
REMARK    1  A    between atoms: C_1  and  C_2
REMARK    2  A    between atoms: C_2  and  C_3
REMARK    3  A    between atoms: C_3  and  C_4
REMARK    4  A    between atoms: C_4  and  C_5
REMARK    5  A    between atoms: C_5  and  C_6
REMARK    6  A    between atoms: C_5  and  C_8
REMARK    7  A    between atoms: C_6  and  C_7
REMARK    8  A    between atoms: C_8  and  O_9
REMARK    9  A    between atoms: O_9  and  C_10
REMARK   10  A    between atoms: C_10  and  C_12
REMARK   11  A    between atoms: C_12  and  C_13
REMARK   12  A    between atoms: C_15  and  C_16
REMARK   13  A    between atoms: C_15  and  C_22
REMARK                            x       y       z     vdW  Elec       q    Type
REMARK                         _______ _______ _______ _____ _____    ______ ____
ROOT
ATOM      1  C   UNL     1      -8.074   0.598 125.858  0.00  0.00    +0.000 C 
ATOM      2  C   UNL     1      -6.796   0.588 125.381  0.00  0.00    +0.000 C 
ENDROOT
BRANCH   2   3
ATOM      3  C   UNL     1      -5.850   1.727 125.618  0.00  0.00    +0.000 A 
ATOM      4  C   UNL     1      -5.873   2.857 124.788  0.00  0.00    +0.000 A 
ATOM      5  C   UNL     1      -4.917   3.865 124.943  0.00  0.00    +0.000 A 
ATOM      6  C   UNL     1      -4.019   3.821 126.008  0.00  0.00    +0.000 A 
ATOM      7  C   UNL     1      -4.008   2.724 126.860  0.00  0.00    +0.000 A 
ATOM      8  C   UNL     1      -4.865   1.656 126.617  0.00  0.00    +0.000 A 
ENDBRANCH   2   3
BRANCH   2   9
ATOM      9  C   UNL     1      -6.321  -0.599 124.597  0.00  0.00    +0.000 A 
ATOM     10  C   UNL     1      -6.646  -0.721 123.239  0.00  0.00    +0.000 A 
ATOM     11  C   UNL     1      -6.307  -1.878 122.534  0.00  0.00    +0.000 A 
ATOM     12  C   UNL     1      -5.550  -2.874 123.146  0.00  0.00    +0.000 A 
ATOM     13  C   UNL     1      -5.200  -2.758 124.485  0.00  0.00    +0.000 A 
ATOM     14  C   UNL     1      -5.629  -1.655 125.214  0.00  0.00    +0.000 A 
ENDBRANCH   2   9
BRANCH   1  15
ATOM     15  C   UNL     1      -8.687   1.829 126.531  0.00  0.00    +0.000 C 
ATOM     16  O   UNL     1      -8.852   2.901 125.982  0.00  0.00    +0.000 OA
BRANCH  15  17
ATOM     17  O   UNL     1      -9.055   1.659 127.840  0.00  0.00    +0.000 OA
BRANCH  17  18
ATOM     18  C   UNL     1      -7.902   1.495 128.726  0.00  0.00    +0.000 C 
BRANCH  18  19
ATOM     19  C   UNL     1      -8.000   0.191 129.551  0.00  0.00    +0.000 C 
BRANCH  19  20
ATOM     20  C   UNL     1      -8.131   0.572 131.047  0.00  0.00    +0.000 C 
ATOM     21  C   UNL     1      -8.229  -0.576 132.040  0.00  0.00    +0.000 C 
ENDBRANCH  19  20
BRANCH  19  22
ATOM     22  C   UNL     1      -6.780  -0.727 129.243  0.00  0.00    +0.000 C 
BRANCH  22  23
ATOM     23  C   UNL     1      -7.166  -1.997 128.495  0.00  0.00    +0.000 C 
BRANCH  23  25
ATOM     24  C   UNL     1      -8.771  -3.822 128.102  0.00  0.00    +0.000 C 
ATOM     25  C   UNL     1      -8.178  -2.898 129.167  0.00  0.00    +0.000 C 
ENDBRANCH  23  25
ENDBRANCH  22  23
ENDBRANCH  19  22
ENDBRANCH  18  19
ENDBRANCH  17  18
ENDBRANCH  15  17
ENDBRANCH   1  15
BRANCH   1  26
ATOM     26  C   UNL     1      -8.978  -0.604 125.638  0.00  0.00    +0.000 C 
ATOM     27  N   UNL     1      -9.728  -1.600 125.455  0.00  0.00    +0.000 NA
ENDBRANCH   1  26
TORSDOF 11
ENDMDL
MODEL 6
REMARK VINA RESULT:      -6.4      3.212      5.748
REMARK  Name = Octocrylene
REMARK  13 active torsions:
REMARK  status: ('A' for Active; 'I' for Inactive)
REMARK    1  A    between atoms: C_1  and  C_2
REMARK    2  A    between atoms: C_2  and  C_3
REMARK    3  A    between atoms: C_3  and  C_4
REMARK    4  A    between atoms: C_4  and  C_5
REMARK    5  A    between atoms: C_5  and  C_6
REMARK    6  A    between atoms: C_5  and  C_8
REMARK    7  A    between atoms: C_6  and  C_7
REMARK    8  A    between atoms: C_8  and  O_9
REMARK    9  A    between atoms: O_9  and  C_10
REMARK   10  A    between atoms: C_10  and  C_12
REMARK   11  A    between atoms: C_12  and  C_13
REMARK   12  A    between atoms: C_15  and  C_16
REMARK   13  A    between atoms: C_15  and  C_22
REMARK                            x       y       z     vdW  Elec       q    Type
REMARK                         _______ _______ _______ _____ _____    ______ ____
ROOT
ATOM      1  C   UNL     1      -7.326  -0.092 127.642  0.00  0.00    +0.000 C 
ATOM      2  C   UNL     1      -7.150  -1.411 127.342  0.00  0.00    +0.000 C 
ENDROOT
BRANCH   2   3
ATOM      3  C   UNL     1      -7.654  -2.010 126.063  0.00  0.00    +0.000 A 
ATOM      4  C   UNL     1      -6.826  -2.077 124.934  0.00  0.00    +0.000 A 
ATOM      5  C   UNL     1      -7.335  -2.532 123.714  0.00  0.00    +0.000 A 
ATOM      6  C   UNL     1      -8.626  -3.050 123.642  0.00  0.00    +0.000 A 
ATOM      7  C   UNL     1      -9.446  -3.024 124.763  0.00  0.00    +0.000 A 
ATOM      8  C   UNL     1      -8.986  -2.438 125.938  0.00  0.00    +0.000 A 
ENDBRANCH   2   3
BRANCH   2   9
ATOM      9  C   UNL     1      -6.427  -2.290 128.319  0.00  0.00    +0.000 A 
ATOM     10  C   UNL     1      -5.028  -2.376 128.285  0.00  0.00    +0.000 A 
ATOM     11  C   UNL     1      -4.357  -3.279 129.113  0.00  0.00    +0.000 A 
ATOM     12  C   UNL     1      -5.063  -4.024 130.054  0.00  0.00    +0.000 A 
ATOM     13  C   UNL     1      -6.447  -3.933 130.117  0.00  0.00    +0.000 A 
ATOM     14  C   UNL     1      -7.123  -3.113 129.220  0.00  0.00    +0.000 A 
ENDBRANCH   2   9
BRANCH   1  15
ATOM     15  C   UNL     1      -8.184   0.836 126.779  0.00  0.00    +0.000 C 
ATOM     16  O   UNL     1      -9.205   1.376 127.155  0.00  0.00    +0.000 OA
BRANCH  15  17
ATOM     17  O   UNL     1      -7.725   1.038 125.503  0.00  0.00    +0.000 OA
BRANCH  17  18
ATOM     18  C   UNL     1      -8.160   2.323 124.952  0.00  0.00    +0.000 C 
BRANCH  18  19
ATOM     19  C   UNL     1      -9.156   2.132 123.785  0.00  0.00    +0.000 C 
BRANCH  19  20
ATOM     20  C   UNL     1      -9.423   0.615 123.616  0.00  0.00    +0.000 C 
ATOM     21  C   UNL     1     -10.096   0.178 122.323  0.00  0.00    +0.000 C 
ENDBRANCH  19  20
BRANCH  19  22
ATOM     22  C   UNL     1      -8.605   2.818 122.499  0.00  0.00    +0.000 C 
BRANCH  22  23
ATOM     23  C   UNL     1      -7.125   3.166 122.598  0.00  0.00    +0.000 C 
BRANCH  23  25
ATOM     24  C   UNL     1      -5.137   4.278 121.663  0.00  0.00    +0.000 C 
ATOM     25  C   UNL     1      -6.429   3.540 121.309  0.00  0.00    +0.000 C 
ENDBRANCH  23  25
ENDBRANCH  22  23
ENDBRANCH  19  22
ENDBRANCH  18  19
ENDBRANCH  17  18
ENDBRANCH  15  17
ENDBRANCH   1  15
BRANCH   1  26
ATOM     26  C   UNL     1      -6.749   0.480 128.927  0.00  0.00    +0.000 C 
ATOM     27  N   UNL     1      -6.270   0.954 129.992  0.00  0.00    +0.000 NA
ENDBRANCH   1  26
TORSDOF 11
ENDMDL
MODEL 7
REMARK VINA RESULT:      -6.4      2.322      4.933
REMARK  Name = Octocrylene
REMARK  13 active torsions:
REMARK  status: ('A' for Active; 'I' for Inactive)
REMARK    1  A    between atoms: C_1  and  C_2
REMARK    2  A    between atoms: C_2  and  C_3
REMARK    3  A    between atoms: C_3  and  C_4
REMARK    4  A    between atoms: C_4  and  C_5
REMARK    5  A    between atoms: C_5  and  C_6
REMARK    6  A    between atoms: C_5  and  C_8
REMARK    7  A    between atoms: C_6  and  C_7
REMARK    8  A    between atoms: C_8  and  O_9
REMARK    9  A    between atoms: O_9  and  C_10
REMARK   10  A    between atoms: C_10  and  C_12
REMARK   11  A    between atoms: C_12  and  C_13
REMARK   12  A    between atoms: C_15  and  C_16
REMARK   13  A    between atoms: C_15  and  C_22
REMARK                            x       y       z     vdW  Elec       q    Type
REMARK                         _______ _______ _______ _____ _____    ______ ____
ROOT
ATOM      1  C   UNL     1      -7.897  -0.039 126.202  0.00  0.00    +0.000 C 
ATOM      2  C   UNL     1      -6.758   0.129 125.471  0.00  0.00    +0.000 C 
ENDROOT
BRANCH   2   3
ATOM      3  C   UNL     1      -6.263  -0.918 124.520  0.00  0.00    +0.000 A 
ATOM      4  C   UNL     1      -6.697  -0.932 123.187  0.00  0.00    +0.000 A 
ATOM      5  C   UNL     1      -6.321  -1.973 122.334  0.00  0.00    +0.000 A 
ATOM      6  C   UNL     1      -5.404  -2.932 122.761  0.00  0.00    +0.000 A 
ATOM      7  C   UNL     1      -4.937  -2.910 124.068  0.00  0.00    +0.000 A 
ATOM      8  C   UNL     1      -5.424  -1.957 124.956  0.00  0.00    +0.000 A 
ENDBRANCH   2   3
BRANCH   2   9
ATOM      9  C   UNL     1      -5.978   1.402 125.620  0.00  0.00    +0.000 A 
ATOM     10  C   UNL     1      -6.320   2.528 124.858  0.00  0.00    +0.000 A 
ATOM     11  C   UNL     1      -5.527   3.677 124.905  0.00  0.00    +0.000 A 
ATOM     12  C   UNL     1      -4.455   3.752 125.791  0.00  0.00    +0.000 A 
ATOM     13  C   UNL     1      -4.118   2.653 126.570  0.00  0.00    +0.000 A 
ATOM     14  C   UNL     1      -4.843   1.474 126.443  0.00  0.00    +0.000 A 
ENDBRANCH   2   9
BRANCH   1  15
ATOM     15  C   UNL     1      -8.666  -1.362 126.229  0.00  0.00    +0.000 C 
ATOM     16  O   UNL     1      -9.731  -1.550 125.673  0.00  0.00    +0.000 OA
BRANCH  15  17
ATOM     17  O   UNL     1      -8.072  -2.371 126.942  0.00  0.00    +0.000 OA
BRANCH  17  18
ATOM     18  C   UNL     1      -7.680  -1.945 128.286  0.00  0.00    +0.000 C 
BRANCH  18  19
ATOM     19  C   UNL     1      -6.320  -2.553 128.701  0.00  0.00    +0.000 C 
BRANCH  19  20
ATOM     20  C   UNL     1      -6.455  -3.107 130.142  0.00  0.00    +0.000 C 
ATOM     21  C   UNL     1      -5.902  -4.502 130.393  0.00  0.00    +0.000 C 
ENDBRANCH  19  20
BRANCH  19  22
ATOM     22  C   UNL     1      -5.192  -1.491 128.542  0.00  0.00    +0.000 C 
BRANCH  22  23
ATOM     23  C   UNL     1      -4.694  -0.949 129.877  0.00  0.00    +0.000 C 
BRANCH  23  25
ATOM     24  C   UNL     1      -5.890   1.199 130.021  0.00  0.00    +0.000 C 
ATOM     25  C   UNL     1      -4.507   0.549 129.972  0.00  0.00    +0.000 C 
ENDBRANCH  23  25
ENDBRANCH  22  23
ENDBRANCH  19  22
ENDBRANCH  18  19
ENDBRANCH  17  18
ENDBRANCH  15  17
ENDBRANCH   1  15
BRANCH   1  26
ATOM     26  C   UNL     1      -8.388   1.075 127.113  0.00  0.00    +0.000 C 
ATOM     27  N   UNL     1      -8.795   1.998 127.868  0.00  0.00    +0.000 NA
ENDBRANCH   1  26
TORSDOF 11
ENDMDL
MODEL 8
REMARK VINA RESULT:      -6.3      2.317      5.307
REMARK  Name = Octocrylene
REMARK  13 active torsions:
REMARK  status: ('A' for Active; 'I' for Inactive)
REMARK    1  A    between atoms: C_1  and  C_2
REMARK    2  A    between atoms: C_2  and  C_3
REMARK    3  A    between atoms: C_3  and  C_4
REMARK    4  A    between atoms: C_4  and  C_5
REMARK    5  A    between atoms: C_5  and  C_6
REMARK    6  A    between atoms: C_5  and  C_8
REMARK    7  A    between atoms: C_6  and  C_7
REMARK    8  A    between atoms: C_8  and  O_9
REMARK    9  A    between atoms: O_9  and  C_10
REMARK   10  A    between atoms: C_10  and  C_12
REMARK   11  A    between atoms: C_12  and  C_13
REMARK   12  A    between atoms: C_15  and  C_16
REMARK   13  A    between atoms: C_15  and  C_22
REMARK                            x       y       z     vdW  Elec       q    Type
REMARK                         _______ _______ _______ _____ _____    ______ ____
ROOT
ATOM      1  C   UNL     1      -6.588   2.399 124.569  0.00  0.00    +0.000 C 
ATOM      2  C   UNL     1      -7.071   1.842 123.421  0.00  0.00    +0.000 C 
ENDROOT
BRANCH   2   3
ATOM      3  C   UNL     1      -7.446   0.393 123.337  0.00  0.00    +0.000 A 
ATOM      4  C   UNL     1      -8.752  -0.022 123.636  0.00  0.00    +0.000 A 
ATOM      5  C   UNL     1      -9.069  -1.383 123.665  0.00  0.00    +0.000 A 
ATOM      6  C   UNL     1      -8.128  -2.330 123.266  0.00  0.00    +0.000 A 
ATOM      7  C   UNL     1      -6.841  -1.930 122.933  0.00  0.00    +0.000 A 
ATOM      8  C   UNL     1      -6.487  -0.589 123.044  0.00  0.00    +0.000 A 
ENDBRANCH   2   3
BRANCH   2   9
ATOM      9  C   UNL     1      -7.235   2.706 122.206  0.00  0.00    +0.000 A 
ATOM     10  C   UNL     1      -8.511   3.137 121.816  0.00  0.00    +0.000 A 
ATOM     11  C   UNL     1      -8.683   3.841 120.623  0.00  0.00    +0.000 A 
ATOM     12  C   UNL     1      -7.576   4.217 119.866  0.00  0.00    +0.000 A 
ATOM     13  C   UNL     1      -6.303   3.819 120.250  0.00  0.00    +0.000 A 
ATOM     14  C   UNL     1      -6.144   3.026 121.381  0.00  0.00    +0.000 A 
ENDBRANCH   2   9
BRANCH   1  15
ATOM     15  C   UNL     1      -6.245   1.562 125.804  0.00  0.00    +0.000 C 
ATOM     16  O   UNL     1      -5.186   0.990 125.973  0.00  0.00    +0.000 OA
BRANCH  15  17
ATOM     17  O   UNL     1      -7.233   1.482 126.751  0.00  0.00    +0.000 OA
BRANCH  17  18
ATOM     18  C   UNL     1      -6.713   1.109 128.067  0.00  0.00    +0.000 C 
BRANCH  18  19
ATOM     19  C   UNL     1      -7.422  -0.147 128.622  0.00  0.00    +0.000 C 
BRANCH  19  20
ATOM     20  C   UNL     1      -7.366  -0.092 130.170  0.00  0.00    +0.000 C 
ATOM     21  C   UNL     1      -8.600   0.443 130.882  0.00  0.00    +0.000 C 
ENDBRANCH  19  20
BRANCH  19  22
ATOM     22  C   UNL     1      -6.780  -1.432 128.019  0.00  0.00    +0.000 C 
BRANCH  22  23
ATOM     23  C   UNL     1      -7.592  -2.019 126.871  0.00  0.00    +0.000 C 
BRANCH  23  25
ATOM     24  C   UNL     1      -8.276  -3.630 128.602  0.00  0.00    +0.000 C 
ATOM     25  C   UNL     1      -8.643  -3.043 127.239  0.00  0.00    +0.000 C 
ENDBRANCH  23  25
ENDBRANCH  22  23
ENDBRANCH  19  22
ENDBRANCH  18  19
ENDBRANCH  17  18
ENDBRANCH  15  17
ENDBRANCH   1  15
BRANCH   1  26
ATOM     26  C   UNL     1      -6.273   3.886 124.620  0.00  0.00    +0.000 C 
ATOM     27  N   UNL     1      -6.011   5.118 124.663  0.00  0.00    +0.000 NA
ENDBRANCH   1  26
TORSDOF 11
ENDMDL
MODEL 9
REMARK VINA RESULT:      -6.1      2.726      5.268
REMARK  Name = Octocrylene
REMARK  13 active torsions:
REMARK  status: ('A' for Active; 'I' for Inactive)
REMARK    1  A    between atoms: C_1  and  C_2
REMARK    2  A    between atoms: C_2  and  C_3
REMARK    3  A    between atoms: C_3  and  C_4
REMARK    4  A    between atoms: C_4  and  C_5
REMARK    5  A    between atoms: C_5  and  C_6
REMARK    6  A    between atoms: C_5  and  C_8
REMARK    7  A    between atoms: C_6  and  C_7
REMARK    8  A    between atoms: C_8  and  O_9
REMARK    9  A    between atoms: O_9  and  C_10
REMARK   10  A    between atoms: C_10  and  C_12
REMARK   11  A    between atoms: C_12  and  C_13
REMARK   12  A    between atoms: C_15  and  C_16
REMARK   13  A    between atoms: C_15  and  C_22
REMARK                            x       y       z     vdW  Elec       q    Type
REMARK                         _______ _______ _______ _____ _____    ______ ____
ROOT
ATOM      1  C   UNL     1      -7.994   2.607 125.790  0.00  0.00    +0.000 C 
ATOM      2  C   UNL     1      -7.803   1.830 124.686  0.00  0.00    +0.000 C 
ENDROOT
BRANCH   2   3
ATOM      3  C   UNL     1      -7.731   0.334 124.769  0.00  0.00    +0.000 A 
ATOM      4  C   UNL     1      -6.493  -0.323 124.720  0.00  0.00    +0.000 A 
ATOM      5  C   UNL     1      -6.438  -1.719 124.684  0.00  0.00    +0.000 A 
ATOM      6  C   UNL     1      -7.601  -2.470 124.834  0.00  0.00    +0.000 A 
ATOM      7  C   UNL     1      -8.832  -1.833 124.920  0.00  0.00    +0.000 A 
ATOM      8  C   UNL     1      -8.897  -0.447 124.811  0.00  0.00    +0.000 A 
ENDBRANCH   2   3
BRANCH   2   9
ATOM      9  C   UNL     1      -7.664   2.490 123.346  0.00  0.00    +0.000 A 
ATOM     10  C   UNL     1      -6.408   2.932 122.907  0.00  0.00    +0.000 A 
ATOM     11  C   UNL     1      -6.291   3.651 121.716  0.00  0.00    +0.000 A 
ATOM     12  C   UNL     1      -7.404   3.841 120.900  0.00  0.00    +0.000 A 
ATOM     13  C   UNL     1      -8.651   3.389 121.310  0.00  0.00    +0.000 A 
ATOM     14  C   UNL     1      -8.785   2.767 122.546  0.00  0.00    +0.000 A 
ENDBRANCH   2   9
BRANCH   1  15
ATOM     15  C   UNL     1      -7.991   2.029 127.208  0.00  0.00    +0.000 C 
ATOM     16  O   UNL     1      -8.989   1.841 127.876  0.00  0.00    +0.000 OA
BRANCH  15  17
ATOM     17  O   UNL     1      -6.754   1.723 127.713  0.00  0.00    +0.000 OA
BRANCH  17  18
ATOM     18  C   UNL     1      -6.788   1.469 129.154  0.00  0.00    +0.000 C 
BRANCH  18  19
ATOM     19  C   UNL     1      -6.119   0.122 129.509  0.00  0.00    +0.000 C 
BRANCH  19  20
ATOM     20  C   UNL     1      -4.629   0.391 129.839  0.00  0.00    +0.000 C 
ATOM     21  C   UNL     1      -4.260   1.813 130.234  0.00  0.00    +0.000 C 
ENDBRANCH  19  20
BRANCH  19  22
ATOM     22  C   UNL     1      -6.330  -0.899 128.351  0.00  0.00    +0.000 C 
BRANCH  22  23
ATOM     23  C   UNL     1      -7.651  -1.651 128.455  0.00  0.00    +0.000 C 
BRANCH  23  25
ATOM     24  C   UNL     1      -8.871  -3.763 128.114  0.00  0.00    +0.000 C 
ATOM     25  C   UNL     1      -7.565  -3.152 128.626  0.00  0.00    +0.000 C 
ENDBRANCH  23  25
ENDBRANCH  22  23
ENDBRANCH  19  22
ENDBRANCH  18  19
ENDBRANCH  17  18
ENDBRANCH  15  17
ENDBRANCH   1  15
BRANCH   1  26
ATOM     26  C   UNL     1      -8.115   4.115 125.648  0.00  0.00    +0.000 C 
ATOM     27  N   UNL     1      -8.215   5.366 125.530  0.00  0.00    +0.000 NA
ENDBRANCH   1  26
TORSDOF 11
ENDMDL
