MODEL 1
REMARK VINA RESULT:      -7.2      0.000      0.000
REMARK  Name = Ofloxacin
REMARK  5 active torsions:
REMARK  status: ('A' for Active; 'I' for Inactive)
REMARK    1  A    between atoms: C_1  and  C_2
REMARK    2  A    between atoms: C_9  and  C_10
REMARK    3  A    between atoms: C_10  and  O_11
REMARK    4  A    between atoms: C_19  and  N_20
REMARK    5  A    between atoms: N_23  and  C_24
REMARK                            x       y       z     vdW  Elec       q    Type
REMARK                         _______ _______ _______ _____ _____    ______ ____
ROOT
ATOM      1  C   UNL     1      -6.135   3.071 121.959  0.00  0.00    +0.000 C 
ATOM      2  C   UNL     1      -6.751   3.807 123.159  0.00  0.00    +0.000 C 
ATOM      3  C   UNL     1      -5.592   4.423 123.959  0.00  0.00    +0.000 C 
ATOM      4  O   UNL     1      -5.470   4.187 125.348  0.00  0.00    +0.000 OA
ATOM      5  C   UNL     1      -6.309   3.287 125.936  0.00  0.00    +0.000 A 
ATOM      6  C   UNL     1      -7.371   2.672 125.253  0.00  0.00    +0.000 A 
ATOM      7  N   UNL     1      -7.648   2.903 123.894  0.00  0.00    +0.000 N 
ATOM      8  C   UNL     1      -8.751   2.292 123.304  0.00  0.00    +0.000 A 
ATOM      9  C   UNL     1      -9.603   1.438 123.894  0.00  0.00    +0.000 A 
ATOM     10  C   UNL     1      -9.353   1.139 125.315  0.00  0.00    +0.000 A 
ATOM     11  O   UNL     1     -10.099   0.373 125.920  0.00  0.00    +0.000 OA
ATOM     12  C   UNL     1      -8.198   1.787 125.978  0.00  0.00    +0.000 A 
ATOM     13  C   UNL     1      -7.966   1.501 127.319  0.00  0.00    +0.000 A 
ATOM     14  C   UNL     1      -6.890   2.094 127.953  0.00  0.00    +0.000 A 
ATOM     15  F   UNL     1      -6.696   1.814 129.253  0.00  0.00    +0.000 F 
ATOM     16  C   UNL     1      -6.038   3.000 127.300  0.00  0.00    +0.000 A 
ENDROOT
BRANCH  16  17
ATOM     17  N   UNL     1      -4.998   3.576 128.009  0.00  0.00    +0.000 N 
ATOM     18  C   UNL     1      -5.273   4.570 129.052  0.00  0.00    +0.000 C 
ATOM     19  C   UNL     1      -4.273   5.741 128.941  0.00  0.00    +0.000 C 
ATOM     20  N   UNL     1      -2.872   5.261 128.992  0.00  0.00    +0.000 NA
ATOM     21  C   UNL     1      -1.940   6.381 128.948  0.00  0.00    +0.000 C 
ATOM     22  C   UNL     1      -2.664   4.347 127.841  0.00  0.00    +0.000 C 
ATOM     23  C   UNL     1      -3.613   3.118 127.892  0.00  0.00    +0.000 C 
ENDBRANCH  16  17
BRANCH   9  24
ATOM     24  C   UNL     1     -10.716   0.848 123.121  0.00  0.00    +0.000 C 
ATOM     25  O   UNL     1     -10.545   0.105 122.162  0.00  0.00    +0.000 OA
BRANCH  24  26
ATOM     26  O   UNL     1     -11.951   1.183 123.553  0.00  0.00    +0.000 OA
ATOM     27  H   UNL     1     -12.028   2.109 123.891  0.00  0.00    +0.000 HD
ENDBRANCH  24  26
ENDBRANCH   9  24
TORSDOF 3
ENDMDL
MODEL 2
REMARK VINA RESULT:      -7.2      4.121      5.757
REMARK  Name = Ofloxacin
REMARK  5 active torsions:
REMARK  status: ('A' for Active; 'I' for Inactive)
REMARK    1  A    between atoms: C_1  and  C_2
REMARK    2  A    between atoms: C_9  and  C_10
REMARK    3  A    between atoms: C_10  and  O_11
REMARK    4  A    between atoms: C_19  and  N_20
REMARK    5  A    between atoms: N_23  and  C_24
REMARK                            x       y       z     vdW  Elec       q    Type
REMARK                         _______ _______ _______ _____ _____    ______ ____
ROOT
ATOM      1  C   UNL     1      -9.222  -2.824 123.233  0.00  0.00    +0.000 C 
ATOM      2  C   UNL     1      -7.920  -2.324 123.875  0.00  0.00    +0.000 C 
ATOM      3  C   UNL     1      -7.520  -3.349 124.948  0.00  0.00    +0.000 C 
ATOM      4  O   UNL     1      -7.243  -2.936 126.272  0.00  0.00    +0.000 OA
ATOM      5  C   UNL     1      -7.481  -1.639 126.617  0.00  0.00    +0.000 A 
ATOM      6  C   UNL     1      -7.873  -0.660 125.688  0.00  0.00    +0.000 A 
ATOM      7  N   UNL     1      -8.086  -0.934 124.326  0.00  0.00    +0.000 N 
ATOM      8  C   UNL     1      -8.423   0.104 123.461  0.00  0.00    +0.000 A 
ATOM      9  C   UNL     1      -8.617   1.390 123.793  0.00  0.00    +0.000 A 
ATOM     10  C   UNL     1      -8.429   1.737 125.212  0.00  0.00    +0.000 A 
ATOM     11  O   UNL     1      -8.581   2.898 125.585  0.00  0.00    +0.000 OA
ATOM     12  C   UNL     1      -8.051   0.660 126.156  0.00  0.00    +0.000 A 
ATOM     13  C   UNL     1      -7.875   0.993 127.495  0.00  0.00    +0.000 A 
ATOM     14  C   UNL     1      -7.527  -0.001 128.391  0.00  0.00    +0.000 A 
ATOM     15  F   UNL     1      -7.347   0.348 129.676  0.00  0.00    +0.000 F 
ATOM     16  C   UNL     1      -7.312  -1.332 127.993  0.00  0.00    +0.000 A 
ENDROOT
BRANCH  16  17
ATOM     17  N   UNL     1      -6.935  -2.265 128.942  0.00  0.00    +0.000 N 
ATOM     18  C   UNL     1      -7.949  -2.962 129.740  0.00  0.00    +0.000 C 
ATOM     19  C   UNL     1      -7.504  -3.032 131.216  0.00  0.00    +0.000 C 
ATOM     20  N   UNL     1      -6.169  -3.662 131.347  0.00  0.00    +0.000 NA
ATOM     21  C   UNL     1      -5.788  -3.777 132.749  0.00  0.00    +0.000 C 
ATOM     22  C   UNL     1      -5.198  -2.830 130.595  0.00  0.00    +0.000 C 
ATOM     23  C   UNL     1      -5.555  -2.733 129.087  0.00  0.00    +0.000 C 
ENDBRANCH  16  17
BRANCH   9  24
ATOM     24  C   UNL     1      -9.003   2.373 122.759  0.00  0.00    +0.000 C 
ATOM     25  O   UNL     1      -9.756   2.107 121.830  0.00  0.00    +0.000 OA
BRANCH  24  26
ATOM     26  O   UNL     1      -8.465   3.602 122.911  0.00  0.00    +0.000 OA
ATOM     27  H   UNL     1      -8.430   3.920 123.847  0.00  0.00    +0.000 HD
ENDBRANCH  24  26
ENDBRANCH   9  24
TORSDOF 3
ENDMDL
MODEL 3
REMARK VINA RESULT:      -7.0      3.956      5.037
REMARK  Name = Ofloxacin
REMARK  5 active torsions:
REMARK  status: ('A' for Active; 'I' for Inactive)
REMARK    1  A    between atoms: C_1  and  C_2
REMARK    2  A    between atoms: C_9  and  C_10
REMARK    3  A    between atoms: C_10  and  O_11
REMARK    4  A    between atoms: C_19  and  N_20
REMARK    5  A    between atoms: N_23  and  C_24
REMARK                            x       y       z     vdW  Elec       q    Type
REMARK                         _______ _______ _______ _____ _____    ______ ____
ROOT
ATOM      1  C   UNL     1      -7.023   1.999 125.315  0.00  0.00    +0.000 C 
ATOM      2  C   UNL     1      -8.144   1.510 126.243  0.00  0.00    +0.000 C 
ATOM      3  C   UNL     1      -7.858   2.080 127.642  0.00  0.00    +0.000 C 
ATOM      4  O   UNL     1      -7.816   1.230 128.772  0.00  0.00    +0.000 OA
ATOM      5  C   UNL     1      -7.885  -0.118 128.581  0.00  0.00    +0.000 A 
ATOM      6  C   UNL     1      -8.120  -0.702 127.324  0.00  0.00    +0.000 A 
ATOM      7  N   UNL     1      -8.273   0.048 126.145  0.00  0.00    +0.000 N 
ATOM      8  C   UNL     1      -8.554  -0.605 124.948  0.00  0.00    +0.000 A 
ATOM      9  C   UNL     1      -8.663  -1.931 124.767  0.00  0.00    +0.000 A 
ATOM     10  C   UNL     1      -8.491  -2.773 125.964  0.00  0.00    +0.000 A 
ATOM     11  O   UNL     1      -8.588  -3.994 125.872  0.00  0.00    +0.000 OA
ATOM     12  C   UNL     1      -8.211  -2.109 127.257  0.00  0.00    +0.000 A 
ATOM     13  C   UNL     1      -8.048  -2.908 128.383  0.00  0.00    +0.000 A 
ATOM     14  C   UNL     1      -7.781  -2.305 129.598  0.00  0.00    +0.000 A 
ATOM     15  F   UNL     1      -7.645  -3.097 130.675  0.00  0.00    +0.000 F 
ATOM     16  C   UNL     1      -7.698  -0.910 129.744  0.00  0.00    +0.000 A 
ENDROOT
BRANCH  16  17
ATOM     17  N   UNL     1      -7.457  -0.378 130.998  0.00  0.00    +0.000 N 
ATOM     18  C   UNL     1      -8.572  -0.048 131.892  0.00  0.00    +0.000 C 
ATOM     19  C   UNL     1      -8.321   1.317 132.568  0.00  0.00    +0.000 C 
ATOM     20  N   UNL     1      -7.021   1.334 133.279  0.00  0.00    +0.000 NA
ATOM     21  C   UNL     1      -6.824   2.606 133.964  0.00  0.00    +0.000 C 
ATOM     22  C   UNL     1      -5.953   1.095 132.278  0.00  0.00    +0.000 C 
ATOM     23  C   UNL     1      -6.112  -0.278 131.569  0.00  0.00    +0.000 C 
ENDBRANCH  16  17
BRANCH   9  24
ATOM     24  C   UNL     1      -8.938  -2.476 123.420  0.00  0.00    +0.000 C 
ATOM     25  O   UNL     1      -8.239  -2.230 122.444  0.00  0.00    +0.000 OA
BRANCH  24  26
ATOM     26  O   UNL     1     -10.022  -3.276 123.339  0.00  0.00    +0.000 OA
ATOM     27  H   UNL     1     -10.884  -2.794 123.291  0.00  0.00    +0.000 HD
ENDBRANCH  24  26
ENDBRANCH   9  24
TORSDOF 3
ENDMDL
MODEL 4
REMARK VINA RESULT:      -7.0      3.872      5.498
REMARK  Name = Ofloxacin
REMARK  5 active torsions:
REMARK  status: ('A' for Active; 'I' for Inactive)
REMARK    1  A    between atoms: C_1  and  C_2
REMARK    2  A    between atoms: C_9  and  C_10
REMARK    3  A    between atoms: C_10  and  O_11
REMARK    4  A    between atoms: C_19  and  N_20
REMARK    5  A    between atoms: N_23  and  C_24
REMARK                            x       y       z     vdW  Elec       q    Type
REMARK                         _______ _______ _______ _____ _____    ______ ____
ROOT
ATOM      1  C   UNL     1      -7.204  -2.056 122.809  0.00  0.00    +0.000 C 
ATOM      2  C   UNL     1      -6.330  -1.327 123.840  0.00  0.00    +0.000 C 
ATOM      3  C   UNL     1      -6.100  -2.297 125.009  0.00  0.00    +0.000 C 
ATOM      4  O   UNL     1      -6.377  -1.902 126.339  0.00  0.00    +0.000 OA
ATOM      5  C   UNL     1      -6.990  -0.703 126.552  0.00  0.00    +0.000 A 
ATOM      6  C   UNL     1      -7.250   0.217 125.522  0.00  0.00    +0.000 A 
ATOM      7  N   UNL     1      -6.931  -0.027 124.175  0.00  0.00    +0.000 N 
ATOM      8  C   UNL     1      -7.176   0.958 123.222  0.00  0.00    +0.000 A 
ATOM      9  C   UNL     1      -7.741   2.157 123.438  0.00  0.00    +0.000 A 
ATOM     10  C   UNL     1      -8.116   2.463 124.830  0.00  0.00    +0.000 A 
ATOM     11  O   UNL     1      -8.629   3.547 125.101  0.00  0.00    +0.000 OA
ATOM     12  C   UNL     1      -7.852   1.444 125.871  0.00  0.00    +0.000 A 
ATOM     13  C   UNL     1      -8.210   1.739 127.182  0.00  0.00    +0.000 A 
ATOM     14  C   UNL     1      -7.975   0.797 128.167  0.00  0.00    +0.000 A 
ATOM     15  F   UNL     1      -8.314   1.111 129.429  0.00  0.00    +0.000 F 
ATOM     16  C   UNL     1      -7.359  -0.437 127.897  0.00  0.00    +0.000 A 
ENDROOT
BRANCH  16  17
ATOM     17  N   UNL     1      -7.130  -1.317 128.940  0.00  0.00    +0.000 N 
ATOM     18  C   UNL     1      -5.953  -1.156 129.801  0.00  0.00    +0.000 C 
ATOM     19  C   UNL     1      -5.302  -2.530 130.066  0.00  0.00    +0.000 C 
ATOM     20  N   UNL     1      -6.278  -3.488 130.637  0.00  0.00    +0.000 NA
ATOM     21  C   UNL     1      -5.636  -4.761 130.940  0.00  0.00    +0.000 C 
ATOM     22  C   UNL     1      -7.373  -3.663 129.652  0.00  0.00    +0.000 C 
ATOM     23  C   UNL     1      -8.107  -2.327 129.351  0.00  0.00    +0.000 C 
ENDBRANCH  16  17
BRANCH   9  24
ATOM     24  C   UNL     1      -7.961   3.088 122.311  0.00  0.00    +0.000 C 
ATOM     25  O   UNL     1      -9.013   3.143 121.685  0.00  0.00    +0.000 OA
BRANCH  24  26
ATOM     26  O   UNL     1      -6.913   3.886 122.017  0.00  0.00    +0.000 OA
ATOM     27  H   UNL     1      -6.205   3.902 122.708  0.00  0.00    +0.000 HD
ENDBRANCH  24  26
ENDBRANCH   9  24
TORSDOF 3
ENDMDL
MODEL 5
REMARK VINA RESULT:      -6.9      3.051      4.241
REMARK  Name = Ofloxacin
REMARK  5 active torsions:
REMARK  status: ('A' for Active; 'I' for Inactive)
REMARK    1  A    between atoms: C_1  and  C_2
REMARK    2  A    between atoms: C_9  and  C_10
REMARK    3  A    between atoms: C_10  and  O_11
REMARK    4  A    between atoms: C_19  and  N_20
REMARK    5  A    between atoms: N_23  and  C_24
REMARK                            x       y       z     vdW  Elec       q    Type
REMARK                         _______ _______ _______ _____ _____    ______ ____
ROOT
ATOM      1  C   UNL     1      -7.160  -1.434 129.300  0.00  0.00    +0.000 C 
ATOM      2  C   UNL     1      -6.052  -1.147 128.276  0.00  0.00    +0.000 C 
ATOM      3  C   UNL     1      -5.283   0.088 128.771  0.00  0.00    +0.000 C 
ATOM      4  O   UNL     1      -5.077   1.199 127.920  0.00  0.00    +0.000 OA
ATOM      5  C   UNL     1      -5.699   1.218 126.707  0.00  0.00    +0.000 A 
ATOM      6  C   UNL     1      -6.437   0.131 126.208  0.00  0.00    +0.000 A 
ATOM      7  N   UNL     1      -6.628  -1.062 126.926  0.00  0.00    +0.000 N 
ATOM      8  C   UNL     1      -7.330  -2.112 126.338  0.00  0.00    +0.000 A 
ATOM      9  C   UNL     1      -7.907  -2.108 125.126  0.00  0.00    +0.000 A 
ATOM     10  C   UNL     1      -7.758  -0.876 124.333  0.00  0.00    +0.000 A 
ATOM     11  O   UNL     1      -8.253  -0.807 123.209  0.00  0.00    +0.000 OA
ATOM     12  C   UNL     1      -7.001   0.253 124.920  0.00  0.00    +0.000 A 
ATOM     13  C   UNL     1      -6.865   1.414 124.167  0.00  0.00    +0.000 A 
ATOM     14  C   UNL     1      -6.165   2.480 124.702  0.00  0.00    +0.000 A 
ATOM     15  F   UNL     1      -6.033   3.585 123.949  0.00  0.00    +0.000 F 
ATOM     16  C   UNL     1      -5.558   2.422 125.968  0.00  0.00    +0.000 A 
ENDROOT
BRANCH  16  17
ATOM     17  N   UNL     1      -4.848   3.519 126.424  0.00  0.00    +0.000 N 
ATOM     18  C   UNL     1      -3.441   3.699 126.052  0.00  0.00    +0.000 C 
ATOM     19  C   UNL     1      -2.624   4.149 127.282  0.00  0.00    +0.000 C 
ATOM     20  N   UNL     1      -3.195   5.374 127.889  0.00  0.00    +0.000 NA
ATOM     21  C   UNL     1      -2.379   5.823 129.011  0.00  0.00    +0.000 C 
ATOM     22  C   UNL     1      -4.578   5.062 128.326  0.00  0.00    +0.000 C 
ATOM     23  C   UNL     1      -5.482   4.629 127.139  0.00  0.00    +0.000 C 
ENDBRANCH  16  17
BRANCH   9  24
ATOM     24  C   UNL     1      -8.646  -3.298 124.653  0.00  0.00    +0.000 C 
ATOM     25  O   UNL     1      -8.194  -4.435 124.714  0.00  0.00    +0.000 OA
BRANCH  24  26
ATOM     26  O   UNL     1      -9.871  -3.043 124.144  0.00  0.00    +0.000 OA
ATOM     27  H   UNL     1     -10.325  -2.261 124.545  0.00  0.00    +0.000 HD
ENDBRANCH  24  26
ENDBRANCH   9  24
TORSDOF 3
ENDMDL
MODEL 6
REMARK VINA RESULT:      -6.8      4.107      5.458
REMARK  Name = Ofloxacin
REMARK  5 active torsions:
REMARK  status: ('A' for Active; 'I' for Inactive)
REMARK    1  A    between atoms: C_1  and  C_2
REMARK    2  A    between atoms: C_9  and  C_10
REMARK    3  A    between atoms: C_10  and  O_11
REMARK    4  A    between atoms: C_19  and  N_20
REMARK    5  A    between atoms: N_23  and  C_24
REMARK                            x       y       z     vdW  Elec       q    Type
REMARK                         _______ _______ _______ _____ _____    ______ ____
ROOT
ATOM      1  C   UNL     1      -6.220   2.757 126.434  0.00  0.00    +0.000 C 
ATOM      2  C   UNL     1      -7.357   2.052 127.188  0.00  0.00    +0.000 C 
ATOM      3  C   UNL     1      -6.771   1.530 128.509  0.00  0.00    +0.000 C 
ATOM      4  O   UNL     1      -6.930   0.175 128.882  0.00  0.00    +0.000 OA
ATOM      5  C   UNL     1      -7.480  -0.692 127.985  0.00  0.00    +0.000 A 
ATOM      6  C   UNL     1      -8.010  -0.280 126.750  0.00  0.00    +0.000 A 
ATOM      7  N   UNL     1      -7.994   1.056 126.314  0.00  0.00    +0.000 N 
ATOM      8  C   UNL     1      -8.587   1.389 125.099  0.00  0.00    +0.000 A 
ATOM      9  C   UNL     1      -9.166   0.542 124.233  0.00  0.00    +0.000 A 
ATOM     10  C   UNL     1      -9.196  -0.878 124.626  0.00  0.00    +0.000 A 
ATOM     11  O   UNL     1      -9.719  -1.708 123.885  0.00  0.00    +0.000 OA
ATOM     12  C   UNL     1      -8.591  -1.264 125.921  0.00  0.00    +0.000 A 
ATOM     13  C   UNL     1      -8.621  -2.605 126.286  0.00  0.00    +0.000 A 
ATOM     14  C   UNL     1      -8.056  -2.983 127.490  0.00  0.00    +0.000 A 
ATOM     15  F   UNL     1      -8.112  -4.283 127.828  0.00  0.00    +0.000 F 
ATOM     16  C   UNL     1      -7.481  -2.056 128.376  0.00  0.00    +0.000 A 
ENDROOT
BRANCH  16  17
ATOM     17  N   UNL     1      -6.963  -2.507 129.577  0.00  0.00    +0.000 N 
ATOM     18  C   UNL     1      -7.819  -2.609 130.763  0.00  0.00    +0.000 C 
ATOM     19  C   UNL     1      -7.072  -2.072 132.002  0.00  0.00    +0.000 C 
ATOM     20  N   UNL     1      -5.778  -2.769 132.195  0.00  0.00    +0.000 NA
ATOM     21  C   UNL     1      -5.111  -2.296 133.401  0.00  0.00    +0.000 C 
ATOM     22  C   UNL     1      -4.946  -2.520 130.992  0.00  0.00    +0.000 C 
ATOM     23  C   UNL     1      -5.612  -3.061 129.697  0.00  0.00    +0.000 C 
ENDBRANCH  16  17
BRANCH   9  24
ATOM     24  C   UNL     1      -9.728   1.047 122.963  0.00  0.00    +0.000 C 
ATOM     25  O   UNL     1      -9.256   2.001 122.356  0.00  0.00    +0.000 OA
BRANCH  24  26
ATOM     26  O   UNL     1     -10.808   0.376 122.509  0.00  0.00    +0.000 OA
ATOM     27  H   UNL     1     -11.589   0.947 122.306  0.00  0.00    +0.000 HD
ENDBRANCH  24  26
ENDBRANCH   9  24
TORSDOF 3
ENDMDL
MODEL 7
REMARK VINA RESULT:      -6.7      5.014      6.801
REMARK  Name = Ofloxacin
REMARK  5 active torsions:
REMARK  status: ('A' for Active; 'I' for Inactive)
REMARK    1  A    between atoms: C_1  and  C_2
REMARK    2  A    between atoms: C_9  and  C_10
REMARK    3  A    between atoms: C_10  and  O_11
REMARK    4  A    between atoms: C_19  and  N_20
REMARK    5  A    between atoms: N_23  and  C_24
REMARK                            x       y       z     vdW  Elec       q    Type
REMARK                         _______ _______ _______ _____ _____    ______ ____
ROOT
ATOM      1  C   UNL     1      -6.362   1.110 127.328  0.00  0.00    +0.000 C 
ATOM      2  C   UNL     1      -7.817   1.153 127.818  0.00  0.00    +0.000 C 
ATOM      3  C   UNL     1      -8.303   2.604 127.675  0.00  0.00    +0.000 C 
ATOM      4  O   UNL     1      -8.888   3.280 128.771  0.00  0.00    +0.000 OA
ATOM      5  C   UNL     1      -8.877   2.678 129.994  0.00  0.00    +0.000 A 
ATOM      6  C   UNL     1      -8.424   1.363 130.195  0.00  0.00    +0.000 A 
ATOM      7  N   UNL     1      -7.910   0.561 129.161  0.00  0.00    +0.000 N 
ATOM      8  C   UNL     1      -7.528  -0.750 129.435  0.00  0.00    +0.000 A 
ATOM      9  C   UNL     1      -7.557  -1.358 130.631  0.00  0.00    +0.000 A 
ATOM     10  C   UNL     1      -8.068  -0.561 131.760  0.00  0.00    +0.000 A 
ATOM     11  O   UNL     1      -8.131  -1.058 132.882  0.00  0.00    +0.000 OA
ATOM     12  C   UNL     1      -8.500   0.832 131.500  0.00  0.00    +0.000 A 
ATOM     13  C   UNL     1      -8.980   1.580 132.570  0.00  0.00    +0.000 A 
ATOM     14  C   UNL     1      -9.383   2.883 132.345  0.00  0.00    +0.000 A 
ATOM     15  F   UNL     1      -9.858   3.581 133.391  0.00  0.00    +0.000 F 
ATOM     16  C   UNL     1      -9.356   3.471 131.069  0.00  0.00    +0.000 A 
ENDROOT
BRANCH  16  17
ATOM     17  N   UNL     1      -9.804   4.771 130.918  0.00  0.00    +0.000 N 
ATOM     18  C   UNL     1     -11.222   5.042 130.658  0.00  0.00    +0.000 C 
ATOM     19  C   UNL     1     -11.362   6.124 129.567  0.00  0.00    +0.000 C 
ATOM     20  N   UNL     1     -10.623   7.356 129.931  0.00  0.00    +0.000 NA
ATOM     21  C   UNL     1     -10.813   8.390 128.922  0.00  0.00    +0.000 C 
ATOM     22  C   UNL     1      -9.189   7.001 130.069  0.00  0.00    +0.000 C 
ATOM     23  C   UNL     1      -8.954   5.936 131.175  0.00  0.00    +0.000 C 
ENDBRANCH  16  17
BRANCH   9  24
ATOM     24  C   UNL     1      -7.089  -2.754 130.766  0.00  0.00    +0.000 C 
ATOM     25  O   UNL     1      -7.345  -3.628 129.947  0.00  0.00    +0.000 OA
BRANCH  24  26
ATOM     26  O   UNL     1      -6.346  -3.002 131.866  0.00  0.00    +0.000 OA
ATOM     27  H   UNL     1      -6.797  -2.790 132.720  0.00  0.00    +0.000 HD
ENDBRANCH  24  26
ENDBRANCH   9  24
TORSDOF 3
ENDMDL
MODEL 8
REMARK VINA RESULT:      -6.7      3.043      4.926
REMARK  Name = Ofloxacin
REMARK  5 active torsions:
REMARK  status: ('A' for Active; 'I' for Inactive)
REMARK    1  A    between atoms: C_1  and  C_2
REMARK    2  A    between atoms: C_9  and  C_10
REMARK    3  A    between atoms: C_10  and  O_11
REMARK    4  A    between atoms: C_19  and  N_20
REMARK    5  A    between atoms: N_23  and  C_24
REMARK                            x       y       z     vdW  Elec       q    Type
REMARK                         _______ _______ _______ _____ _____    ______ ____
ROOT
ATOM      1  C   UNL     1      -2.299   3.050 126.669  0.00  0.00    +0.000 C 
ATOM      2  C   UNL     1      -3.112   4.294 127.057  0.00  0.00    +0.000 C 
ATOM      3  C   UNL     1      -3.072   4.404 128.590  0.00  0.00    +0.000 C 
ATOM      4  O   UNL     1      -4.268   4.530 129.335  0.00  0.00    +0.000 OA
ATOM      5  C   UNL     1      -5.460   4.402 128.686  0.00  0.00    +0.000 A 
ATOM      6  C   UNL     1      -5.562   4.274 127.291  0.00  0.00    +0.000 A 
ATOM      7  N   UNL     1      -4.445   4.233 126.439  0.00  0.00    +0.000 N 
ATOM      8  C   UNL     1      -4.634   4.155 125.061  0.00  0.00    +0.000 A 
ATOM      9  C   UNL     1      -5.810   4.072 124.419  0.00  0.00    +0.000 A 
ATOM     10  C   UNL     1      -7.019   4.089 125.261  0.00  0.00    +0.000 A 
ATOM     11  O   UNL     1      -8.130   4.025 124.738  0.00  0.00    +0.000 OA
ATOM     12  C   UNL     1      -6.854   4.190 126.729  0.00  0.00    +0.000 A 
ATOM     13  C   UNL     1      -7.999   4.204 127.518  0.00  0.00    +0.000 A 
ATOM     14  C   UNL     1      -7.863   4.294 128.891  0.00  0.00    +0.000 A 
ATOM     15  F   UNL     1      -8.984   4.323 129.631  0.00  0.00    +0.000 F 
ATOM     16  C   UNL     1      -6.610   4.403 129.518  0.00  0.00    +0.000 A 
ENDROOT
BRANCH  16  17
ATOM     17  N   UNL     1      -6.556   4.519 130.896  0.00  0.00    +0.000 N 
ATOM     18  C   UNL     1      -6.369   3.330 131.734  0.00  0.00    +0.000 C 
ATOM     19  C   UNL     1      -7.314   3.389 132.953  0.00  0.00    +0.000 C 
ATOM     20  N   UNL     1      -7.124   4.641 133.722  0.00  0.00    +0.000 NA
ATOM     21  C   UNL     1      -7.978   4.657 134.903  0.00  0.00    +0.000 C 
ATOM     22  C   UNL     1      -7.436   5.779 132.821  0.00  0.00    +0.000 C 
ATOM     23  C   UNL     1      -6.505   5.813 131.579  0.00  0.00    +0.000 C 
ENDBRANCH  16  17
BRANCH   9  24
ATOM     24  C   UNL     1      -5.845   3.965 122.945  0.00  0.00    +0.000 C 
ATOM     25  O   UNL     1      -5.244   4.734 122.205  0.00  0.00    +0.000 OA
BRANCH  24  26
ATOM     26  O   UNL     1      -6.591   2.948 122.464  0.00  0.00    +0.000 OA
ATOM     27  H   UNL     1      -6.109   2.343 121.848  0.00  0.00    +0.000 HD
ENDBRANCH  24  26
ENDBRANCH   9  24
TORSDOF 3
ENDMDL
MODEL 9
REMARK VINA RESULT:      -6.7      3.998      5.597
REMARK  Name = Ofloxacin
REMARK  5 active torsions:
REMARK  status: ('A' for Active; 'I' for Inactive)
REMARK    1  A    between atoms: C_1  and  C_2
REMARK    2  A    between atoms: C_9  and  C_10
REMARK    3  A    between atoms: C_10  and  O_11
REMARK    4  A    between atoms: C_19  and  N_20
REMARK    5  A    between atoms: N_23  and  C_24
REMARK                            x       y       z     vdW  Elec       q    Type
REMARK                         _______ _______ _______ _____ _____    ______ ____
ROOT
ATOM      1  C   UNL     1      -3.301   3.535 126.404  0.00  0.00    +0.000 C 
ATOM      2  C   UNL     1      -4.629   3.119 127.053  0.00  0.00    +0.000 C 
ATOM      3  C   UNL     1      -4.286   2.303 128.309  0.00  0.00    +0.000 C 
ATOM      4  O   UNL     1      -4.852   1.023 128.515  0.00  0.00    +0.000 OA
ATOM      5  C   UNL     1      -5.587   0.463 127.512  0.00  0.00    +0.000 A 
ATOM      6  C   UNL     1      -5.914   1.148 126.329  0.00  0.00    +0.000 A 
ATOM      7  N   UNL     1      -5.487   2.459 126.057  0.00  0.00    +0.000 N 
ATOM      8  C   UNL     1      -5.898   3.085 124.883  0.00  0.00    +0.000 A 
ATOM      9  C   UNL     1      -6.657   2.549 123.914  0.00  0.00    +0.000 A 
ATOM     10  C   UNL     1      -7.119   1.167 124.133  0.00  0.00    +0.000 A 
ATOM     11  O   UNL     1      -7.826   0.617 123.291  0.00  0.00    +0.000 OA
ATOM     12  C   UNL     1      -6.716   0.479 125.381  0.00  0.00    +0.000 A 
ATOM     13  C   UNL     1      -7.154  -0.826 125.581  0.00  0.00    +0.000 A 
ATOM     14  C   UNL     1      -6.783  -1.485 126.738  0.00  0.00    +0.000 A 
ATOM     15  F   UNL     1      -7.233  -2.739 126.916  0.00  0.00    +0.000 F 
ATOM     16  C   UNL     1      -6.005  -0.875 127.736  0.00  0.00    +0.000 A 
ENDROOT
BRANCH  16  17
ATOM     17  N   UNL     1      -5.699  -1.588 128.881  0.00  0.00    +0.000 N 
ATOM     18  C   UNL     1      -4.392  -2.238 129.024  0.00  0.00    +0.000 C 
ATOM     19  C   UNL     1      -4.567  -3.652 129.616  0.00  0.00    +0.000 C 
ATOM     20  N   UNL     1      -5.306  -3.612 130.900  0.00  0.00    +0.000 NA
ATOM     21  C   UNL     1      -5.410  -4.946 131.478  0.00  0.00    +0.000 C 
ATOM     22  C   UNL     1      -6.648  -3.038 130.633  0.00  0.00    +0.000 C 
ATOM     23  C   UNL     1      -6.564  -1.596 130.063  0.00  0.00    +0.000 C 
ENDBRANCH  16  17
BRANCH   9  24
ATOM     24  C   UNL     1      -6.985   3.336 122.707  0.00  0.00    +0.000 C 
ATOM     25  O   UNL     1      -6.142   3.697 121.895  0.00  0.00    +0.000 OA
BRANCH  24  26
ATOM     26  O   UNL     1      -8.294   3.630 122.556  0.00  0.00    +0.000 OA
ATOM     27  H   UNL     1      -8.753   3.104 121.856  0.00  0.00    +0.000 HD
ENDBRANCH  24  26
ENDBRANCH   9  24
TORSDOF 3
ENDMDL
