MODEL 1
REMARK VINA RESULT:      -8.6      0.000      0.000
REMARK  Name = Oftasceine
REMARK  18 active torsions:
REMARK  status: ('A' for Active; 'I' for Inactive)
REMARK    1  A    between atoms: O_1  and  C_2
REMARK    2  A    between atoms: C_2  and  C_4
REMARK    3  A    between atoms: C_4  and  N_5
REMARK    4  A    between atoms: N_5  and  C_6
REMARK    5  A    between atoms: N_5  and  C_10
REMARK    6  A    between atoms: C_6  and  C_7
REMARK    7  A    between atoms: C_7  and  O_8
REMARK    8  A    between atoms: C_10  and  C_11
REMARK    9  A    between atoms: C_18  and  O_19
REMARK   10  A    between atoms: C_20  and  C_21
REMARK   11  A    between atoms: C_21  and  N_22
REMARK   12  A    between atoms: N_22  and  C_23
REMARK   13  A    between atoms: N_22  and  C_27
REMARK   14  A    between atoms: C_23  and  C_24
REMARK   15  A    between atoms: C_24  and  O_25
REMARK   16  A    between atoms: C_27  and  C_28
REMARK   17  A    between atoms: C_28  and  O_29
REMARK   18  A    between atoms: C_44  and  O_45
REMARK                            x       y       z     vdW  Elec       q    Type
REMARK                         _______ _______ _______ _____ _____    ______ ____
ROOT
ATOM      1  C   UNL     1      -7.237  -1.413 128.333  0.00  0.00    +0.000 A 
ATOM      2  C   UNL     1      -7.273  -0.079 127.883  0.00  0.00    +0.000 A 
ATOM      3  C   UNL     1      -7.685   0.954 128.740  0.00  0.00    +0.000 A 
ATOM      4  C   UNL     1      -7.923   0.638 130.079  0.00  0.00    +0.000 A 
ATOM      5  O   UNL     1      -8.281   1.539 131.026  0.00  0.00    +0.000 OA
ATOM      6  C   UNL     1      -8.721   2.737 130.580  0.00  0.00    +0.000 A 
ATOM      7  C   UNL     1      -9.510   3.399 131.475  0.00  0.00    +0.000 A 
ATOM      8  C   UNL     1     -10.110   4.572 131.069  0.00  0.00    +0.000 A 
ATOM      9  C   UNL     1      -9.548   5.322 130.029  0.00  0.00    +0.000 A 
ATOM     10  C   UNL     1      -8.822   4.610 129.075  0.00  0.00    +0.000 A 
ATOM     11  C   UNL     1      -8.483   3.267 129.320  0.00  0.00    +0.000 A 
ATOM     12  C   UNL     1      -7.910   2.372 128.261  0.00  0.00    +0.000 C 
ATOM     13  O   UNL     1      -8.913   2.327 127.206  0.00  0.00    +0.000 OA
ATOM     14  C   UNL     1      -8.443   2.812 126.024  0.00  0.00    +0.000 C 
ATOM     15  O   UNL     1      -9.065   2.913 124.985  0.00  0.00    +0.000 OA
ATOM     16  C   UNL     1      -7.055   3.195 126.252  0.00  0.00    +0.000 A 
ATOM     17  C   UNL     1      -6.142   3.719 125.360  0.00  0.00    +0.000 A 
ATOM     18  C   UNL     1      -4.871   4.029 125.852  0.00  0.00    +0.000 A 
ATOM     19  C   UNL     1      -4.555   3.836 127.208  0.00  0.00    +0.000 A 
ATOM     20  C   UNL     1      -5.494   3.302 128.087  0.00  0.00    +0.000 A 
ATOM     21  C   UNL     1      -6.736   2.967 127.576  0.00  0.00    +0.000 A 
ATOM     22  C   UNL     1      -7.892  -0.653 130.549  0.00  0.00    +0.000 A 
ATOM     23  C   UNL     1      -7.682  -1.657 129.641  0.00  0.00    +0.000 A 
ENDROOT
BRANCH   8  24
ATOM     24  O   UNL     1     -10.983   5.155 131.962  0.00  0.00    +0.000 OA
ATOM     25  H   UNL     1     -10.579   5.065 132.862  0.00  0.00    +0.000 HD
ENDBRANCH   8  24
BRANCH  23  26
ATOM     26  O   UNL     1      -8.032  -2.895 130.077  0.00  0.00    +0.000 OA
ATOM     27  H   UNL     1      -7.582  -3.082 130.921  0.00  0.00    +0.000 HD
ENDBRANCH  23  26
BRANCH   1  28
ATOM     28  C   UNL     1      -6.662  -2.480 127.403  0.00  0.00    +0.000 C 
BRANCH  28  29
ATOM     29  N   UNL     1      -6.960  -2.338 125.944  0.00  0.00    +0.000 NA
BRANCH  29  30
ATOM     30  C   UNL     1      -7.994  -3.343 125.549  0.00  0.00    +0.000 C 
BRANCH  30  31
ATOM     31  C   UNL     1      -9.342  -2.750 125.117  0.00  0.00    +0.000 C 
ATOM     32  O   UNL     1      -9.806  -1.752 125.653  0.00  0.00    +0.000 OA
BRANCH  31  33
ATOM     33  O   UNL     1      -9.900  -3.247 123.993  0.00  0.00    +0.000 OA
ATOM     34  H   UNL     1     -10.852  -3.467 124.154  0.00  0.00    +0.000 HD
ENDBRANCH  31  33
ENDBRANCH  30  31
ENDBRANCH  29  30
BRANCH  29  35
ATOM     35  C   UNL     1      -5.717  -2.524 125.134  0.00  0.00    +0.000 C 
BRANCH  35  36
ATOM     36  C   UNL     1      -5.879  -2.087 123.663  0.00  0.00    +0.000 C 
ATOM     37  O   UNL     1      -6.500  -1.097 123.308  0.00  0.00    +0.000 OA
BRANCH  36  38
ATOM     38  O   UNL     1      -5.230  -2.810 122.734  0.00  0.00    +0.000 OA
ATOM     39  H   UNL     1      -4.531  -2.360 122.234  0.00  0.00    +0.000 HD
ENDBRANCH  36  38
ENDBRANCH  35  36
ENDBRANCH  29  35
ENDBRANCH  28  29
ENDBRANCH   1  28
BRANCH   9  40
ATOM     40  C   UNL     1      -9.614   6.843 129.950  0.00  0.00    +0.000 C 
BRANCH  40  41
ATOM     41  N   UNL     1     -10.523   7.390 128.864  0.00  0.00    +0.000 NA
BRANCH  41  42
ATOM     42  C   UNL     1     -10.242   6.859 127.452  0.00  0.00    +0.000 C 
BRANCH  42  43
ATOM     43  C   UNL     1     -11.131   7.383 126.332  0.00  0.00    +0.000 C 
ATOM     44  O   UNL     1     -10.869   8.252 125.491  0.00  0.00    +0.000 OA
BRANCH  43  45
ATOM     45  O   UNL     1     -12.159   6.563 126.180  0.00  0.00    +0.000 OA
ATOM     46  H   UNL     1     -12.403   6.502 127.146  0.00  0.00    +0.000 HD
ENDBRANCH  43  45
ENDBRANCH  42  43
ENDBRANCH  41  42
BRANCH  41  47
ATOM     47  C   UNL     1     -11.921   6.931 129.228  0.00  0.00    +0.000 C 
BRANCH  47  48
ATOM     48  C   UNL     1     -12.594   7.766 130.325  0.00  0.00    +0.000 C 
ATOM     49  O   UNL     1     -12.950   7.284 131.393  0.00  0.00    +0.000 OA
BRANCH  48  50
ATOM     50  O   UNL     1     -12.769   9.079 130.052  0.00  0.00    +0.000 OA
ATOM     51  H   UNL     1     -13.068   9.236 129.135  0.00  0.00    +0.000 HD
ENDBRANCH  48  50
ENDBRANCH  47  48
ENDBRANCH  41  47
ENDBRANCH  40  41
ENDBRANCH   9  40
TORSDOF 18
ENDMDL
MODEL 2
REMARK VINA RESULT:      -8.6      1.318      2.255
REMARK  Name = Oftasceine
REMARK  18 active torsions:
REMARK  status: ('A' for Active; 'I' for Inactive)
REMARK    1  A    between atoms: O_1  and  C_2
REMARK    2  A    between atoms: C_2  and  C_4
REMARK    3  A    between atoms: C_4  and  N_5
REMARK    4  A    between atoms: N_5  and  C_6
REMARK    5  A    between atoms: N_5  and  C_10
REMARK    6  A    between atoms: C_6  and  C_7
REMARK    7  A    between atoms: C_7  and  O_8
REMARK    8  A    between atoms: C_10  and  C_11
REMARK    9  A    between atoms: C_18  and  O_19
REMARK   10  A    between atoms: C_20  and  C_21
REMARK   11  A    between atoms: C_21  and  N_22
REMARK   12  A    between atoms: N_22  and  C_23
REMARK   13  A    between atoms: N_22  and  C_27
REMARK   14  A    between atoms: C_23  and  C_24
REMARK   15  A    between atoms: C_24  and  O_25
REMARK   16  A    between atoms: C_27  and  C_28
REMARK   17  A    between atoms: C_28  and  O_29
REMARK   18  A    between atoms: C_44  and  O_45
REMARK                            x       y       z     vdW  Elec       q    Type
REMARK                         _______ _______ _______ _____ _____    ______ ____
ROOT
ATOM      1  C   UNL     1      -6.659  -1.953 127.072  0.00  0.00    +0.000 A 
ATOM      2  C   UNL     1      -6.920  -0.596 126.798  0.00  0.00    +0.000 A 
ATOM      3  C   UNL     1      -7.235   0.295 127.836  0.00  0.00    +0.000 A 
ATOM      4  C   UNL     1      -7.147  -0.170 129.149  0.00  0.00    +0.000 A 
ATOM      5  O   UNL     1      -7.377   0.588 130.247  0.00  0.00    +0.000 OA
ATOM      6  C   UNL     1      -8.017   1.762 130.044  0.00  0.00    +0.000 A 
ATOM      7  C   UNL     1      -8.654   2.238 131.152  0.00  0.00    +0.000 A 
ATOM      8  C   UNL     1      -9.438   3.365 131.017  0.00  0.00    +0.000 A 
ATOM      9  C   UNL     1      -9.189   4.270 129.979  0.00  0.00    +0.000 A 
ATOM     10  C   UNL     1      -8.621   3.742 128.821  0.00  0.00    +0.000 A 
ATOM     11  C   UNL     1      -8.108   2.433 128.833  0.00  0.00    +0.000 A 
ATOM     12  C   UNL     1      -7.694   1.715 127.581  0.00  0.00    +0.000 C 
ATOM     13  O   UNL     1      -8.892   1.650 126.756  0.00  0.00    +0.000 OA
ATOM     14  C   UNL     1      -8.738   2.296 125.568  0.00  0.00    +0.000 C 
ATOM     15  O   UNL     1      -9.576   2.419 124.697  0.00  0.00    +0.000 OA
ATOM     16  C   UNL     1      -7.377   2.818 125.550  0.00  0.00    +0.000 A 
ATOM     17  C   UNL     1      -6.733   3.529 124.558  0.00  0.00    +0.000 A 
ATOM     18  C   UNL     1      -5.422   3.940 124.813  0.00  0.00    +0.000 A 
ATOM     19  C   UNL     1      -4.803   3.661 126.044  0.00  0.00    +0.000 A 
ATOM     20  C   UNL     1      -5.474   2.939 127.027  0.00  0.00    +0.000 A 
ATOM     21  C   UNL     1      -6.759   2.507 126.745  0.00  0.00    +0.000 A 
ATOM     22  C   UNL     1      -6.890  -1.487 129.448  0.00  0.00    +0.000 A 
ATOM     23  C   UNL     1      -6.785  -2.369 128.406  0.00  0.00    +0.000 A 
ENDROOT
BRANCH   8  24
ATOM     24  O   UNL     1     -10.149   3.754 132.132  0.00  0.00    +0.000 OA
ATOM     25  H   UNL     1     -11.017   3.277 132.102  0.00  0.00    +0.000 HD
ENDBRANCH   8  24
BRANCH  23  26
ATOM     26  O   UNL     1      -6.911  -3.676 128.757  0.00  0.00    +0.000 OA
ATOM     27  H   UNL     1      -6.074  -3.991 129.143  0.00  0.00    +0.000 HD
ENDBRANCH  23  26
BRANCH   1  28
ATOM     28  C   UNL     1      -6.198  -2.852 125.926  0.00  0.00    +0.000 C 
BRANCH  28  29
ATOM     29  N   UNL     1      -6.875  -2.665 124.606  0.00  0.00    +0.000 NA
BRANCH  29  30
ATOM     30  C   UNL     1      -7.894  -3.743 124.414  0.00  0.00    +0.000 C 
BRANCH  30  31
ATOM     31  C   UNL     1      -9.353  -3.280 124.522  0.00  0.00    +0.000 C 
ATOM     32  O   UNL     1      -9.753  -2.635 125.483  0.00  0.00    +0.000 OA
BRANCH  31  33
ATOM     33  O   UNL     1     -10.129  -3.434 123.429  0.00  0.00    +0.000 OA
ATOM     34  H   UNL     1     -11.085  -3.442 123.688  0.00  0.00    +0.000 HD
ENDBRANCH  31  33
ENDBRANCH  30  31
ENDBRANCH  29  30
BRANCH  29  35
ATOM     35  C   UNL     1      -5.875  -2.692 123.494  0.00  0.00    +0.000 C 
BRANCH  35  36
ATOM     36  C   UNL     1      -4.841  -3.828 123.632  0.00  0.00    +0.000 C 
ATOM     37  O   UNL     1      -5.130  -4.987 123.886  0.00  0.00    +0.000 OA
BRANCH  36  38
ATOM     38  O   UNL     1      -3.556  -3.522 123.383  0.00  0.00    +0.000 OA
ATOM     39  H   UNL     1      -3.209  -2.712 123.789  0.00  0.00    +0.000 HD
ENDBRANCH  36  38
ENDBRANCH  35  36
ENDBRANCH  29  35
ENDBRANCH  28  29
ENDBRANCH   1  28
BRANCH   9  40
ATOM     40  C   UNL     1      -9.417   5.773 130.094  0.00  0.00    +0.000 C 
BRANCH  40  41
ATOM     41  N   UNL     1     -10.619   6.300 129.329  0.00  0.00    +0.000 NA
BRANCH  41  42
ATOM     42  C   UNL     1     -11.981   5.990 129.965  0.00  0.00    +0.000 C 
BRANCH  42  43
ATOM     43  C   UNL     1     -12.284   6.660 131.298  0.00  0.00    +0.000 C 
ATOM     44  O   UNL     1     -13.105   7.555 131.535  0.00  0.00    +0.000 OA
BRANCH  43  45
ATOM     45  O   UNL     1     -11.743   5.945 132.271  0.00  0.00    +0.000 OA
ATOM     46  H   UNL     1     -11.877   6.616 132.998  0.00  0.00    +0.000 HD
ENDBRANCH  43  45
ENDBRANCH  42  43
ENDBRANCH  41  42
BRANCH  41  47
ATOM     47  C   UNL     1     -10.476   7.809 129.328  0.00  0.00    +0.000 C 
BRANCH  47  48
ATOM     48  C   UNL     1     -11.342   8.524 128.283  0.00  0.00    +0.000 C 
ATOM     49  O   UNL     1     -12.350   9.151 128.583  0.00  0.00    +0.000 OA
BRANCH  48  50
ATOM     50  O   UNL     1     -10.927   8.431 127.000  0.00  0.00    +0.000 OA
ATOM     51  H   UNL     1     -10.568   9.274 126.659  0.00  0.00    +0.000 HD
ENDBRANCH  48  50
ENDBRANCH  47  48
ENDBRANCH  41  47
ENDBRANCH  40  41
ENDBRANCH   9  40
TORSDOF 18
ENDMDL
MODEL 3
REMARK VINA RESULT:      -8.3      2.052      3.499
REMARK  Name = Oftasceine
REMARK  18 active torsions:
REMARK  status: ('A' for Active; 'I' for Inactive)
REMARK    1  A    between atoms: O_1  and  C_2
REMARK    2  A    between atoms: C_2  and  C_4
REMARK    3  A    between atoms: C_4  and  N_5
REMARK    4  A    between atoms: N_5  and  C_6
REMARK    5  A    between atoms: N_5  and  C_10
REMARK    6  A    between atoms: C_6  and  C_7
REMARK    7  A    between atoms: C_7  and  O_8
REMARK    8  A    between atoms: C_10  and  C_11
REMARK    9  A    between atoms: C_18  and  O_19
REMARK   10  A    between atoms: C_20  and  C_21
REMARK   11  A    between atoms: C_21  and  N_22
REMARK   12  A    between atoms: N_22  and  C_23
REMARK   13  A    between atoms: N_22  and  C_27
REMARK   14  A    between atoms: C_23  and  C_24
REMARK   15  A    between atoms: C_24  and  O_25
REMARK   16  A    between atoms: C_27  and  C_28
REMARK   17  A    between atoms: C_28  and  O_29
REMARK   18  A    between atoms: C_44  and  O_45
REMARK                            x       y       z     vdW  Elec       q    Type
REMARK                         _______ _______ _______ _____ _____    ______ ____
ROOT
ATOM      1  C   UNL     1      -8.106  -2.669 126.500  0.00  0.00    +0.000 A 
ATOM      2  C   UNL     1      -7.869  -1.282 126.566  0.00  0.00    +0.000 A 
ATOM      3  C   UNL     1      -7.906  -0.608 127.796  0.00  0.00    +0.000 A 
ATOM      4  C   UNL     1      -8.047  -1.369 128.958  0.00  0.00    +0.000 A 
ATOM      5  O   UNL     1      -8.053  -0.859 130.212  0.00  0.00    +0.000 OA
ATOM      6  C   UNL     1      -8.237   0.476 130.317  0.00  0.00    +0.000 A 
ATOM      7  C   UNL     1      -8.722   0.869 131.530  0.00  0.00    +0.000 A 
ATOM      8  C   UNL     1      -9.062   2.196 131.695  0.00  0.00    +0.000 A 
ATOM      9  C   UNL     1      -8.465   3.175 130.892  0.00  0.00    +0.000 A 
ATOM     10  C   UNL     1      -8.060   2.772 129.621  0.00  0.00    +0.000 A 
ATOM     11  C   UNL     1      -8.033   1.402 129.303  0.00  0.00    +0.000 A 
ATOM     12  C   UNL     1      -7.833   0.900 127.903  0.00  0.00    +0.000 C 
ATOM     13  O   UNL     1      -8.939   1.451 127.131  0.00  0.00    +0.000 OA
ATOM     14  C   UNL     1      -8.514   2.264 126.126  0.00  0.00    +0.000 C 
ATOM     15  O   UNL     1      -9.215   2.870 125.341  0.00  0.00    +0.000 OA
ATOM     16  C   UNL     1      -7.057   2.270 126.180  0.00  0.00    +0.000 A 
ATOM     17  C   UNL     1      -6.160   2.925 125.361  0.00  0.00    +0.000 A 
ATOM     18  C   UNL     1      -4.802   2.783 125.656  0.00  0.00    +0.000 A 
ATOM     19  C   UNL     1      -4.378   2.025 126.761  0.00  0.00    +0.000 A 
ATOM     20  C   UNL     1      -5.303   1.371 127.571  0.00  0.00    +0.000 A 
ATOM     21  C   UNL     1      -6.643   1.491 127.243  0.00  0.00    +0.000 A 
ATOM     22  C   UNL     1      -8.276  -2.724 128.927  0.00  0.00    +0.000 A 
ATOM     23  C   UNL     1      -8.432  -3.317 127.702  0.00  0.00    +0.000 A 
ENDROOT
BRANCH   8  24
ATOM     24  O   UNL     1      -9.647   2.534 132.897  0.00  0.00    +0.000 OA
ATOM     25  H   UNL     1     -10.563   2.159 132.888  0.00  0.00    +0.000 HD
ENDBRANCH   8  24
BRANCH  23  26
ATOM     26  O   UNL     1      -9.020  -4.542 127.738  0.00  0.00    +0.000 OA
ATOM     27  H   UNL     1      -9.727  -4.583 127.069  0.00  0.00    +0.000 HD
ENDBRANCH  23  26
BRANCH   1  28
ATOM     28  C   UNL     1      -7.930  -3.376 125.158  0.00  0.00    +0.000 C 
BRANCH  28  29
ATOM     29  N   UNL     1      -7.498  -2.533 124.001  0.00  0.00    +0.000 NA
BRANCH  29  30
ATOM     30  C   UNL     1      -8.670  -2.276 123.108  0.00  0.00    +0.000 C 
BRANCH  30  31
ATOM     31  C   UNL     1      -9.141  -0.817 123.060  0.00  0.00    +0.000 C 
ATOM     32  O   UNL     1      -8.380   0.112 123.300  0.00  0.00    +0.000 OA
BRANCH  31  33
ATOM     33  O   UNL     1     -10.367  -0.584 122.547  0.00  0.00    +0.000 OA
ATOM     34  H   UNL     1     -10.344  -0.667 121.560  0.00  0.00    +0.000 HD
ENDBRANCH  31  33
ENDBRANCH  30  31
ENDBRANCH  29  30
BRANCH  29  35
ATOM     35  C   UNL     1      -6.402  -3.207 123.240  0.00  0.00    +0.000 C 
BRANCH  35  36
ATOM     36  C   UNL     1      -4.994  -2.872 123.775  0.00  0.00    +0.000 C 
ATOM     37  O   UNL     1      -3.978  -3.463 123.444  0.00  0.00    +0.000 OA
BRANCH  36  38
ATOM     38  O   UNL     1      -4.887  -1.814 124.598  0.00  0.00    +0.000 OA
ATOM     39  H   UNL     1      -4.221  -1.145 124.371  0.00  0.00    +0.000 HD
ENDBRANCH  36  38
ENDBRANCH  35  36
ENDBRANCH  29  35
ENDBRANCH  28  29
ENDBRANCH   1  28
BRANCH   9  40
ATOM     40  C   UNL     1      -8.165   4.593 131.368  0.00  0.00    +0.000 C 
BRANCH  40  41
ATOM     41  N   UNL     1      -9.369   5.371 131.867  0.00  0.00    +0.000 NA
BRANCH  41  42
ATOM     42  C   UNL     1      -9.182   6.058 133.227  0.00  0.00    +0.000 C 
BRANCH  42  43
ATOM     43  C   UNL     1      -8.187   5.420 134.187  0.00  0.00    +0.000 C 
ATOM     44  O   UNL     1      -7.062   5.826 134.504  0.00  0.00    +0.000 OA
BRANCH  43  45
ATOM     45  O   UNL     1      -8.808   4.487 134.891  0.00  0.00    +0.000 OA
ATOM     46  H   UNL     1      -9.343   5.107 135.461  0.00  0.00    +0.000 HD
ENDBRANCH  43  45
ENDBRANCH  42  43
ENDBRANCH  41  42
BRANCH  41  47
ATOM     47  C   UNL     1      -9.594   6.475 130.853  0.00  0.00    +0.000 C 
BRANCH  47  48
ATOM     48  C   UNL     1     -10.301   6.018 129.571  0.00  0.00    +0.000 C 
ATOM     49  O   UNL     1     -11.452   5.599 129.568  0.00  0.00    +0.000 OA
BRANCH  48  50
ATOM     50  O   UNL     1      -9.583   6.110 128.428  0.00  0.00    +0.000 OA
ATOM     51  H   UNL     1     -10.148   6.178 127.633  0.00  0.00    +0.000 HD
ENDBRANCH  48  50
ENDBRANCH  47  48
ENDBRANCH  41  47
ENDBRANCH  40  41
ENDBRANCH   9  40
TORSDOF 18
ENDMDL
MODEL 4
REMARK VINA RESULT:      -8.2      2.227      3.045
REMARK  Name = Oftasceine
REMARK  18 active torsions:
REMARK  status: ('A' for Active; 'I' for Inactive)
REMARK    1  A    between atoms: O_1  and  C_2
REMARK    2  A    between atoms: C_2  and  C_4
REMARK    3  A    between atoms: C_4  and  N_5
REMARK    4  A    between atoms: N_5  and  C_6
REMARK    5  A    between atoms: N_5  and  C_10
REMARK    6  A    between atoms: C_6  and  C_7
REMARK    7  A    between atoms: C_7  and  O_8
REMARK    8  A    between atoms: C_10  and  C_11
REMARK    9  A    between atoms: C_18  and  O_19
REMARK   10  A    between atoms: C_20  and  C_21
REMARK   11  A    between atoms: C_21  and  N_22
REMARK   12  A    between atoms: N_22  and  C_23
REMARK   13  A    between atoms: N_22  and  C_27
REMARK   14  A    between atoms: C_23  and  C_24
REMARK   15  A    between atoms: C_24  and  O_25
REMARK   16  A    between atoms: C_27  and  C_28
REMARK   17  A    between atoms: C_28  and  O_29
REMARK   18  A    between atoms: C_44  and  O_45
REMARK                            x       y       z     vdW  Elec       q    Type
REMARK                         _______ _______ _______ _____ _____    ______ ____
ROOT
ATOM      1  C   UNL     1      -7.873  -2.180 126.480  0.00  0.00    +0.000 A 
ATOM      2  C   UNL     1      -7.628  -0.798 126.602  0.00  0.00    +0.000 A 
ATOM      3  C   UNL     1      -7.728  -0.162 127.850  0.00  0.00    +0.000 A 
ATOM      4  C   UNL     1      -7.940  -0.958 128.977  0.00  0.00    +0.000 A 
ATOM      5  O   UNL     1      -8.011  -0.486 130.245  0.00  0.00    +0.000 OA
ATOM      6  C   UNL     1      -8.189   0.847 130.381  0.00  0.00    +0.000 A 
ATOM      7  C   UNL     1      -8.737   1.207 131.577  0.00  0.00    +0.000 A 
ATOM      8  C   UNL     1      -9.074   2.531 131.765  0.00  0.00    +0.000 A 
ATOM      9  C   UNL     1      -8.426   3.529 131.027  0.00  0.00    +0.000 A 
ATOM     10  C   UNL     1      -7.954   3.161 129.768  0.00  0.00    +0.000 A 
ATOM     11  C   UNL     1      -7.921   1.801 129.410  0.00  0.00    +0.000 A 
ATOM     12  C   UNL     1      -7.649   1.342 128.007  0.00  0.00    +0.000 C 
ATOM     13  O   UNL     1      -8.705   1.927 127.194  0.00  0.00    +0.000 OA
ATOM     14  C   UNL     1      -8.219   2.766 126.239  0.00  0.00    +0.000 C 
ATOM     15  O   UNL     1      -8.870   3.404 125.436  0.00  0.00    +0.000 OA
ATOM     16  C   UNL     1      -6.767   2.756 126.374  0.00  0.00    +0.000 A 
ATOM     17  C   UNL     1      -5.821   3.427 125.627  0.00  0.00    +0.000 A 
ATOM     18  C   UNL     1      -4.482   3.263 125.991  0.00  0.00    +0.000 A 
ATOM     19  C   UNL     1      -4.126   2.467 127.094  0.00  0.00    +0.000 A 
ATOM     20  C   UNL     1      -5.100   1.797 127.830  0.00  0.00    +0.000 A 
ATOM     21  C   UNL     1      -6.419   1.941 127.433  0.00  0.00    +0.000 A 
ATOM     22  C   UNL     1      -8.177  -2.308 128.891  0.00  0.00    +0.000 A 
ATOM     23  C   UNL     1      -8.271  -2.861 127.641  0.00  0.00    +0.000 A 
ENDROOT
BRANCH   8  24
ATOM     24  O   UNL     1      -9.722   2.838 132.942  0.00  0.00    +0.000 OA
ATOM     25  H   UNL     1      -9.801   1.996 133.457  0.00  0.00    +0.000 HD
ENDBRANCH   8  24
BRANCH  23  26
ATOM     26  O   UNL     1      -8.869  -4.081 127.606  0.00  0.00    +0.000 OA
ATOM     27  H   UNL     1      -9.801  -3.993 127.876  0.00  0.00    +0.000 HD
ENDBRANCH  23  26
BRANCH   1  28
ATOM     28  C   UNL     1      -7.629  -2.847 125.128  0.00  0.00    +0.000 C 
BRANCH  28  29
ATOM     29  N   UNL     1      -7.501  -1.944 123.942  0.00  0.00    +0.000 NA
BRANCH  29  30
ATOM     30  C   UNL     1      -8.827  -1.828 123.261  0.00  0.00    +0.000 C 
BRANCH  30  31
ATOM     31  C   UNL     1      -9.338  -0.392 123.079  0.00  0.00    +0.000 C 
ATOM     32  O   UNL     1      -8.669   0.575 123.418  0.00  0.00    +0.000 OA
BRANCH  31  33
ATOM     33  O   UNL     1     -10.460  -0.228 122.348  0.00  0.00    +0.000 OA
ATOM     34  H   UNL     1     -10.629  -1.034 121.798  0.00  0.00    +0.000 HD
ENDBRANCH  31  33
ENDBRANCH  30  31
ENDBRANCH  29  30
BRANCH  29  35
ATOM     35  C   UNL     1      -6.472  -2.469 122.992  0.00  0.00    +0.000 C 
BRANCH  35  36
ATOM     36  C   UNL     1      -5.161  -2.891 123.686  0.00  0.00    +0.000 C 
ATOM     37  O   UNL     1      -4.504  -2.158 124.409  0.00  0.00    +0.000 OA
BRANCH  36  38
ATOM     38  O   UNL     1      -4.770  -4.168 123.535  0.00  0.00    +0.000 OA
ATOM     39  H   UNL     1      -3.903  -4.410 123.898  0.00  0.00    +0.000 HD
ENDBRANCH  36  38
ENDBRANCH  35  36
ENDBRANCH  29  35
ENDBRANCH  28  29
ENDBRANCH   1  28
BRANCH   9  40
ATOM     40  C   UNL     1      -8.141   4.928 131.563  0.00  0.00    +0.000 C 
BRANCH  40  41
ATOM     41  N   UNL     1      -8.099   6.022 130.511  0.00  0.00    +0.000 NA
BRANCH  41  42
ATOM     42  C   UNL     1      -9.432   6.742 130.269  0.00  0.00    +0.000 C 
BRANCH  42  43
ATOM     43  C   UNL     1     -10.174   6.400 128.984  0.00  0.00    +0.000 C 
ATOM     44  O   UNL     1      -9.749   6.435 127.822  0.00  0.00    +0.000 OA
BRANCH  43  45
ATOM     45  O   UNL     1     -11.291   5.759 129.290  0.00  0.00    +0.000 OA
ATOM     46  H   UNL     1     -11.161   4.992 128.664  0.00  0.00    +0.000 HD
ENDBRANCH  43  45
ENDBRANCH  42  43
ENDBRANCH  41  42
BRANCH  41  47
ATOM     47  C   UNL     1      -7.135   7.065 131.041  0.00  0.00    +0.000 C 
BRANCH  47  48
ATOM     48  C   UNL     1      -5.655   6.694 130.883  0.00  0.00    +0.000 C 
ATOM     49  O   UNL     1      -5.109   6.621 129.789  0.00  0.00    +0.000 OA
BRANCH  48  50
ATOM     50  O   UNL     1      -4.974   6.456 132.027  0.00  0.00    +0.000 OA
ATOM     51  H   UNL     1      -5.426   6.817 132.815  0.00  0.00    +0.000 HD
ENDBRANCH  48  50
ENDBRANCH  47  48
ENDBRANCH  41  47
ENDBRANCH  40  41
ENDBRANCH   9  40
TORSDOF 18
ENDMDL
MODEL 5
REMARK VINA RESULT:      -8.1      2.805      9.143
REMARK  Name = Oftasceine
REMARK  18 active torsions:
REMARK  status: ('A' for Active; 'I' for Inactive)
REMARK    1  A    between atoms: O_1  and  C_2
REMARK    2  A    between atoms: C_2  and  C_4
REMARK    3  A    between atoms: C_4  and  N_5
REMARK    4  A    between atoms: N_5  and  C_6
REMARK    5  A    between atoms: N_5  and  C_10
REMARK    6  A    between atoms: C_6  and  C_7
REMARK    7  A    between atoms: C_7  and  O_8
REMARK    8  A    between atoms: C_10  and  C_11
REMARK    9  A    between atoms: C_18  and  O_19
REMARK   10  A    between atoms: C_20  and  C_21
REMARK   11  A    between atoms: C_21  and  N_22
REMARK   12  A    between atoms: N_22  and  C_23
REMARK   13  A    between atoms: N_22  and  C_27
REMARK   14  A    between atoms: C_23  and  C_24
REMARK   15  A    between atoms: C_24  and  O_25
REMARK   16  A    between atoms: C_27  and  C_28
REMARK   17  A    between atoms: C_28  and  O_29
REMARK   18  A    between atoms: C_44  and  O_45
REMARK                            x       y       z     vdW  Elec       q    Type
REMARK                         _______ _______ _______ _____ _____    ______ ____
ROOT
ATOM      1  C   UNL     1      -9.393   5.759 130.882  0.00  0.00    +0.000 A 
ATOM      2  C   UNL     1      -8.564   4.873 130.168  0.00  0.00    +0.000 A 
ATOM      3  C   UNL     1      -8.092   3.695 130.768  0.00  0.00    +0.000 A 
ATOM      4  C   UNL     1      -8.576   3.365 132.035  0.00  0.00    +0.000 A 
ATOM      5  O   UNL     1      -8.245   2.240 132.712  0.00  0.00    +0.000 OA
ATOM      6  C   UNL     1      -7.161   1.566 132.265  0.00  0.00    +0.000 A 
ATOM      7  C   UNL     1      -6.578   0.775 133.211  0.00  0.00    +0.000 A 
ATOM      8  C   UNL     1      -5.395   0.143 132.891  0.00  0.00    +0.000 A 
ATOM      9  C   UNL     1      -5.081  -0.117 131.551  0.00  0.00    +0.000 A 
ATOM     10  C   UNL     1      -5.614   0.761 130.609  0.00  0.00    +0.000 A 
ATOM     11  C   UNL     1      -6.606   1.678 130.998  0.00  0.00    +0.000 A 
ATOM     12  C   UNL     1      -7.062   2.800 130.111  0.00  0.00    +0.000 C 
ATOM     13  O   UNL     1      -5.875   3.605 129.860  0.00  0.00    +0.000 OA
ATOM     14  C   UNL     1      -5.555   3.658 128.538  0.00  0.00    +0.000 C 
ATOM     15  O   UNL     1      -4.608   4.237 128.045  0.00  0.00    +0.000 OA
ATOM     16  C   UNL     1      -6.565   2.879 127.833  0.00  0.00    +0.000 A 
ATOM     17  C   UNL     1      -6.693   2.646 126.479  0.00  0.00    +0.000 A 
ATOM     18  C   UNL     1      -7.748   1.828 126.066  0.00  0.00    +0.000 A 
ATOM     19  C   UNL     1      -8.621   1.248 127.002  0.00  0.00    +0.000 A 
ATOM     20  C   UNL     1      -8.472   1.501 128.363  0.00  0.00    +0.000 A 
ATOM     21  C   UNL     1      -7.445   2.343 128.753  0.00  0.00    +0.000 A 
ATOM     22  C   UNL     1      -9.390   4.206 132.755  0.00  0.00    +0.000 A 
ATOM     23  C   UNL     1      -9.669   5.436 132.219  0.00  0.00    +0.000 A 
ENDROOT
BRANCH   8  24
ATOM     24  O   UNL     1      -4.782  -0.562 133.905  0.00  0.00    +0.000 OA
ATOM     25  H   UNL     1      -4.959  -0.070 134.746  0.00  0.00    +0.000 HD
ENDBRANCH   8  24
BRANCH  23  26
ATOM     26  O   UNL     1     -10.142   6.346 133.111  0.00  0.00    +0.000 OA
ATOM     27  H   UNL     1     -11.116   6.322 133.114  0.00  0.00    +0.000 HD
ENDBRANCH  23  26
BRANCH   1  28
ATOM     28  C   UNL     1      -9.982   6.961 130.144  0.00  0.00    +0.000 C 
BRANCH  28  29
ATOM     29  N   UNL     1     -10.853   6.669 128.964  0.00  0.00    +0.000 NA
BRANCH  29  30
ATOM     30  C   UNL     1     -10.725   7.777 127.967  0.00  0.00    +0.000 C 
BRANCH  30  31
ATOM     31  C   UNL     1     -10.505   7.321 126.518  0.00  0.00    +0.000 C 
ATOM     32  O   UNL     1     -10.888   7.992 125.569  0.00  0.00    +0.000 OA
BRANCH  31  33
ATOM     33  O   UNL     1      -9.696   6.259 126.325  0.00  0.00    +0.000 OA
ATOM     34  H   UNL     1      -9.595   6.080 125.356  0.00  0.00    +0.000 HD
ENDBRANCH  31  33
ENDBRANCH  30  31
ENDBRANCH  29  30
BRANCH  29  35
ATOM     35  C   UNL     1     -12.278   6.513 129.389  0.00  0.00    +0.000 C 
BRANCH  35  36
ATOM     36  C   UNL     1     -12.679   7.465 130.535  0.00  0.00    +0.000 C 
ATOM     37  O   UNL     1     -12.885   8.660 130.390  0.00  0.00    +0.000 OA
BRANCH  36  38
ATOM     38  O   UNL     1     -12.882   6.917 131.745  0.00  0.00    +0.000 OA
ATOM     39  H   UNL     1     -12.228   6.268 132.050  0.00  0.00    +0.000 HD
ENDBRANCH  36  38
ENDBRANCH  35  36
ENDBRANCH  29  35
ENDBRANCH  28  29
ENDBRANCH   1  28
BRANCH   9  40
ATOM     40  C   UNL     1      -4.287  -1.334 131.089  0.00  0.00    +0.000 C 
BRANCH  40  41
ATOM     41  N   UNL     1      -4.919  -2.675 131.415  0.00  0.00    +0.000 NA
BRANCH  41  42
ATOM     42  C   UNL     1      -5.829  -3.248 130.320  0.00  0.00    +0.000 C 
BRANCH  42  43
ATOM     43  C   UNL     1      -5.758  -2.585 128.952  0.00  0.00    +0.000 C 
ATOM     44  O   UNL     1      -4.932  -2.775 128.051  0.00  0.00    +0.000 OA
BRANCH  43  45
ATOM     45  O   UNL     1      -6.901  -1.958 128.718  0.00  0.00    +0.000 OA
ATOM     46  H   UNL     1      -6.749  -1.797 127.745  0.00  0.00    +0.000 HD
ENDBRANCH  43  45
ENDBRANCH  42  43
ENDBRANCH  41  42
BRANCH  41  47
ATOM     47  C   UNL     1      -3.766  -3.647 131.570  0.00  0.00    +0.000 C 
BRANCH  47  48
ATOM     48  C   UNL     1      -3.385  -3.945 133.025  0.00  0.00    +0.000 C 
ATOM     49  O   UNL     1      -3.971  -3.442 133.975  0.00  0.00    +0.000 OA
BRANCH  48  50
ATOM     50  O   UNL     1      -2.360  -4.809 133.209  0.00  0.00    +0.000 OA
ATOM     51  H   UNL     1      -2.023  -4.804 134.126  0.00  0.00    +0.000 HD
ENDBRANCH  48  50
ENDBRANCH  47  48
ENDBRANCH  41  47
ENDBRANCH  40  41
ENDBRANCH   9  40
TORSDOF 18
ENDMDL
MODEL 6
REMARK VINA RESULT:      -8.1      3.959      6.527
REMARK  Name = Oftasceine
REMARK  18 active torsions:
REMARK  status: ('A' for Active; 'I' for Inactive)
REMARK    1  A    between atoms: O_1  and  C_2
REMARK    2  A    between atoms: C_2  and  C_4
REMARK    3  A    between atoms: C_4  and  N_5
REMARK    4  A    between atoms: N_5  and  C_6
REMARK    5  A    between atoms: N_5  and  C_10
REMARK    6  A    between atoms: C_6  and  C_7
REMARK    7  A    between atoms: C_7  and  O_8
REMARK    8  A    between atoms: C_10  and  C_11
REMARK    9  A    between atoms: C_18  and  O_19
REMARK   10  A    between atoms: C_20  and  C_21
REMARK   11  A    between atoms: C_21  and  N_22
REMARK   12  A    between atoms: N_22  and  C_23
REMARK   13  A    between atoms: N_22  and  C_27
REMARK   14  A    between atoms: C_23  and  C_24
REMARK   15  A    between atoms: C_24  and  O_25
REMARK   16  A    between atoms: C_27  and  C_28
REMARK   17  A    between atoms: C_28  and  O_29
REMARK   18  A    between atoms: C_44  and  O_45
REMARK                            x       y       z     vdW  Elec       q    Type
REMARK                         _______ _______ _______ _____ _____    ______ ____
ROOT
ATOM      1  C   UNL     1      -7.182   1.476 124.201  0.00  0.00    +0.000 A 
ATOM      2  C   UNL     1      -6.907   1.410 125.581  0.00  0.00    +0.000 A 
ATOM      3  C   UNL     1      -6.214   2.448 126.223  0.00  0.00    +0.000 A 
ATOM      4  C   UNL     1      -5.929   3.599 125.486  0.00  0.00    +0.000 A 
ATOM      5  O   UNL     1      -5.309   4.695 125.987  0.00  0.00    +0.000 OA
ATOM      6  C   UNL     1      -4.669   4.536 127.167  0.00  0.00    +0.000 A 
ATOM      7  C   UNL     1      -3.683   5.453 127.384  0.00  0.00    +0.000 A 
ATOM      8  C   UNL     1      -2.889   5.302 128.502  0.00  0.00    +0.000 A 
ATOM      9  C   UNL     1      -3.372   4.602 129.613  0.00  0.00    +0.000 A 
ATOM     10  C   UNL     1      -4.312   3.605 129.356  0.00  0.00    +0.000 A 
ATOM     11  C   UNL     1      -4.902   3.519 128.082  0.00  0.00    +0.000 A 
ATOM     12  C   UNL     1      -5.741   2.349 127.657  0.00  0.00    +0.000 C 
ATOM     13  O   UNL     1      -4.867   1.188 127.754  0.00  0.00    +0.000 OA
ATOM     14  C   UNL     1      -5.327   0.267 128.643  0.00  0.00    +0.000 C 
ATOM     15  O   UNL     1      -4.793  -0.784 128.939  0.00  0.00    +0.000 OA
ATOM     16  C   UNL     1      -6.579   0.790 129.177  0.00  0.00    +0.000 A 
ATOM     17  C   UNL     1      -7.438   0.220 130.094  0.00  0.00    +0.000 A 
ATOM     18  C   UNL     1      -8.567   0.957 130.460  0.00  0.00    +0.000 A 
ATOM     19  C   UNL     1      -8.795   2.239 129.930  0.00  0.00    +0.000 A 
ATOM     20  C   UNL     1      -7.914   2.791 129.003  0.00  0.00    +0.000 A 
ATOM     21  C   UNL     1      -6.820   2.032 128.624  0.00  0.00    +0.000 A 
ATOM     22  C   UNL     1      -6.188   3.696 124.140  0.00  0.00    +0.000 A 
ATOM     23  C   UNL     1      -6.684   2.588 123.505  0.00  0.00    +0.000 A 
ENDROOT
BRANCH   8  24
ATOM     24  O   UNL     1      -1.838   6.185 128.631  0.00  0.00    +0.000 OA
ATOM     25  H   UNL     1      -2.230   7.083 128.773  0.00  0.00    +0.000 HD
ENDBRANCH   8  24
BRANCH  23  26
ATOM     26  O   UNL     1      -6.562   2.612 122.151  0.00  0.00    +0.000 OA
ATOM     27  H   UNL     1      -7.275   3.156 121.771  0.00  0.00    +0.000 HD
ENDBRANCH  23  26
BRANCH   1  28
ATOM     28  C   UNL     1      -8.047   0.383 123.577  0.00  0.00    +0.000 C 
BRANCH  28  29
ATOM     29  N   UNL     1      -7.751  -1.026 123.979  0.00  0.00    +0.000 NA
BRANCH  29  30
ATOM     30  C   UNL     1      -6.502  -1.486 123.295  0.00  0.00    +0.000 C 
BRANCH  30  31
ATOM     31  C   UNL     1      -5.473  -2.160 124.211  0.00  0.00    +0.000 C 
ATOM     32  O   UNL     1      -5.556  -2.091 125.431  0.00  0.00    +0.000 OA
BRANCH  31  33
ATOM     33  O   UNL     1      -4.590  -2.999 123.630  0.00  0.00    +0.000 OA
ATOM     34  H   UNL     1      -4.429  -2.726 122.692  0.00  0.00    +0.000 HD
ENDBRANCH  31  33
ENDBRANCH  30  31
ENDBRANCH  29  30
BRANCH  29  35
ATOM     35  C   UNL     1      -8.895  -1.924 123.630  0.00  0.00    +0.000 C 
BRANCH  35  36
ATOM     36  C   UNL     1      -9.121  -3.050 124.660  0.00  0.00    +0.000 C 
ATOM     37  O   UNL     1      -8.424  -4.050 124.743  0.00  0.00    +0.000 OA
BRANCH  36  38
ATOM     38  O   UNL     1     -10.104  -2.871 125.559  0.00  0.00    +0.000 OA
ATOM     39  H   UNL     1     -10.249  -1.966 125.880  0.00  0.00    +0.000 HD
ENDBRANCH  36  38
ENDBRANCH  35  36
ENDBRANCH  29  35
ENDBRANCH  28  29
ENDBRANCH   1  28
BRANCH   9  40
ATOM     40  C   UNL     1      -2.996   4.935 131.053  0.00  0.00    +0.000 C 
BRANCH  40  41
ATOM     41  N   UNL     1      -3.301   6.359 131.482  0.00  0.00    +0.000 NA
BRANCH  41  42
ATOM     42  C   UNL     1      -4.772   6.636 131.819  0.00  0.00    +0.000 C 
BRANCH  42  43
ATOM     43  C   UNL     1      -5.628   7.241 130.715  0.00  0.00    +0.000 C 
ATOM     44  O   UNL     1      -6.856   7.392 130.693  0.00  0.00    +0.000 OA
BRANCH  43  45
ATOM     45  O   UNL     1      -4.840   7.874 129.859  0.00  0.00    +0.000 OA
ATOM     46  H   UNL     1      -4.055   7.966 130.469  0.00  0.00    +0.000 HD
ENDBRANCH  43  45
ENDBRANCH  42  43
ENDBRANCH  41  42
BRANCH  41  47
ATOM     47  C   UNL     1      -2.516   6.580 132.760  0.00  0.00    +0.000 C 
BRANCH  47  48
ATOM     48  C   UNL     1      -1.283   7.477 132.595  0.00  0.00    +0.000 C 
ATOM     49  O   UNL     1      -1.326   8.690 132.760  0.00  0.00    +0.000 OA
BRANCH  48  50
ATOM     50  O   UNL     1      -0.130   6.852 132.263  0.00  0.00    +0.000 OA
ATOM     51  H   UNL     1      -0.230   6.269 131.485  0.00  0.00    +0.000 HD
ENDBRANCH  48  50
ENDBRANCH  47  48
ENDBRANCH  41  47
ENDBRANCH  40  41
ENDBRANCH   9  40
TORSDOF 18
ENDMDL
MODEL 7
REMARK VINA RESULT:      -7.8      3.932      6.250
REMARK  Name = Oftasceine
REMARK  18 active torsions:
REMARK  status: ('A' for Active; 'I' for Inactive)
REMARK    1  A    between atoms: O_1  and  C_2
REMARK    2  A    between atoms: C_2  and  C_4
REMARK    3  A    between atoms: C_4  and  N_5
REMARK    4  A    between atoms: N_5  and  C_6
REMARK    5  A    between atoms: N_5  and  C_10
REMARK    6  A    between atoms: C_6  and  C_7
REMARK    7  A    between atoms: C_7  and  O_8
REMARK    8  A    between atoms: C_10  and  C_11
REMARK    9  A    between atoms: C_18  and  O_19
REMARK   10  A    between atoms: C_20  and  C_21
REMARK   11  A    between atoms: C_21  and  N_22
REMARK   12  A    between atoms: N_22  and  C_23
REMARK   13  A    between atoms: N_22  and  C_27
REMARK   14  A    between atoms: C_23  and  C_24
REMARK   15  A    between atoms: C_24  and  O_25
REMARK   16  A    between atoms: C_27  and  C_28
REMARK   17  A    between atoms: C_28  and  O_29
REMARK   18  A    between atoms: C_44  and  O_45
REMARK                            x       y       z     vdW  Elec       q    Type
REMARK                         _______ _______ _______ _____ _____    ______ ____
ROOT
ATOM      1  C   UNL     1      -8.258  -0.108 125.959  0.00  0.00    +0.000 A 
ATOM      2  C   UNL     1      -8.046   0.301 127.290  0.00  0.00    +0.000 A 
ATOM      3  C   UNL     1      -7.213   1.392 127.579  0.00  0.00    +0.000 A 
ATOM      4  C   UNL     1      -6.715   2.138 126.510  0.00  0.00    +0.000 A 
ATOM      5  O   UNL     1      -5.939   3.241 126.640  0.00  0.00    +0.000 OA
ATOM      6  C   UNL     1      -5.376   3.439 127.854  0.00  0.00    +0.000 A 
ATOM      7  C   UNL     1      -4.260   4.222 127.819  0.00  0.00    +0.000 A 
ATOM      8  C   UNL     1      -3.541   4.382 128.985  0.00  0.00    +0.000 A 
ATOM      9  C   UNL     1      -4.173   4.217 130.224  0.00  0.00    +0.000 A 
ATOM     10  C   UNL     1      -5.256   3.340 130.254  0.00  0.00    +0.000 A 
ATOM     11  C   UNL     1      -5.807   2.875 129.046  0.00  0.00    +0.000 A 
ATOM     12  C   UNL     1      -6.813   1.763 128.991  0.00  0.00    +0.000 C 
ATOM     13  O   UNL     1      -6.149   0.608 129.579  0.00  0.00    +0.000 OA
ATOM     14  C   UNL     1      -6.787   0.154 130.692  0.00  0.00    +0.000 C 
ATOM     15  O   UNL     1      -6.446  -0.778 131.393  0.00  0.00    +0.000 OA
ATOM     16  C   UNL     1      -7.952   1.009 130.884  0.00  0.00    +0.000 A 
ATOM     17  C   UNL     1      -8.925   0.945 131.860  0.00  0.00    +0.000 A 
ATOM     18  C   UNL     1      -9.928   1.917 131.830  0.00  0.00    +0.000 A 
ATOM     19  C   UNL     1      -9.921   2.932 130.858  0.00  0.00    +0.000 A 
ATOM     20  C   UNL     1      -8.929   2.973 129.881  0.00  0.00    +0.000 A 
ATOM     21  C   UNL     1      -7.963   1.981 129.903  0.00  0.00    +0.000 A 
ATOM     22  C   UNL     1      -6.908   1.768 125.200  0.00  0.00    +0.000 A 
ATOM     23  C   UNL     1      -7.558   0.586 124.961  0.00  0.00    +0.000 A 
ENDROOT
BRANCH   8  24
ATOM     24  O   UNL     1      -2.364   5.092 128.887  0.00  0.00    +0.000 OA
ATOM     25  H   UNL     1      -2.404   5.603 128.040  0.00  0.00    +0.000 HD
ENDBRANCH   8  24
BRANCH  23  26
ATOM     26  O   UNL     1      -7.387   0.092 123.706  0.00  0.00    +0.000 OA
ATOM     27  H   UNL     1      -8.031  -0.621 123.547  0.00  0.00    +0.000 HD
ENDBRANCH  23  26
BRANCH   1  28
ATOM     28  C   UNL     1      -9.271  -1.220 125.690  0.00  0.00    +0.000 C 
BRANCH  28  29
ATOM     29  N   UNL     1      -8.819  -2.622 125.944  0.00  0.00    +0.000 NA
BRANCH  29  30
ATOM     30  C   UNL     1      -7.849  -2.633 127.082  0.00  0.00    +0.000 C 
BRANCH  30  31
ATOM     31  C   UNL     1      -8.375  -3.267 128.376  0.00  0.00    +0.000 C 
ATOM     32  O   UNL     1      -9.247  -4.127 128.362  0.00  0.00    +0.000 OA
BRANCH  31  33
ATOM     33  O   UNL     1      -7.702  -2.993 129.513  0.00  0.00    +0.000 OA
ATOM     34  H   UNL     1      -8.277  -3.168 130.300  0.00  0.00    +0.000 HD
ENDBRANCH  31  33
ENDBRANCH  30  31
ENDBRANCH  29  30
BRANCH  29  35
ATOM     35  C   UNL     1      -8.189  -3.202 124.718  0.00  0.00    +0.000 C 
BRANCH  35  36
ATOM     36  C   UNL     1      -9.004  -2.941 123.434  0.00  0.00    +0.000 C 
ATOM     37  O   UNL     1      -8.600  -2.277 122.492  0.00  0.00    +0.000 OA
BRANCH  36  38
ATOM     38  O   UNL     1     -10.199  -3.547 123.332  0.00  0.00    +0.000 OA
ATOM     39  H   UNL     1     -10.286  -4.238 122.656  0.00  0.00    +0.000 HD
ENDBRANCH  36  38
ENDBRANCH  35  36
ENDBRANCH  29  35
ENDBRANCH  28  29
ENDBRANCH   1  28
BRANCH   9  40
ATOM     40  C   UNL     1      -3.798   5.000 131.477  0.00  0.00    +0.000 C 
BRANCH  40  41
ATOM     41  N   UNL     1      -3.330   6.423 131.228  0.00  0.00    +0.000 NA
BRANCH  41  42
ATOM     42  C   UNL     1      -4.443   7.422 130.883  0.00  0.00    +0.000 C 
BRANCH  42  43
ATOM     43  C   UNL     1      -4.160   8.400 129.750  0.00  0.00    +0.000 C 
ATOM     44  O   UNL     1      -3.813   9.585 129.831  0.00  0.00    +0.000 OA
BRANCH  43  45
ATOM     45  O   UNL     1      -4.048   7.725 128.617  0.00  0.00    +0.000 OA
ATOM     46  H   UNL     1      -3.057   7.612 128.646  0.00  0.00    +0.000 HD
ENDBRANCH  43  45
ENDBRANCH  42  43
ENDBRANCH  41  42
BRANCH  41  47
ATOM     47  C   UNL     1      -2.721   6.890 132.535  0.00  0.00    +0.000 C 
BRANCH  47  48
ATOM     48  C   UNL     1      -1.240   7.278 132.438  0.00  0.00    +0.000 C 
ATOM     49  O   UNL     1      -0.762   8.210 133.072  0.00  0.00    +0.000 OA
BRANCH  48  50
ATOM     50  O   UNL     1      -0.479   6.525 131.612  0.00  0.00    +0.000 OA
ATOM     51  H   UNL     1      -1.010   5.915 131.062  0.00  0.00    +0.000 HD
ENDBRANCH  48  50
ENDBRANCH  47  48
ENDBRANCH  41  47
ENDBRANCH  40  41
ENDBRANCH   9  40
TORSDOF 18
ENDMDL
MODEL 8
REMARK VINA RESULT:      -7.8      3.923      7.525
REMARK  Name = Oftasceine
REMARK  18 active torsions:
REMARK  status: ('A' for Active; 'I' for Inactive)
REMARK    1  A    between atoms: O_1  and  C_2
REMARK    2  A    between atoms: C_2  and  C_4
REMARK    3  A    between atoms: C_4  and  N_5
REMARK    4  A    between atoms: N_5  and  C_6
REMARK    5  A    between atoms: N_5  and  C_10
REMARK    6  A    between atoms: C_6  and  C_7
REMARK    7  A    between atoms: C_7  and  O_8
REMARK    8  A    between atoms: C_10  and  C_11
REMARK    9  A    between atoms: C_18  and  O_19
REMARK   10  A    between atoms: C_20  and  C_21
REMARK   11  A    between atoms: C_21  and  N_22
REMARK   12  A    between atoms: N_22  and  C_23
REMARK   13  A    between atoms: N_22  and  C_27
REMARK   14  A    between atoms: C_23  and  C_24
REMARK   15  A    between atoms: C_24  and  O_25
REMARK   16  A    between atoms: C_27  and  C_28
REMARK   17  A    between atoms: C_28  and  O_29
REMARK   18  A    between atoms: C_44  and  O_45
REMARK                            x       y       z     vdW  Elec       q    Type
REMARK                         _______ _______ _______ _____ _____    ______ ____
ROOT
ATOM      1  C   UNL     1      -5.328  -2.910 132.522  0.00  0.00    +0.000 A 
ATOM      2  C   UNL     1      -5.806  -1.704 131.975  0.00  0.00    +0.000 A 
ATOM      3  C   UNL     1      -6.511  -1.698 130.761  0.00  0.00    +0.000 A 
ATOM      4  C   UNL     1      -6.840  -2.928 130.189  0.00  0.00    +0.000 A 
ATOM      5  O   UNL     1      -7.555  -3.074 129.047  0.00  0.00    +0.000 OA
ATOM      6  C   UNL     1      -7.687  -1.972 128.275  0.00  0.00    +0.000 A 
ATOM      7  C   UNL     1      -7.954  -2.249 126.966  0.00  0.00    +0.000 A 
ATOM      8  C   UNL     1      -7.983  -1.198 126.073  0.00  0.00    +0.000 A 
ATOM      9  C   UNL     1      -8.257   0.097 126.526  0.00  0.00    +0.000 A 
ATOM     10  C   UNL     1      -7.891   0.384 127.840  0.00  0.00    +0.000 A 
ATOM     11  C   UNL     1      -7.513  -0.662 128.700  0.00  0.00    +0.000 A 
ATOM     12  C   UNL     1      -6.891  -0.420 130.044  0.00  0.00    +0.000 C 
ATOM     13  O   UNL     1      -5.665   0.318 129.777  0.00  0.00    +0.000 OA
ATOM     14  C   UNL     1      -5.662   1.547 130.363  0.00  0.00    +0.000 C 
ATOM     15  O   UNL     1      -4.781   2.380 130.292  0.00  0.00    +0.000 OA
ATOM     16  C   UNL     1      -6.924   1.669 131.082  0.00  0.00    +0.000 A 
ATOM     17  C   UNL     1      -7.388   2.718 131.850  0.00  0.00    +0.000 A 
ATOM     18  C   UNL     1      -8.661   2.588 132.410  0.00  0.00    +0.000 A 
ATOM     19  C   UNL     1      -9.442   1.444 132.172  0.00  0.00    +0.000 A 
ATOM     20  C   UNL     1      -8.950   0.398 131.396  0.00  0.00    +0.000 A 
ATOM     21  C   UNL     1      -7.672   0.526 130.878  0.00  0.00    +0.000 A 
ATOM     22  C   UNL     1      -6.393  -4.122 130.700  0.00  0.00    +0.000 A 
ATOM     23  C   UNL     1      -5.541  -4.078 131.772  0.00  0.00    +0.000 A 
ENDROOT
BRANCH   8  24
ATOM     24  O   UNL     1      -8.150  -1.528 124.745  0.00  0.00    +0.000 OA
ATOM     25  H   UNL     1      -7.907  -2.483 124.651  0.00  0.00    +0.000 HD
ENDBRANCH   8  24
BRANCH  23  26
ATOM     26  O   UNL     1      -4.846  -5.225 131.990  0.00  0.00    +0.000 OA
ATOM     27  H   UNL     1      -3.946  -5.133 131.629  0.00  0.00    +0.000 HD
ENDBRANCH  23  26
BRANCH   1  28
ATOM     28  C   UNL     1      -4.678  -2.878 133.904  0.00  0.00    +0.000 C 
BRANCH  28  29
ATOM     29  N   UNL     1      -4.869  -4.083 134.769  0.00  0.00    +0.000 NA
BRANCH  29  30
ATOM     30  C   UNL     1      -5.876  -3.777 135.831  0.00  0.00    +0.000 C 
BRANCH  30  31
ATOM     31  C   UNL     1      -7.318  -3.623 135.331  0.00  0.00    +0.000 C 
ATOM     32  O   UNL     1      -7.809  -4.410 134.532  0.00  0.00    +0.000 OA
BRANCH  31  33
ATOM     33  O   UNL     1      -8.090  -2.708 135.954  0.00  0.00    +0.000 OA
ATOM     34  H   UNL     1      -8.447  -3.083 136.799  0.00  0.00    +0.000 HD
ENDBRANCH  31  33
ENDBRANCH  30  31
ENDBRANCH  29  30
BRANCH  29  35
ATOM     35  C   UNL     1      -3.571  -4.496 135.386  0.00  0.00    +0.000 C 
BRANCH  35  36
ATOM     36  C   UNL     1      -2.589  -5.126 134.376  0.00  0.00    +0.000 C 
ATOM     37  O   UNL     1      -2.809  -6.160 133.764  0.00  0.00    +0.000 OA
BRANCH  36  38
ATOM     38  O   UNL     1      -1.461  -4.445 134.111  0.00  0.00    +0.000 OA
ATOM     39  H   UNL     1      -0.643  -4.773 134.516  0.00  0.00    +0.000 HD
ENDBRANCH  36  38
ENDBRANCH  35  36
ENDBRANCH  29  35
ENDBRANCH  28  29
ENDBRANCH   1  28
BRANCH   9  40
ATOM     40  C   UNL     1      -9.000   1.143 125.701  0.00  0.00    +0.000 C 
BRANCH  40  41
ATOM     41  N   UNL     1      -8.442   1.376 124.308  0.00  0.00    +0.000 NA
BRANCH  41  42
ATOM     42  C   UNL     1      -9.494   1.655 123.226  0.00  0.00    +0.000 C 
BRANCH  42  43
ATOM     43  C   UNL     1     -10.314   0.467 122.743  0.00  0.00    +0.000 C 
ATOM     44  O   UNL     1      -9.929  -0.686 122.512  0.00  0.00    +0.000 OA
BRANCH  43  45
ATOM     45  O   UNL     1     -11.600   0.750 122.877  0.00  0.00    +0.000 OA
ATOM     46  H   UNL     1     -11.946  -0.153 122.630  0.00  0.00    +0.000 HD
ENDBRANCH  43  45
ENDBRANCH  42  43
ENDBRANCH  41  42
BRANCH  41  47
ATOM     47  C   UNL     1      -7.587   2.623 124.411  0.00  0.00    +0.000 C 
BRANCH  47  48
ATOM     48  C   UNL     1      -8.002   3.581 125.535  0.00  0.00    +0.000 C 
ATOM     49  O   UNL     1      -7.382   3.667 126.587  0.00  0.00    +0.000 OA
BRANCH  48  50
ATOM     50  O   UNL     1      -9.095   4.341 125.298  0.00  0.00    +0.000 OA
ATOM     51  H   UNL     1      -9.789   4.223 125.976  0.00  0.00    +0.000 HD
ENDBRANCH  48  50
ENDBRANCH  47  48
ENDBRANCH  41  47
ENDBRANCH  40  41
ENDBRANCH   9  40
TORSDOF 18
ENDMDL
MODEL 9
REMARK VINA RESULT:      -7.8      7.107      9.976
REMARK  Name = Oftasceine
REMARK  18 active torsions:
REMARK  status: ('A' for Active; 'I' for Inactive)
REMARK    1  A    between atoms: O_1  and  C_2
REMARK    2  A    between atoms: C_2  and  C_4
REMARK    3  A    between atoms: C_4  and  N_5
REMARK    4  A    between atoms: N_5  and  C_6
REMARK    5  A    between atoms: N_5  and  C_10
REMARK    6  A    between atoms: C_6  and  C_7
REMARK    7  A    between atoms: C_7  and  O_8
REMARK    8  A    between atoms: C_10  and  C_11
REMARK    9  A    between atoms: C_18  and  O_19
REMARK   10  A    between atoms: C_20  and  C_21
REMARK   11  A    between atoms: C_21  and  N_22
REMARK   12  A    between atoms: N_22  and  C_23
REMARK   13  A    between atoms: N_22  and  C_27
REMARK   14  A    between atoms: C_23  and  C_24
REMARK   15  A    between atoms: C_24  and  O_25
REMARK   16  A    between atoms: C_27  and  C_28
REMARK   17  A    between atoms: C_28  and  O_29
REMARK   18  A    between atoms: C_44  and  O_45
REMARK                            x       y       z     vdW  Elec       q    Type
REMARK                         _______ _______ _______ _____ _____    ______ ____
ROOT
ATOM      1  C   UNL     1      -8.207   6.135 131.130  0.00  0.00    +0.000 A 
ATOM      2  C   UNL     1      -6.859   6.388 130.809  0.00  0.00    +0.000 A 
ATOM      3  C   UNL     1      -5.873   6.381 131.807  0.00  0.00    +0.000 A 
ATOM      4  C   UNL     1      -6.244   5.983 133.092  0.00  0.00    +0.000 A 
ATOM      5  O   UNL     1      -5.390   5.884 134.140  0.00  0.00    +0.000 OA
ATOM      6  C   UNL     1      -4.192   6.494 133.998  0.00  0.00    +0.000 A 
ATOM      7  C   UNL     1      -3.589   6.800 135.182  0.00  0.00    +0.000 A 
ATOM      8  C   UNL     1      -2.422   7.534 135.147  0.00  0.00    +0.000 A 
ATOM      9  C   UNL     1      -1.617   7.513 134.002  0.00  0.00    +0.000 A 
ATOM     10  C   UNL     1      -2.270   7.289 132.791  0.00  0.00    +0.000 A 
ATOM     11  C   UNL     1      -3.609   6.858 132.793  0.00  0.00    +0.000 A 
ATOM     12  C   UNL     1      -4.446   6.816 131.548  0.00  0.00    +0.000 C 
ATOM     13  O   UNL     1      -4.486   8.188 131.060  0.00  0.00    +0.000 OA
ATOM     14  C   UNL     1      -3.943   8.310 129.818  0.00  0.00    +0.000 C 
ATOM     15  O   UNL     1      -3.825   9.336 129.177  0.00  0.00    +0.000 OA
ATOM     16  C   UNL     1      -3.524   6.975 129.411  0.00  0.00    +0.000 A 
ATOM     17  C   UNL     1      -2.938   6.571 128.229  0.00  0.00    +0.000 A 
ATOM     18  C   UNL     1      -2.605   5.219 128.107  0.00  0.00    +0.000 A 
ATOM     19  C   UNL     1      -2.836   4.321 129.163  0.00  0.00    +0.000 A 
ATOM     20  C   UNL     1      -3.432   4.753 130.345  0.00  0.00    +0.000 A 
ATOM     21  C   UNL     1      -3.789   6.088 130.436  0.00  0.00    +0.000 A 
ATOM     22  C   UNL     1      -7.549   5.725 133.436  0.00  0.00    +0.000 A 
ATOM     23  C   UNL     1      -8.513   5.936 132.485  0.00  0.00    +0.000 A 
ENDROOT
BRANCH   8  24
ATOM     24  O   UNL     1      -1.900   7.915 136.365  0.00  0.00    +0.000 OA
ATOM     25  H   UNL     1      -1.394   8.753 136.214  0.00  0.00    +0.000 HD
ENDBRANCH   8  24
BRANCH  23  26
ATOM     26  O   UNL     1      -9.777   6.035 132.974  0.00  0.00    +0.000 OA
ATOM     27  H   UNL     1      -9.966   5.267 133.543  0.00  0.00    +0.000 HD
ENDBRANCH  23  26
BRANCH   1  28
ATOM     28  C   UNL     1      -9.221   6.030 129.992  0.00  0.00    +0.000 C 
BRANCH  28  29
ATOM     29  N   UNL     1     -10.370   6.987 130.019  0.00  0.00    +0.000 NA
BRANCH  29  30
ATOM     30  C   UNL     1     -11.651   6.222 130.121  0.00  0.00    +0.000 C 
BRANCH  30  31
ATOM     31  C   UNL     1     -12.904   7.082 130.331  0.00  0.00    +0.000 C 
ATOM     32  O   UNL     1     -13.613   7.424 129.394  0.00  0.00    +0.000 OA
BRANCH  31  33
ATOM     33  O   UNL     1     -13.307   7.278 131.604  0.00  0.00    +0.000 OA
ATOM     34  H   UNL     1     -14.293   7.363 131.639  0.00  0.00    +0.000 HD
ENDBRANCH  31  33
ENDBRANCH  30  31
ENDBRANCH  29  30
BRANCH  29  35
ATOM     35  C   UNL     1     -10.370   7.841 128.791  0.00  0.00    +0.000 C 
BRANCH  35  36
ATOM     36  C   UNL     1     -10.567   7.037 127.490  0.00  0.00    +0.000 C 
ATOM     37  O   UNL     1      -9.673   6.432 126.918  0.00  0.00    +0.000 OA
BRANCH  36  38
ATOM     38  O   UNL     1     -11.819   6.947 127.008  0.00  0.00    +0.000 OA
ATOM     39  H   UNL     1     -12.250   6.079 127.062  0.00  0.00    +0.000 HD
ENDBRANCH  36  38
ENDBRANCH  35  36
ENDBRANCH  29  35
ENDBRANCH  28  29
ENDBRANCH   1  28
BRANCH   9  40
ATOM     40  C   UNL     1      -0.097   7.627 134.033  0.00  0.00    +0.000 C 
BRANCH  40  41
ATOM     41  N   UNL     1       0.437   9.037 134.219  0.00  0.00    +0.000 NA
BRANCH  41  42
ATOM     42  C   UNL     1      -0.607  10.152 134.075  0.00  0.00    +0.000 C 
BRANCH  42  43
ATOM     43  C   UNL     1      -0.438  11.102 132.897  0.00  0.00    +0.000 C 
ATOM     44  O   UNL     1      -1.306  11.775 132.326  0.00  0.00    +0.000 OA
BRANCH  43  45
ATOM     45  O   UNL     1       0.850  11.352 132.728  0.00  0.00    +0.000 OA
ATOM     46  H   UNL     1       0.738  12.196 132.207  0.00  0.00    +0.000 HD
ENDBRANCH  43  45
ENDBRANCH  42  43
ENDBRANCH  41  42
BRANCH  41  47
ATOM     47  C   UNL     1       0.942   9.100 135.647  0.00  0.00    +0.000 C 
BRANCH  47  48
ATOM     48  C   UNL     1       1.282  10.514 136.133  0.00  0.00    +0.000 C 
ATOM     49  O   UNL     1       0.754  11.015 137.118  0.00  0.00    +0.000 OA
BRANCH  48  50
ATOM     50  O   UNL     1       2.212  11.185 135.415  0.00  0.00    +0.000 OA
ATOM     51  H   UNL     1       3.083  11.209 135.858  0.00  0.00    +0.000 HD
ENDBRANCH  48  50
ENDBRANCH  47  48
ENDBRANCH  41  47
ENDBRANCH  40  41
ENDBRANCH   9  40
TORSDOF 18
ENDMDL
