MODEL 1
REMARK VINA RESULT:      -7.3      0.000      0.000
REMARK  Name = Olanzapine
REMARK  2 active torsions:
REMARK  status: ('A' for Active; 'I' for Inactive)
REMARK    1  A    between atoms: C_1  and  N_2
REMARK    2  A    between atoms: C_20  and  C_21
REMARK                            x       y       z     vdW  Elec       q    Type
REMARK                         _______ _______ _______ _____ _____    ______ ____
ROOT
ATOM      1  C   UNL     1      -4.840   1.919 127.820  0.00  0.00    +0.000 C 
ATOM      2  N   UNL     1      -6.226   2.334 127.995  0.00  0.00    +0.000 NA
ATOM      3  C   UNL     1      -6.413   3.752 127.602  0.00  0.00    +0.000 C 
ATOM      4  C   UNL     1      -7.886   4.204 127.756  0.00  0.00    +0.000 C 
ATOM      5  N   UNL     1      -8.301   3.978 129.141  0.00  0.00    +0.000 N 
ATOM      6  C   UNL     1      -8.130   2.590 129.593  0.00  0.00    +0.000 C 
ATOM      7  C   UNL     1      -6.653   2.178 129.406  0.00  0.00    +0.000 C 
ATOM      8  C   UNL     1      -9.180   4.845 129.761  0.00  0.00    +0.000 C 
ATOM      9  N   UNL     1     -10.227   5.325 129.184  0.00  0.00    +0.000 NA
ATOM     10  C   UNL     1     -11.093   6.285 129.754  0.00  0.00    +0.000 A 
ATOM     11  C   UNL     1     -11.658   7.194 128.847  0.00  0.00    +0.000 A 
ATOM     12  C   UNL     1     -12.571   8.167 129.254  0.00  0.00    +0.000 A 
ATOM     13  C   UNL     1     -12.939   8.246 130.592  0.00  0.00    +0.000 A 
ATOM     14  C   UNL     1     -12.395   7.348 131.516  0.00  0.00    +0.000 A 
ATOM     15  C   UNL     1     -11.490   6.343 131.111  0.00  0.00    +0.000 A 
ATOM     16  N   UNL     1     -10.894   5.522 132.105  0.00  0.00    +0.000 N 
ATOM     17  C   UNL     1      -9.538   5.468 132.154  0.00  0.00    +0.000 A 
ATOM     18  C   UNL     1      -8.697   5.207 131.093  0.00  0.00    +0.000 A 
ATOM     19  C   UNL     1      -7.318   5.318 131.484  0.00  0.00    +0.000 A 
ATOM     20  C   UNL     1      -7.154   5.609 132.817  0.00  0.00    +0.000 A 
ATOM     21  C   UNL     1      -5.874   5.783 133.561  0.00  0.00    +0.000 C 
ATOM     22  S   UNL     1      -8.666   5.741 133.605  0.00  0.00    +0.000 S 
ATOM     23  H   UNL     1     -11.416   5.480 132.971  0.00  0.00    +0.000 HD
ENDROOT
TORSDOF 0
ENDMDL
MODEL 2
REMARK VINA RESULT:      -7.1      6.383      8.937
REMARK  Name = Olanzapine
REMARK  2 active torsions:
REMARK  status: ('A' for Active; 'I' for Inactive)
REMARK    1  A    between atoms: C_1  and  N_2
REMARK    2  A    between atoms: C_20  and  C_21
REMARK                            x       y       z     vdW  Elec       q    Type
REMARK                         _______ _______ _______ _____ _____    ______ ____
ROOT
ATOM      1  C   UNL     1      -2.961   4.966 127.473  0.00  0.00    +0.000 C 
ATOM      2  N   UNL     1      -4.070   4.026 127.367  0.00  0.00    +0.000 NA
ATOM      3  C   UNL     1      -3.637   2.758 126.732  0.00  0.00    +0.000 C 
ATOM      4  C   UNL     1      -4.796   1.736 126.635  0.00  0.00    +0.000 C 
ATOM      5  N   UNL     1      -5.898   2.350 125.894  0.00  0.00    +0.000 N 
ATOM      6  C   UNL     1      -6.367   3.618 126.471  0.00  0.00    +0.000 C 
ATOM      7  C   UNL     1      -5.177   4.598 126.564  0.00  0.00    +0.000 C 
ATOM      8  C   UNL     1      -6.694   1.588 125.060  0.00  0.00    +0.000 C 
ATOM      9  N   UNL     1      -7.127   0.415 125.371  0.00  0.00    +0.000 NA
ATOM     10  C   UNL     1      -7.862  -0.428 124.507  0.00  0.00    +0.000 A 
ATOM     11  C   UNL     1      -7.616  -1.801 124.659  0.00  0.00    +0.000 A 
ATOM     12  C   UNL     1      -8.303  -2.758 123.912  0.00  0.00    +0.000 A 
ATOM     13  C   UNL     1      -9.260  -2.351 122.990  0.00  0.00    +0.000 A 
ATOM     14  C   UNL     1      -9.528  -0.989 122.822  0.00  0.00    +0.000 A 
ATOM     15  C   UNL     1      -8.857  -0.013 123.591  0.00  0.00    +0.000 A 
ATOM     16  N   UNL     1      -9.098   1.358 123.311  0.00  0.00    +0.000 N 
ATOM     17  C   UNL     1      -8.029   2.144 123.022  0.00  0.00    +0.000 A 
ATOM     18  C   UNL     1      -6.874   2.251 123.769  0.00  0.00    +0.000 A 
ATOM     19  C   UNL     1      -5.915   3.103 123.123  0.00  0.00    +0.000 A 
ATOM     20  C   UNL     1      -6.376   3.646 121.947  0.00  0.00    +0.000 A 
ATOM     21  C   UNL     1      -5.659   4.576 121.029  0.00  0.00    +0.000 C 
ATOM     22  S   UNL     1      -7.975   3.135 121.624  0.00  0.00    +0.000 S 
ATOM     23  H   UNL     1      -9.976   1.534 122.838  0.00  0.00    +0.000 HD
ENDROOT
TORSDOF 0
ENDMDL
MODEL 3
REMARK VINA RESULT:      -6.9      2.611      3.367
REMARK  Name = Olanzapine
REMARK  2 active torsions:
REMARK  status: ('A' for Active; 'I' for Inactive)
REMARK    1  A    between atoms: C_1  and  N_2
REMARK    2  A    between atoms: C_20  and  C_21
REMARK                            x       y       z     vdW  Elec       q    Type
REMARK                         _______ _______ _______ _____ _____    ______ ____
ROOT
ATOM      1  C   UNL     1      -1.622   6.534 131.602  0.00  0.00    +0.000 C 
ATOM      2  N   UNL     1      -2.900   6.326 130.932  0.00  0.00    +0.000 NA
ATOM      3  C   UNL     1      -3.778   7.512 131.075  0.00  0.00    +0.000 C 
ATOM      4  C   UNL     1      -5.130   7.320 130.345  0.00  0.00    +0.000 C 
ATOM      5  N   UNL     1      -5.775   6.116 130.869  0.00  0.00    +0.000 N 
ATOM      6  C   UNL     1      -4.948   4.906 130.763  0.00  0.00    +0.000 C 
ATOM      7  C   UNL     1      -3.607   5.148 131.488  0.00  0.00    +0.000 C 
ATOM      8  C   UNL     1      -7.151   6.053 130.992  0.00  0.00    +0.000 C 
ATOM      9  N   UNL     1      -7.963   6.490 130.092  0.00  0.00    +0.000 NA
ATOM     10  C   UNL     1      -9.369   6.528 130.225  0.00  0.00    +0.000 A 
ATOM     11  C   UNL     1     -10.000   7.613 129.597  0.00  0.00    +0.000 A 
ATOM     12  C   UNL     1     -11.388   7.757 129.599  0.00  0.00    +0.000 A 
ATOM     13  C   UNL     1     -12.176   6.806 130.236  0.00  0.00    +0.000 A 
ATOM     14  C   UNL     1     -11.572   5.713 130.865  0.00  0.00    +0.000 A 
ATOM     15  C   UNL     1     -10.171   5.543 130.847  0.00  0.00    +0.000 A 
ATOM     16  N   UNL     1      -9.606   4.468 131.584  0.00  0.00    +0.000 N 
ATOM     17  C   UNL     1      -8.657   4.763 132.510  0.00  0.00    +0.000 A 
ATOM     18  C   UNL     1      -7.530   5.530 132.303  0.00  0.00    +0.000 A 
ATOM     19  C   UNL     1      -6.794   5.712 133.524  0.00  0.00    +0.000 A 
ATOM     20  C   UNL     1      -7.349   5.054 134.595  0.00  0.00    +0.000 A 
ATOM     21  C   UNL     1      -6.849   5.013 135.998  0.00  0.00    +0.000 C 
ATOM     22  S   UNL     1      -8.757   4.203 134.128  0.00  0.00    +0.000 S 
ATOM     23  H   UNL     1     -10.252   3.711 131.770  0.00  0.00    +0.000 HD
ENDROOT
TORSDOF 0
ENDMDL
MODEL 4
REMARK VINA RESULT:      -6.9      6.858      8.954
REMARK  Name = Olanzapine
REMARK  2 active torsions:
REMARK  status: ('A' for Active; 'I' for Inactive)
REMARK    1  A    between atoms: C_1  and  N_2
REMARK    2  A    between atoms: C_20  and  C_21
REMARK                            x       y       z     vdW  Elec       q    Type
REMARK                         _______ _______ _______ _____ _____    ______ ____
ROOT
ATOM      1  C   UNL     1      -5.743   4.196 122.896  0.00  0.00    +0.000 C 
ATOM      2  N   UNL     1      -6.466   3.531 123.973  0.00  0.00    +0.000 NA
ATOM      3  C   UNL     1      -5.542   3.097 125.048  0.00  0.00    +0.000 C 
ATOM      4  C   UNL     1      -6.296   2.411 126.215  0.00  0.00    +0.000 C 
ATOM      5  N   UNL     1      -7.055   1.281 125.679  0.00  0.00    +0.000 N 
ATOM      6  C   UNL     1      -7.984   1.648 124.601  0.00  0.00    +0.000 C 
ATOM      7  C   UNL     1      -7.193   2.342 123.470  0.00  0.00    +0.000 C 
ATOM      8  C   UNL     1      -7.219   0.129 126.424  0.00  0.00    +0.000 C 
ATOM      9  N   UNL     1      -7.490   0.133 127.684  0.00  0.00    +0.000 NA
ATOM     10  C   UNL     1      -7.570  -1.022 128.495  0.00  0.00    +0.000 A 
ATOM     11  C   UNL     1      -7.137  -0.854 129.819  0.00  0.00    +0.000 A 
ATOM     12  C   UNL     1      -7.205  -1.890 130.751  0.00  0.00    +0.000 A 
ATOM     13  C   UNL     1      -7.713  -3.126 130.368  0.00  0.00    +0.000 A 
ATOM     14  C   UNL     1      -8.156  -3.318 129.056  0.00  0.00    +0.000 A 
ATOM     15  C   UNL     1      -8.117  -2.269 128.112  0.00  0.00    +0.000 A 
ATOM     16  N   UNL     1      -8.489  -2.547 126.769  0.00  0.00    +0.000 N 
ATOM     17  C   UNL     1      -7.593  -2.258 125.790  0.00  0.00    +0.000 A 
ATOM     18  C   UNL     1      -6.941  -1.056 125.614  0.00  0.00    +0.000 A 
ATOM     19  C   UNL     1      -5.995  -1.130 124.534  0.00  0.00    +0.000 A 
ATOM     20  C   UNL     1      -5.988  -2.351 123.903  0.00  0.00    +0.000 A 
ATOM     21  C   UNL     1      -5.150  -2.774 122.746  0.00  0.00    +0.000 C 
ATOM     22  S   UNL     1      -7.131  -3.411 124.607  0.00  0.00    +0.000 S 
ATOM     23  H   UNL     1      -9.080  -3.362 126.666  0.00  0.00    +0.000 HD
ENDROOT
TORSDOF 0
ENDMDL
MODEL 5
REMARK VINA RESULT:      -6.8      5.999      8.236
REMARK  Name = Olanzapine
REMARK  2 active torsions:
REMARK  status: ('A' for Active; 'I' for Inactive)
REMARK    1  A    between atoms: C_1  and  N_2
REMARK    2  A    between atoms: C_20  and  C_21
REMARK                            x       y       z     vdW  Elec       q    Type
REMARK                         _______ _______ _______ _____ _____    ______ ____
ROOT
ATOM      1  C   UNL     1      -4.321   5.288 127.352  0.00  0.00    +0.000 C 
ATOM      2  N   UNL     1      -4.523   4.086 126.553  0.00  0.00    +0.000 NA
ATOM      3  C   UNL     1      -5.893   4.044 125.986  0.00  0.00    +0.000 C 
ATOM      4  C   UNL     1      -6.117   2.786 125.111  0.00  0.00    +0.000 C 
ATOM      5  N   UNL     1      -5.842   1.600 125.921  0.00  0.00    +0.000 N 
ATOM      6  C   UNL     1      -4.499   1.588 126.519  0.00  0.00    +0.000 C 
ATOM      7  C   UNL     1      -4.314   2.865 127.367  0.00  0.00    +0.000 C 
ATOM      8  C   UNL     1      -6.571   0.440 125.739  0.00  0.00    +0.000 C 
ATOM      9  N   UNL     1      -6.882  -0.026 124.578  0.00  0.00    +0.000 NA
ATOM     10  C   UNL     1      -7.704  -1.153 124.355  0.00  0.00    +0.000 A 
ATOM     11  C   UNL     1      -8.510  -1.089 123.209  0.00  0.00    +0.000 A 
ATOM     12  C   UNL     1      -9.336  -2.148 122.831  0.00  0.00    +0.000 A 
ATOM     13  C   UNL     1      -9.368  -3.302 123.603  0.00  0.00    +0.000 A 
ATOM     14  C   UNL     1      -8.571  -3.394 124.748  0.00  0.00    +0.000 A 
ATOM     15  C   UNL     1      -7.712  -2.340 125.126  0.00  0.00    +0.000 A 
ATOM     16  N   UNL     1      -6.998  -2.447 126.350  0.00  0.00    +0.000 N 
ATOM     17  C   UNL     1      -7.151  -1.453 127.262  0.00  0.00    +0.000 A 
ATOM     18  C   UNL     1      -7.012  -0.102 127.022  0.00  0.00    +0.000 A 
ATOM     19  C   UNL     1      -7.334   0.669 128.192  0.00  0.00    +0.000 A 
ATOM     20  C   UNL     1      -7.657  -0.106 129.280  0.00  0.00    +0.000 A 
ATOM     21  C   UNL     1      -8.028   0.353 130.649  0.00  0.00    +0.000 C 
ATOM     22  S   UNL     1      -7.564  -1.770 128.896  0.00  0.00    +0.000 S 
ATOM     23  H   UNL     1      -6.884  -3.398 126.677  0.00  0.00    +0.000 HD
ENDROOT
TORSDOF 0
ENDMDL
MODEL 6
REMARK VINA RESULT:      -6.8      5.453      8.559
REMARK  Name = Olanzapine
REMARK  2 active torsions:
REMARK  status: ('A' for Active; 'I' for Inactive)
REMARK    1  A    between atoms: C_1  and  N_2
REMARK    2  A    between atoms: C_20  and  C_21
REMARK                            x       y       z     vdW  Elec       q    Type
REMARK                         _______ _______ _______ _____ _____    ______ ____
ROOT
ATOM      1  C   UNL     1      -4.178   4.050 129.584  0.00  0.00    +0.000 C 
ATOM      2  N   UNL     1      -5.189   3.082 129.179  0.00  0.00    +0.000 NA
ATOM      3  C   UNL     1      -4.570   1.904 128.526  0.00  0.00    +0.000 C 
ATOM      4  C   UNL     1      -5.628   0.852 128.112  0.00  0.00    +0.000 C 
ATOM      5  N   UNL     1      -6.605   1.494 127.233  0.00  0.00    +0.000 N 
ATOM      6  C   UNL     1      -7.247   2.676 127.822  0.00  0.00    +0.000 C 
ATOM      7  C   UNL     1      -6.156   3.689 128.234  0.00  0.00    +0.000 C 
ATOM      8  C   UNL     1      -7.183   0.790 126.193  0.00  0.00    +0.000 C 
ATOM      9  N   UNL     1      -7.597  -0.425 126.304  0.00  0.00    +0.000 NA
ATOM     10  C   UNL     1      -8.104  -1.205 125.240  0.00  0.00    +0.000 A 
ATOM     11  C   UNL     1      -7.811  -2.575 125.310  0.00  0.00    +0.000 A 
ATOM     12  C   UNL     1      -8.288  -3.478 124.359  0.00  0.00    +0.000 A 
ATOM     13  C   UNL     1      -9.076  -3.018 123.311  0.00  0.00    +0.000 A 
ATOM     14  C   UNL     1      -9.387  -1.658 123.221  0.00  0.00    +0.000 A 
ATOM     15  C   UNL     1      -8.932  -0.739 124.192  0.00  0.00    +0.000 A 
ATOM     16  N   UNL     1      -9.196   0.643 123.998  0.00  0.00    +0.000 N 
ATOM     17  C   UNL     1      -8.140   1.496 123.996  0.00  0.00    +0.000 A 
ATOM     18  C   UNL     1      -7.155   1.573 124.959  0.00  0.00    +0.000 A 
ATOM     19  C   UNL     1      -6.143   2.524 124.592  0.00  0.00    +0.000 A 
ATOM     20  C   UNL     1      -6.405   3.165 123.404  0.00  0.00    +0.000 A 
ATOM     21  C   UNL     1      -5.584   4.212 122.732  0.00  0.00    +0.000 C 
ATOM     22  S   UNL     1      -7.882   2.626 122.732  0.00  0.00    +0.000 S 
ATOM     23  H   UNL     1      -9.977   0.831 123.383  0.00  0.00    +0.000 HD
ENDROOT
TORSDOF 0
ENDMDL
MODEL 7
REMARK VINA RESULT:      -6.7      6.497      9.377
REMARK  Name = Olanzapine
REMARK  2 active torsions:
REMARK  status: ('A' for Active; 'I' for Inactive)
REMARK    1  A    between atoms: C_1  and  N_2
REMARK    2  A    between atoms: C_20  and  C_21
REMARK                            x       y       z     vdW  Elec       q    Type
REMARK                         _______ _______ _______ _____ _____    ______ ____
ROOT
ATOM      1  C   UNL     1      -7.535   3.481 123.841  0.00  0.00    +0.000 C 
ATOM      2  N   UNL     1      -7.267   2.853 125.128  0.00  0.00    +0.000 NA
ATOM      3  C   UNL     1      -6.038   2.024 125.073  0.00  0.00    +0.000 C 
ATOM      4  C   UNL     1      -5.723   1.369 126.440  0.00  0.00    +0.000 C 
ATOM      5  N   UNL     1      -6.880   0.576 126.856  0.00  0.00    +0.000 N 
ATOM      6  C   UNL     1      -8.132   1.342 126.920  0.00  0.00    +0.000 C 
ATOM      7  C   UNL     1      -8.398   1.989 125.544  0.00  0.00    +0.000 C 
ATOM      8  C   UNL     1      -6.708  -0.604 127.555  0.00  0.00    +0.000 C 
ATOM      9  N   UNL     1      -5.860  -0.741 128.515  0.00  0.00    +0.000 NA
ATOM     10  C   UNL     1      -5.592  -1.956 129.186  0.00  0.00    +0.000 A 
ATOM     11  C   UNL     1      -4.263  -2.127 129.604  0.00  0.00    +0.000 A 
ATOM     12  C   UNL     1      -3.859  -3.252 130.323  0.00  0.00    +0.000 A 
ATOM     13  C   UNL     1      -4.789  -4.235 130.641  0.00  0.00    +0.000 A 
ATOM     14  C   UNL     1      -6.120  -4.086 130.240  0.00  0.00    +0.000 A 
ATOM     15  C   UNL     1      -6.546  -2.939 129.535  0.00  0.00    +0.000 A 
ATOM     16  N   UNL     1      -7.887  -2.886 129.069  0.00  0.00    +0.000 N 
ATOM     17  C   UNL     1      -8.090  -2.676 127.743  0.00  0.00    +0.000 A 
ATOM     18  C   UNL     1      -7.533  -1.668 126.985  0.00  0.00    +0.000 A 
ATOM     19  C   UNL     1      -7.892  -1.800 125.600  0.00  0.00    +0.000 A 
ATOM     20  C   UNL     1      -8.733  -2.860 125.356  0.00  0.00    +0.000 A 
ATOM     21  C   UNL     1      -9.310  -3.284 124.049  0.00  0.00    +0.000 C 
ATOM     22  S   UNL     1      -9.101  -3.694 126.803  0.00  0.00    +0.000 S 
ATOM     23  H   UNL     1      -8.522  -3.494 129.571  0.00  0.00    +0.000 HD
ENDROOT
TORSDOF 0
ENDMDL
MODEL 8
REMARK VINA RESULT:      -6.5      3.983      7.212
REMARK  Name = Olanzapine
REMARK  2 active torsions:
REMARK  status: ('A' for Active; 'I' for Inactive)
REMARK    1  A    between atoms: C_1  and  N_2
REMARK    2  A    between atoms: C_20  and  C_21
REMARK                            x       y       z     vdW  Elec       q    Type
REMARK                         _______ _______ _______ _____ _____    ______ ____
ROOT
ATOM      1  C   UNL     1      -6.034   5.631 125.101  0.00  0.00    +0.000 C 
ATOM      2  N   UNL     1      -5.892   4.207 125.375  0.00  0.00    +0.000 NA
ATOM      3  C   UNL     1      -7.088   3.454 124.927  0.00  0.00    +0.000 C 
ATOM      4  C   UNL     1      -6.944   1.934 125.186  0.00  0.00    +0.000 C 
ATOM      5  N   UNL     1      -6.688   1.726 126.612  0.00  0.00    +0.000 N 
ATOM      6  C   UNL     1      -5.518   2.456 127.118  0.00  0.00    +0.000 C 
ATOM      7  C   UNL     1      -5.697   3.962 126.824  0.00  0.00    +0.000 C 
ATOM      8  C   UNL     1      -7.195   0.616 127.261  0.00  0.00    +0.000 C 
ATOM      9  N   UNL     1      -7.181  -0.568 126.754  0.00  0.00    +0.000 NA
ATOM     10  C   UNL     1      -7.773  -1.706 127.347  0.00  0.00    +0.000 A 
ATOM     11  C   UNL     1      -8.314  -2.637 126.447  0.00  0.00    +0.000 A 
ATOM     12  C   UNL     1      -8.886  -3.832 126.882  0.00  0.00    +0.000 A 
ATOM     13  C   UNL     1      -8.925  -4.120 128.241  0.00  0.00    +0.000 A 
ATOM     14  C   UNL     1      -8.388  -3.212 129.159  0.00  0.00    +0.000 A 
ATOM     15  C   UNL     1      -7.784  -2.011 128.728  0.00  0.00    +0.000 A 
ATOM     16  N   UNL     1      -7.343  -1.082 129.708  0.00  0.00    +0.000 N 
ATOM     17  C   UNL     1      -7.823   0.187 129.640  0.00  0.00    +0.000 A 
ATOM     18  C   UNL     1      -7.823   0.997 128.524  0.00  0.00    +0.000 A 
ATOM     19  C   UNL     1      -8.492   2.242 128.787  0.00  0.00    +0.000 A 
ATOM     20  C   UNL     1      -8.933   2.359 130.083  0.00  0.00    +0.000 A 
ATOM     21  C   UNL     1      -9.649   3.509 130.703  0.00  0.00    +0.000 C 
ATOM     22  S   UNL     1      -8.531   0.967 130.993  0.00  0.00    +0.000 S 
ATOM     23  H   UNL     1      -7.172  -1.492 130.617  0.00  0.00    +0.000 HD
ENDROOT
TORSDOF 0
ENDMDL
MODEL 9
REMARK VINA RESULT:      -6.5      2.290      4.510
REMARK  Name = Olanzapine
REMARK  2 active torsions:
REMARK  status: ('A' for Active; 'I' for Inactive)
REMARK    1  A    between atoms: C_1  and  N_2
REMARK    2  A    between atoms: C_20  and  C_21
REMARK                            x       y       z     vdW  Elec       q    Type
REMARK                         _______ _______ _______ _____ _____    ______ ____
ROOT
ATOM      1  C   UNL     1      -4.686   3.990 135.748  0.00  0.00    +0.000 C 
ATOM      2  N   UNL     1      -5.535   4.884 134.970  0.00  0.00    +0.000 NA
ATOM      3  C   UNL     1      -6.970   4.633 135.248  0.00  0.00    +0.000 C 
ATOM      4  C   UNL     1      -7.888   5.592 134.450  0.00  0.00    +0.000 C 
ATOM      5  N   UNL     1      -7.589   5.445 133.025  0.00  0.00    +0.000 N 
ATOM      6  C   UNL     1      -6.177   5.673 132.688  0.00  0.00    +0.000 C 
ATOM      7  C   UNL     1      -5.300   4.709 133.517  0.00  0.00    +0.000 C 
ATOM      8  C   UNL     1      -8.593   5.559 132.082  0.00  0.00    +0.000 C 
ATOM      9  N   UNL     1      -9.510   6.462 132.129  0.00  0.00    +0.000 NA
ATOM     10  C   UNL     1     -10.603   6.549 131.238  0.00  0.00    +0.000 A 
ATOM     11  C   UNL     1     -11.798   7.024 131.800  0.00  0.00    +0.000 A 
ATOM     12  C   UNL     1     -12.947   7.212 131.033  0.00  0.00    +0.000 A 
ATOM     13  C   UNL     1     -12.920   6.925 129.673  0.00  0.00    +0.000 A 
ATOM     14  C   UNL     1     -11.740   6.455 129.087  0.00  0.00    +0.000 A 
ATOM     15  C   UNL     1     -10.564   6.286 129.849  0.00  0.00    +0.000 A 
ATOM     16  N   UNL     1      -9.424   5.714 129.222  0.00  0.00    +0.000 N 
ATOM     17  C   UNL     1      -8.877   4.608 129.790  0.00  0.00    +0.000 A 
ATOM     18  C   UNL     1      -8.520   4.466 131.114  0.00  0.00    +0.000 A 
ATOM     19  C   UNL     1      -8.057   3.133 131.387  0.00  0.00    +0.000 A 
ATOM     20  C   UNL     1      -8.033   2.328 130.274  0.00  0.00    +0.000 A 
ATOM     21  C   UNL     1      -7.602   0.904 130.187  0.00  0.00    +0.000 C 
ATOM     22  S   UNL     1      -8.562   3.182 128.890  0.00  0.00    +0.000 S 
ATOM     23  H   UNL     1      -9.422   5.798 128.214  0.00  0.00    +0.000 HD
ENDROOT
TORSDOF 0
ENDMDL
