MODEL 1
REMARK VINA RESULT:     -10.5      0.000      0.000
REMARK  Name = Olaparib
REMARK  4 active torsions:
REMARK  status: ('A' for Active; 'I' for Inactive)
REMARK    1  A    between atoms: C_5  and  C_6
REMARK    2  A    between atoms: C_6  and  C_7
REMARK    3  A    between atoms: C_19  and  C_20
REMARK    4  A    between atoms: C_28  and  C_30
REMARK                            x       y       z     vdW  Elec       q    Type
REMARK                         _______ _______ _______ _____ _____    ______ ____
ROOT
ATOM      1  F   UNL     1     -10.416   0.765 122.219  0.00  0.00    +0.000 F 
ATOM      2  C   UNL     1      -9.489   0.143 122.918  0.00  0.00    +0.000 A 
ATOM      3  C   UNL     1      -9.387  -1.208 122.616  0.00  0.00    +0.000 A 
ATOM      4  C   UNL     1      -8.393  -1.956 123.198  0.00  0.00    +0.000 A 
ATOM      5  C   UNL     1      -7.506  -1.333 124.082  0.00  0.00    +0.000 A 
ATOM      6  C   UNL     1      -7.640   0.052 124.366  0.00  0.00    +0.000 A 
ATOM      7  C   UNL     1      -8.667   0.812 123.815  0.00  0.00    +0.000 A 
ENDROOT
BRANCH   7   8
ATOM      8  C   UNL     1      -8.741   2.291 124.117  0.00  0.00    +0.000 C 
ATOM      9  O   UNL     1      -9.351   2.687 125.106  0.00  0.00    +0.000 OA
ATOM     10  N   UNL     1      -8.021   3.157 123.318  0.00  0.00    +0.000 N 
ATOM     11  C   UNL     1      -7.109   4.181 123.847  0.00  0.00    +0.000 C 
ATOM     12  C   UNL     1      -5.758   4.079 123.091  0.00  0.00    +0.000 C 
ATOM     13  N   UNL     1      -5.990   4.197 121.630  0.00  0.00    +0.000 N 
ATOM     14  C   UNL     1      -6.959   3.256 121.130  0.00  0.00    +0.000 C 
ATOM     15  C   UNL     1      -8.263   3.275 121.902  0.00  0.00    +0.000 C 
ATOM     16  C   UNL     1      -5.216   5.026 120.828  0.00  0.00    +0.000 C 
ATOM     17  O   UNL     1      -4.392   5.789 121.305  0.00  0.00    +0.000 OA
BRANCH  16  18
ATOM     18  C   UNL     1      -5.387   5.047 119.321  0.00  0.00    +0.000 C 
ATOM     19  C   UNL     1      -6.651   5.005 118.491  0.00  0.00    +0.000 C 
ATOM     20  C   UNL     1      -5.892   6.306 118.638  0.00  0.00    +0.000 C 
ENDBRANCH  16  18
ENDBRANCH   7   8
BRANCH   5  21
ATOM     21  C   UNL     1      -6.433  -2.205 124.695  0.00  0.00    +0.000 C 
BRANCH  21  22
ATOM     22  C   UNL     1      -6.256  -1.975 126.183  0.00  0.00    +0.000 A 
ATOM     23  N   UNL     1      -5.259  -1.222 126.549  0.00  0.00    +0.000 NA
ATOM     24  N   UNL     1      -4.947  -1.163 127.867  0.00  0.00    +0.000 N 
ATOM     25  C   UNL     1      -5.583  -1.844 128.875  0.00  0.00    +0.000 A 
ATOM     26  O   UNL     1      -5.206  -1.802 130.040  0.00  0.00    +0.000 OA
ATOM     27  C   UNL     1      -6.786  -2.599 128.482  0.00  0.00    +0.000 A 
ATOM     28  C   UNL     1      -7.590  -3.201 129.453  0.00  0.00    +0.000 A 
ATOM     29  C   UNL     1      -8.778  -3.829 129.079  0.00  0.00    +0.000 A 
ATOM     30  C   UNL     1      -9.153  -3.873 127.738  0.00  0.00    +0.000 A 
ATOM     31  C   UNL     1      -8.334  -3.301 126.766  0.00  0.00    +0.000 A 
ATOM     32  C   UNL     1      -7.148  -2.658 127.139  0.00  0.00    +0.000 A 
ATOM     33  H   UNL     1      -4.103  -0.650 128.109  0.00  0.00    +0.000 HD
ENDBRANCH  21  22
ENDBRANCH   5  21
TORSDOF 4
ENDMDL
MODEL 2
REMARK VINA RESULT:     -10.0      3.173      5.577
REMARK  Name = Olaparib
REMARK  4 active torsions:
REMARK  status: ('A' for Active; 'I' for Inactive)
REMARK    1  A    between atoms: C_5  and  C_6
REMARK    2  A    between atoms: C_6  and  C_7
REMARK    3  A    between atoms: C_19  and  C_20
REMARK    4  A    between atoms: C_28  and  C_30
REMARK                            x       y       z     vdW  Elec       q    Type
REMARK                         _______ _______ _______ _____ _____    ______ ____
ROOT
ATOM      1  F   UNL     1      -7.795  -3.228 126.694  0.00  0.00    +0.000 F 
ATOM      2  C   UNL     1      -7.933  -1.980 127.089  0.00  0.00    +0.000 A 
ATOM      3  C   UNL     1      -7.464  -1.754 128.376  0.00  0.00    +0.000 A 
ATOM      4  C   UNL     1      -7.454  -0.475 128.875  0.00  0.00    +0.000 A 
ATOM      5  C   UNL     1      -7.918   0.571 128.071  0.00  0.00    +0.000 A 
ATOM      6  C   UNL     1      -8.388   0.303 126.758  0.00  0.00    +0.000 A 
ATOM      7  C   UNL     1      -8.442  -0.993 126.254  0.00  0.00    +0.000 A 
ENDROOT
BRANCH   7   8
ATOM      8  C   UNL     1      -8.913  -1.220 124.836  0.00  0.00    +0.000 C 
ATOM      9  O   UNL     1      -9.601  -2.200 124.566  0.00  0.00    +0.000 OA
ATOM     10  N   UNL     1      -8.640  -0.247 123.894  0.00  0.00    +0.000 N 
ATOM     11  C   UNL     1      -9.658   0.331 123.007  0.00  0.00    +0.000 C 
ATOM     12  C   UNL     1      -9.538   1.877 123.057  0.00  0.00    +0.000 C 
ATOM     13  N   UNL     1      -8.154   2.285 122.708  0.00  0.00    +0.000 N 
ATOM     14  C   UNL     1      -7.150   1.640 123.516  0.00  0.00    +0.000 C 
ATOM     15  C   UNL     1      -7.292   0.131 123.552  0.00  0.00    +0.000 C 
ATOM     16  C   UNL     1      -7.895   3.308 121.805  0.00  0.00    +0.000 C 
ATOM     17  O   UNL     1      -8.789   3.835 121.163  0.00  0.00    +0.000 OA
BRANCH  16  18
ATOM     18  C   UNL     1      -6.481   3.792 121.548  0.00  0.00    +0.000 C 
ATOM     19  C   UNL     1      -5.373   3.156 120.738  0.00  0.00    +0.000 C 
ATOM     20  C   UNL     1      -6.113   4.355 120.187  0.00  0.00    +0.000 C 
ENDBRANCH  16  18
ENDBRANCH   7   8
BRANCH   5  21
ATOM     21  C   UNL     1      -7.885   1.957 128.673  0.00  0.00    +0.000 C 
BRANCH  21  22
ATOM     22  C   UNL     1      -7.340   3.007 127.724  0.00  0.00    +0.000 A 
ATOM     23  N   UNL     1      -8.207   3.774 127.129  0.00  0.00    +0.000 NA
ATOM     24  N   UNL     1      -7.777   4.578 126.127  0.00  0.00    +0.000 N 
ATOM     25  C   UNL     1      -6.489   4.656 125.657  0.00  0.00    +0.000 A 
ATOM     26  O   UNL     1      -6.179   5.353 124.698  0.00  0.00    +0.000 OA
ATOM     27  C   UNL     1      -5.483   3.884 126.406  0.00  0.00    +0.000 A 
ATOM     28  C   UNL     1      -4.125   4.014 126.103  0.00  0.00    +0.000 A 
ATOM     29  C   UNL     1      -3.174   3.354 126.881  0.00  0.00    +0.000 A 
ATOM     30  C   UNL     1      -3.577   2.552 127.947  0.00  0.00    +0.000 A 
ATOM     31  C   UNL     1      -4.933   2.397 128.228  0.00  0.00    +0.000 A 
ATOM     32  C   UNL     1      -5.890   3.068 127.457  0.00  0.00    +0.000 A 
ATOM     33  H   UNL     1      -8.494   5.086 125.616  0.00  0.00    +0.000 HD
ENDBRANCH  21  22
ENDBRANCH   5  21
TORSDOF 4
ENDMDL
MODEL 3
REMARK VINA RESULT:      -9.9      2.056      8.885
REMARK  Name = Olaparib
REMARK  4 active torsions:
REMARK  status: ('A' for Active; 'I' for Inactive)
REMARK    1  A    between atoms: C_5  and  C_6
REMARK    2  A    between atoms: C_6  and  C_7
REMARK    3  A    between atoms: C_19  and  C_20
REMARK    4  A    between atoms: C_28  and  C_30
REMARK                            x       y       z     vdW  Elec       q    Type
REMARK                         _______ _______ _______ _____ _____    ______ ____
ROOT
ATOM      1  F   UNL     1      -9.302  -2.798 122.787  0.00  0.00    +0.000 F 
ATOM      2  C   UNL     1      -9.052  -1.507 122.860  0.00  0.00    +0.000 A 
ATOM      3  C   UNL     1     -10.130  -0.715 122.492  0.00  0.00    +0.000 A 
ATOM      4  C   UNL     1     -10.039   0.649 122.618  0.00  0.00    +0.000 A 
ATOM      5  C   UNL     1      -8.858   1.206 123.117  0.00  0.00    +0.000 A 
ATOM      6  C   UNL     1      -7.775   0.364 123.486  0.00  0.00    +0.000 A 
ATOM      7  C   UNL     1      -7.838  -1.017 123.325  0.00  0.00    +0.000 A 
ENDROOT
BRANCH   7   8
ATOM      8  C   UNL     1      -6.674  -1.871 123.772  0.00  0.00    +0.000 C 
ATOM      9  O   UNL     1      -5.868  -2.290 122.947  0.00  0.00    +0.000 OA
ATOM     10  N   UNL     1      -6.492  -2.069 125.126  0.00  0.00    +0.000 N 
ATOM     11  C   UNL     1      -5.212  -1.847 125.813  0.00  0.00    +0.000 C 
ATOM     12  C   UNL     1      -5.470  -0.981 127.073  0.00  0.00    +0.000 C 
ATOM     13  N   UNL     1      -6.491  -1.632 127.930  0.00  0.00    +0.000 N 
ATOM     14  C   UNL     1      -7.711  -1.939 127.228  0.00  0.00    +0.000 C 
ATOM     15  C   UNL     1      -7.483  -2.716 125.947  0.00  0.00    +0.000 C 
ATOM     16  C   UNL     1      -6.321  -1.769 129.302  0.00  0.00    +0.000 C 
ATOM     17  O   UNL     1      -5.271  -1.471 129.848  0.00  0.00    +0.000 OA
BRANCH  16  18
ATOM     18  C   UNL     1      -7.423  -2.330 130.180  0.00  0.00    +0.000 C 
ATOM     19  C   UNL     1      -7.344  -2.925 131.568  0.00  0.00    +0.000 C 
ATOM     20  C   UNL     1      -7.909  -1.534 131.379  0.00  0.00    +0.000 C 
ENDBRANCH  16  18
ENDBRANCH   7   8
BRANCH   5  21
ATOM     21  C   UNL     1      -8.812   2.713 123.234  0.00  0.00    +0.000 C 
BRANCH  21  22
ATOM     22  C   UNL     1      -8.319   3.394 121.972  0.00  0.00    +0.000 A 
ATOM     23  N   UNL     1      -9.161   3.488 120.984  0.00  0.00    +0.000 NA
ATOM     24  N   UNL     1      -8.698   3.900 119.778  0.00  0.00    +0.000 N 
ATOM     25  C   UNL     1      -7.396   4.223 119.486  0.00  0.00    +0.000 A 
ATOM     26  O   UNL     1      -7.028   4.521 118.356  0.00  0.00    +0.000 OA
ATOM     27  C   UNL     1      -6.465   4.238 120.628  0.00  0.00    +0.000 A 
ATOM     28  C   UNL     1      -5.156   4.698 120.466  0.00  0.00    +0.000 A 
ATOM     29  C   UNL     1      -4.313   4.800 121.573  0.00  0.00    +0.000 A 
ATOM     30  C   UNL     1      -4.769   4.425 122.835  0.00  0.00    +0.000 A 
ATOM     31  C   UNL     1      -6.064   3.935 122.991  0.00  0.00    +0.000 A 
ATOM     32  C   UNL     1      -6.917   3.844 121.884  0.00  0.00    +0.000 A 
ATOM     33  H   UNL     1      -9.356   3.864 119.004  0.00  0.00    +0.000 HD
ENDBRANCH  21  22
ENDBRANCH   5  21
TORSDOF 4
ENDMDL
MODEL 4
REMARK VINA RESULT:      -9.8      2.932      5.290
REMARK  Name = Olaparib
REMARK  4 active torsions:
REMARK  status: ('A' for Active; 'I' for Inactive)
REMARK    1  A    between atoms: C_5  and  C_6
REMARK    2  A    between atoms: C_6  and  C_7
REMARK    3  A    between atoms: C_19  and  C_20
REMARK    4  A    between atoms: C_28  and  C_30
REMARK                            x       y       z     vdW  Elec       q    Type
REMARK                         _______ _______ _______ _____ _____    ______ ____
ROOT
ATOM      1  F   UNL     1      -8.568  -3.887 126.467  0.00  0.00    +0.000 F 
ATOM      2  C   UNL     1      -8.373  -2.649 126.872  0.00  0.00    +0.000 A 
ATOM      3  C   UNL     1      -7.897  -2.563 128.174  0.00  0.00    +0.000 A 
ATOM      4  C   UNL     1      -7.555  -1.337 128.687  0.00  0.00    +0.000 A 
ATOM      5  C   UNL     1      -7.694  -0.202 127.883  0.00  0.00    +0.000 A 
ATOM      6  C   UNL     1      -8.182  -0.327 126.555  0.00  0.00    +0.000 A 
ATOM      7  C   UNL     1      -8.571  -1.558 126.035  0.00  0.00    +0.000 A 
ENDROOT
BRANCH   7   8
ATOM      8  C   UNL     1      -9.045  -1.644 124.602  0.00  0.00    +0.000 C 
ATOM      9  O   UNL     1      -9.750  -2.583 124.243  0.00  0.00    +0.000 OA
ATOM     10  N   UNL     1      -8.754  -0.593 123.755  0.00  0.00    +0.000 N 
ATOM     11  C   UNL     1      -9.761   0.083 122.926  0.00  0.00    +0.000 C 
ATOM     12  C   UNL     1      -9.614   1.615 123.120  0.00  0.00    +0.000 C 
ATOM     13  N   UNL     1      -8.224   2.030 122.809  0.00  0.00    +0.000 N 
ATOM     14  C   UNL     1      -7.232   1.295 123.553  0.00  0.00    +0.000 C 
ATOM     15  C   UNL     1      -7.400  -0.208 123.448  0.00  0.00    +0.000 C 
ATOM     16  C   UNL     1      -7.946   3.128 122.005  0.00  0.00    +0.000 C 
ATOM     17  O   UNL     1      -8.830   3.728 121.416  0.00  0.00    +0.000 OA
BRANCH  16  18
ATOM     18  C   UNL     1      -6.523   3.609 121.793  0.00  0.00    +0.000 C 
ATOM     19  C   UNL     1      -5.413   3.006 120.962  0.00  0.00    +0.000 C 
ATOM     20  C   UNL     1      -6.132   4.243 120.470  0.00  0.00    +0.000 C 
ENDBRANCH  16  18
ENDBRANCH   7   8
BRANCH   5  21
ATOM     21  C   UNL     1      -7.304   1.122 128.501  0.00  0.00    +0.000 C 
BRANCH  21  22
ATOM     22  C   UNL     1      -6.144   1.792 127.792  0.00  0.00    +0.000 A 
ATOM     23  N   UNL     1      -4.951   1.338 128.051  0.00  0.00    +0.000 NA
ATOM     24  N   UNL     1      -3.882   2.039 127.601  0.00  0.00    +0.000 N 
ATOM     25  C   UNL     1      -3.933   3.215 126.893  0.00  0.00    +0.000 A 
ATOM     26  O   UNL     1      -2.926   3.837 126.577  0.00  0.00    +0.000 OA
ATOM     27  C   UNL     1      -5.276   3.667 126.492  0.00  0.00    +0.000 A 
ATOM     28  C   UNL     1      -5.427   4.766 125.643  0.00  0.00    +0.000 A 
ATOM     29  C   UNL     1      -6.696   5.126 125.191  0.00  0.00    +0.000 A 
ATOM     30  C   UNL     1      -7.815   4.402 125.599  0.00  0.00    +0.000 A 
ATOM     31  C   UNL     1      -7.668   3.326 126.471  0.00  0.00    +0.000 A 
ATOM     32  C   UNL     1      -6.393   2.953 126.917  0.00  0.00    +0.000 A 
ATOM     33  H   UNL     1      -2.968   1.716 127.907  0.00  0.00    +0.000 HD
ENDBRANCH  21  22
ENDBRANCH   5  21
TORSDOF 4
ENDMDL
MODEL 5
REMARK VINA RESULT:      -9.6      3.365      4.412
REMARK  Name = Olaparib
REMARK  4 active torsions:
REMARK  status: ('A' for Active; 'I' for Inactive)
REMARK    1  A    between atoms: C_5  and  C_6
REMARK    2  A    between atoms: C_6  and  C_7
REMARK    3  A    between atoms: C_19  and  C_20
REMARK    4  A    between atoms: C_28  and  C_30
REMARK                            x       y       z     vdW  Elec       q    Type
REMARK                         _______ _______ _______ _____ _____    ______ ____
ROOT
ATOM      1  F   UNL     1      -8.914  -2.508 122.902  0.00  0.00    +0.000 F 
ATOM      2  C   UNL     1      -8.816  -2.428 124.213  0.00  0.00    +0.000 A 
ATOM      3  C   UNL     1      -8.609  -3.655 124.827  0.00  0.00    +0.000 A 
ATOM      4  C   UNL     1      -8.388  -3.704 126.181  0.00  0.00    +0.000 A 
ATOM      5  C   UNL     1      -8.375  -2.510 126.909  0.00  0.00    +0.000 A 
ATOM      6  C   UNL     1      -8.589  -1.272 126.247  0.00  0.00    +0.000 A 
ATOM      7  C   UNL     1      -8.855  -1.211 124.883  0.00  0.00    +0.000 A 
ENDROOT
BRANCH   7   8
ATOM      8  C   UNL     1      -9.034   0.135 124.219  0.00  0.00    +0.000 C 
ATOM      9  O   UNL     1      -9.986   0.329 123.469  0.00  0.00    +0.000 OA
ATOM     10  N   UNL     1      -8.167   1.153 124.565  0.00  0.00    +0.000 N 
ATOM     11  C   UNL     1      -8.611   2.491 124.978  0.00  0.00    +0.000 C 
ATOM     12  C   UNL     1      -7.868   2.878 126.283  0.00  0.00    +0.000 C 
ATOM     13  N   UNL     1      -6.402   2.785 126.074  0.00  0.00    +0.000 N 
ATOM     14  C   UNL     1      -5.980   1.501 125.573  0.00  0.00    +0.000 C 
ATOM     15  C   UNL     1      -6.746   1.058 124.343  0.00  0.00    +0.000 C 
ATOM     16  C   UNL     1      -5.535   3.790 126.483  0.00  0.00    +0.000 C 
ATOM     17  O   UNL     1      -5.949   4.851 126.920  0.00  0.00    +0.000 OA
BRANCH  16  18
ATOM     18  C   UNL     1      -4.031   3.628 126.368  0.00  0.00    +0.000 C 
ATOM     19  C   UNL     1      -2.923   4.341 127.110  0.00  0.00    +0.000 C 
ATOM     20  C   UNL     1      -3.266   2.911 127.466  0.00  0.00    +0.000 C 
ENDBRANCH  16  18
ENDBRANCH   7   8
BRANCH   5  21
ATOM     21  C   UNL     1      -8.129  -2.623 128.397  0.00  0.00    +0.000 C 
BRANCH  21  22
ATOM     22  C   UNL     1      -6.657  -2.681 128.754  0.00  0.00    +0.000 A 
ATOM     23  N   UNL     1      -5.808  -2.370 127.817  0.00  0.00    +0.000 NA
ATOM     24  N   UNL     1      -4.492  -2.608 128.034  0.00  0.00    +0.000 N 
ATOM     25  C   UNL     1      -3.953  -3.170 129.165  0.00  0.00    +0.000 A 
ATOM     26  O   UNL     1      -2.759  -3.424 129.269  0.00  0.00    +0.000 OA
ATOM     27  C   UNL     1      -4.892  -3.410 130.275  0.00  0.00    +0.000 A 
ATOM     28  C   UNL     1      -4.420  -3.836 131.518  0.00  0.00    +0.000 A 
ATOM     29  C   UNL     1      -5.305  -3.965 132.589  0.00  0.00    +0.000 A 
ATOM     30  C   UNL     1      -6.659  -3.688 132.415  0.00  0.00    +0.000 A 
ATOM     31  C   UNL     1      -7.134  -3.294 131.165  0.00  0.00    +0.000 A 
ATOM     32  C   UNL     1      -6.247  -3.151 130.091  0.00  0.00    +0.000 A 
ATOM     33  H   UNL     1      -3.868  -2.451 127.246  0.00  0.00    +0.000 HD
ENDBRANCH  21  22
ENDBRANCH   5  21
TORSDOF 4
ENDMDL
MODEL 6
REMARK VINA RESULT:      -9.6      2.853      4.388
REMARK  Name = Olaparib
REMARK  4 active torsions:
REMARK  status: ('A' for Active; 'I' for Inactive)
REMARK    1  A    between atoms: C_5  and  C_6
REMARK    2  A    between atoms: C_6  and  C_7
REMARK    3  A    between atoms: C_19  and  C_20
REMARK    4  A    between atoms: C_28  and  C_30
REMARK                            x       y       z     vdW  Elec       q    Type
REMARK                         _______ _______ _______ _____ _____    ______ ____
ROOT
ATOM      1  F   UNL     1      -8.482   1.028 126.428  0.00  0.00    +0.000 F 
ATOM      2  C   UNL     1      -8.207  -0.136 126.979  0.00  0.00    +0.000 A 
ATOM      3  C   UNL     1      -7.759  -0.033 128.289  0.00  0.00    +0.000 A 
ATOM      4  C   UNL     1      -7.533  -1.176 129.016  0.00  0.00    +0.000 A 
ATOM      5  C   UNL     1      -7.763  -2.418 128.416  0.00  0.00    +0.000 A 
ATOM      6  C   UNL     1      -8.223  -2.485 127.074  0.00  0.00    +0.000 A 
ATOM      7  C   UNL     1      -8.418  -1.337 126.312  0.00  0.00    +0.000 A 
ENDROOT
BRANCH   7   8
ATOM      8  C   UNL     1      -8.948  -1.461 124.903  0.00  0.00    +0.000 C 
ATOM      9  O   UNL     1      -9.762  -2.338 124.627  0.00  0.00    +0.000 OA
ATOM     10  N   UNL     1      -8.577  -0.504 123.979  0.00  0.00    +0.000 N 
ATOM     11  C   UNL     1      -9.535   0.224 123.136  0.00  0.00    +0.000 C 
ATOM     12  C   UNL     1      -9.217   1.740 123.222  0.00  0.00    +0.000 C 
ATOM     13  N   UNL     1      -7.802   1.979 122.845  0.00  0.00    +0.000 N 
ATOM     14  C   UNL     1      -6.869   1.189 123.607  0.00  0.00    +0.000 C 
ATOM     15  C   UNL     1      -7.201  -0.290 123.608  0.00  0.00    +0.000 C 
ATOM     16  C   UNL     1      -7.437   2.987 121.961  0.00  0.00    +0.000 C 
ATOM     17  O   UNL     1      -8.272   3.641 121.358  0.00  0.00    +0.000 OA
BRANCH  16  18
ATOM     18  C   UNL     1      -5.979   3.295 121.676  0.00  0.00    +0.000 C 
ATOM     19  C   UNL     1      -5.361   4.483 120.974  0.00  0.00    +0.000 C 
ATOM     20  C   UNL     1      -5.266   4.368 122.480  0.00  0.00    +0.000 C 
ENDBRANCH  16  18
ENDBRANCH   7   8
BRANCH   5  21
ATOM     21  C   UNL     1      -7.496  -3.642 129.262  0.00  0.00    +0.000 C 
BRANCH  21  22
ATOM     22  C   UNL     1      -6.283  -3.494 130.159  0.00  0.00    +0.000 A 
ATOM     23  N   UNL     1      -5.115  -3.638 129.601  0.00  0.00    +0.000 NA
ATOM     24  N   UNL     1      -4.024  -3.717 130.402  0.00  0.00    +0.000 N 
ATOM     25  C   UNL     1      -4.029  -3.674 131.774  0.00  0.00    +0.000 A 
ATOM     26  O   UNL     1      -3.013  -3.823 132.442  0.00  0.00    +0.000 OA
ATOM     27  C   UNL     1      -5.330  -3.389 132.404  0.00  0.00    +0.000 A 
ATOM     28  C   UNL     1      -5.415  -3.174 133.781  0.00  0.00    +0.000 A 
ATOM     29  C   UNL     1      -6.634  -2.809 134.353  0.00  0.00    +0.000 A 
ATOM     30  C   UNL     1      -7.768  -2.676 133.556  0.00  0.00    +0.000 A 
ATOM     31  C   UNL     1      -7.690  -2.921 132.186  0.00  0.00    +0.000 A 
ATOM     32  C   UNL     1      -6.465  -3.276 131.607  0.00  0.00    +0.000 A 
ATOM     33  H   UNL     1      -3.142  -3.932 129.943  0.00  0.00    +0.000 HD
ENDBRANCH  21  22
ENDBRANCH   5  21
TORSDOF 4
ENDMDL
MODEL 7
REMARK VINA RESULT:      -9.4      6.199      8.969
REMARK  Name = Olaparib
REMARK  4 active torsions:
REMARK  status: ('A' for Active; 'I' for Inactive)
REMARK    1  A    between atoms: C_5  and  C_6
REMARK    2  A    between atoms: C_6  and  C_7
REMARK    3  A    between atoms: C_19  and  C_20
REMARK    4  A    between atoms: C_28  and  C_30
REMARK                            x       y       z     vdW  Elec       q    Type
REMARK                         _______ _______ _______ _____ _____    ______ ____
ROOT
ATOM      1  F   UNL     1      -5.494   6.617 132.043  0.00  0.00    +0.000 F 
ATOM      2  C   UNL     1      -5.283   6.148 130.831  0.00  0.00    +0.000 A 
ATOM      3  C   UNL     1      -4.248   6.790 130.164  0.00  0.00    +0.000 A 
ATOM      4  C   UNL     1      -3.855   6.334 128.930  0.00  0.00    +0.000 A 
ATOM      5  C   UNL     1      -4.509   5.229 128.376  0.00  0.00    +0.000 A 
ATOM      6  C   UNL     1      -5.562   4.596 129.088  0.00  0.00    +0.000 A 
ATOM      7  C   UNL     1      -5.998   5.072 130.320  0.00  0.00    +0.000 A 
ENDROOT
BRANCH   7   8
ATOM      8  C   UNL     1      -7.095   4.337 131.056  0.00  0.00    +0.000 C 
ATOM      9  O   UNL     1      -6.810   3.498 131.905  0.00  0.00    +0.000 OA
ATOM     10  N   UNL     1      -8.403   4.714 130.822  0.00  0.00    +0.000 N 
ATOM     11  C   UNL     1      -9.360   5.027 131.891  0.00  0.00    +0.000 C 
ATOM     12  C   UNL     1     -10.051   6.375 131.559  0.00  0.00    +0.000 C 
ATOM     13  N   UNL     1     -10.676   6.301 130.215  0.00  0.00    +0.000 N 
ATOM     14  C   UNL     1      -9.756   5.897 129.181  0.00  0.00    +0.000 C 
ATOM     15  C   UNL     1      -9.005   4.624 129.516  0.00  0.00    +0.000 C 
ATOM     16  C   UNL     1     -11.972   6.741 129.981  0.00  0.00    +0.000 C 
ATOM     17  O   UNL     1     -12.701   7.094 130.894  0.00  0.00    +0.000 OA
BRANCH  16  18
ATOM     18  C   UNL     1     -12.554   6.769 128.580  0.00  0.00    +0.000 C 
ATOM     19  C   UNL     1     -13.887   7.296 128.098  0.00  0.00    +0.000 C 
ATOM     20  C   UNL     1     -12.624   8.081 127.820  0.00  0.00    +0.000 C 
ENDBRANCH  16  18
ENDBRANCH   7   8
BRANCH   5  21
ATOM     21  C   UNL     1      -4.036   4.771 127.015  0.00  0.00    +0.000 C 
BRANCH  21  22
ATOM     22  C   UNL     1      -5.171   4.380 126.089  0.00  0.00    +0.000 A 
ATOM     23  N   UNL     1      -5.846   5.349 125.540  0.00  0.00    +0.000 NA
ATOM     24  N   UNL     1      -6.988   5.044 124.877  0.00  0.00    +0.000 N 
ATOM     25  C   UNL     1      -7.524   3.787 124.735  0.00  0.00    +0.000 A 
ATOM     26  O   UNL     1      -8.599   3.588 124.183  0.00  0.00    +0.000 OA
ATOM     27  C   UNL     1      -6.703   2.677 125.247  0.00  0.00    +0.000 A 
ATOM     28  C   UNL     1      -7.085   1.353 125.018  0.00  0.00    +0.000 A 
ATOM     29  C   UNL     1      -6.252   0.310 125.421  0.00  0.00    +0.000 A 
ATOM     30  C   UNL     1      -5.050   0.586 126.068  0.00  0.00    +0.000 A 
ATOM     31  C   UNL     1      -4.684   1.905 126.325  0.00  0.00    +0.000 A 
ATOM     32  C   UNL     1      -5.512   2.956 125.910  0.00  0.00    +0.000 A 
ATOM     33  H   UNL     1      -7.544   5.829 124.549  0.00  0.00    +0.000 HD
ENDBRANCH  21  22
ENDBRANCH   5  21
TORSDOF 4
ENDMDL
MODEL 8
REMARK VINA RESULT:      -9.3      3.945      5.661
REMARK  Name = Olaparib
REMARK  4 active torsions:
REMARK  status: ('A' for Active; 'I' for Inactive)
REMARK    1  A    between atoms: C_5  and  C_6
REMARK    2  A    between atoms: C_6  and  C_7
REMARK    3  A    between atoms: C_19  and  C_20
REMARK    4  A    between atoms: C_28  and  C_30
REMARK                            x       y       z     vdW  Elec       q    Type
REMARK                         _______ _______ _______ _____ _____    ______ ____
ROOT
ATOM      1  F   UNL     1      -7.593  -2.630 127.443  0.00  0.00    +0.000 F 
ATOM      2  C   UNL     1      -7.678  -1.355 127.761  0.00  0.00    +0.000 A 
ATOM      3  C   UNL     1      -7.056  -1.043 128.962  0.00  0.00    +0.000 A 
ATOM      4  C   UNL     1      -6.982   0.268 129.363  0.00  0.00    +0.000 A 
ATOM      5  C   UNL     1      -7.537   1.259 128.547  0.00  0.00    +0.000 A 
ATOM      6  C   UNL     1      -8.164   0.903 127.323  0.00  0.00    +0.000 A 
ATOM      7  C   UNL     1      -8.282  -0.425 126.924  0.00  0.00    +0.000 A 
ENDROOT
BRANCH   7   8
ATOM      8  C   UNL     1      -8.922  -0.746 125.593  0.00  0.00    +0.000 C 
ATOM      9  O   UNL     1      -9.785  -1.616 125.520  0.00  0.00    +0.000 OA
ATOM     10  N   UNL     1      -8.587   0.032 124.503  0.00  0.00    +0.000 N 
ATOM     11  C   UNL     1      -9.579   0.662 123.620  0.00  0.00    +0.000 C 
ATOM     12  C   UNL     1      -9.201   2.155 123.437  0.00  0.00    +0.000 C 
ATOM     13  N   UNL     1      -7.811   2.263 122.930  0.00  0.00    +0.000 N 
ATOM     14  C   UNL     1      -6.852   1.561 123.744  0.00  0.00    +0.000 C 
ATOM     15  C   UNL     1      -7.236   0.119 124.009  0.00  0.00    +0.000 C 
ATOM     16  C   UNL     1      -7.477   3.099 121.871  0.00  0.00    +0.000 C 
ATOM     17  O   UNL     1      -8.332   3.687 121.229  0.00  0.00    +0.000 OA
BRANCH  16  18
ATOM     18  C   UNL     1      -6.035   3.288 121.441  0.00  0.00    +0.000 C 
ATOM     19  C   UNL     1      -5.415   4.371 120.587  0.00  0.00    +0.000 C 
ATOM     20  C   UNL     1      -5.195   4.377 122.084  0.00  0.00    +0.000 C 
ENDBRANCH  16  18
ENDBRANCH   7   8
BRANCH   5  21
ATOM     21  C   UNL     1      -7.428   2.684 129.039  0.00  0.00    +0.000 C 
BRANCH  21  22
ATOM     22  C   UNL     1      -6.023   3.062 129.467  0.00  0.00    +0.000 A 
ATOM     23  N   UNL     1      -5.817   3.222 130.742  0.00  0.00    +0.000 NA
ATOM     24  N   UNL     1      -4.638   3.757 131.143  0.00  0.00    +0.000 N 
ATOM     25  C   UNL     1      -3.621   4.169 130.317  0.00  0.00    +0.000 A 
ATOM     26  O   UNL     1      -2.607   4.711 130.741  0.00  0.00    +0.000 OA
ATOM     27  C   UNL     1      -3.798   3.878 128.884  0.00  0.00    +0.000 A 
ATOM     28  C   UNL     1      -2.760   4.119 127.981  0.00  0.00    +0.000 A 
ATOM     29  C   UNL     1      -2.902   3.749 126.644  0.00  0.00    +0.000 A 
ATOM     30  C   UNL     1      -4.085   3.158 126.204  0.00  0.00    +0.000 A 
ATOM     31  C   UNL     1      -5.132   2.947 127.098  0.00  0.00    +0.000 A 
ATOM     32  C   UNL     1      -4.988   3.305 128.444  0.00  0.00    +0.000 A 
ATOM     33  H   UNL     1      -4.549   3.963 132.134  0.00  0.00    +0.000 HD
ENDBRANCH  21  22
ENDBRANCH   5  21
TORSDOF 4
ENDMDL
MODEL 9
REMARK VINA RESULT:      -9.3      5.962      7.981
REMARK  Name = Olaparib
REMARK  4 active torsions:
REMARK  status: ('A' for Active; 'I' for Inactive)
REMARK    1  A    between atoms: C_5  and  C_6
REMARK    2  A    between atoms: C_6  and  C_7
REMARK    3  A    between atoms: C_19  and  C_20
REMARK    4  A    between atoms: C_28  and  C_30
REMARK                            x       y       z     vdW  Elec       q    Type
REMARK                         _______ _______ _______ _____ _____    ______ ____
ROOT
ATOM      1  F   UNL     1     -10.017   2.375 133.229  0.00  0.00    +0.000 F 
ATOM      2  C   UNL     1      -9.138   2.099 132.289  0.00  0.00    +0.000 A 
ATOM      3  C   UNL     1      -9.235   0.800 131.809  0.00  0.00    +0.000 A 
ATOM      4  C   UNL     1      -8.445   0.410 130.755  0.00  0.00    +0.000 A 
ATOM      5  C   UNL     1      -7.563   1.335 130.190  0.00  0.00    +0.000 A 
ATOM      6  C   UNL     1      -7.492   2.657 130.706  0.00  0.00    +0.000 A 
ATOM      7  C   UNL     1      -8.256   3.054 131.799  0.00  0.00    +0.000 A 
ENDROOT
BRANCH   7   8
ATOM      8  C   UNL     1      -8.174   4.483 132.283  0.00  0.00    +0.000 C 
ATOM      9  O   UNL     1      -7.355   4.795 133.143  0.00  0.00    +0.000 OA
ATOM     10  N   UNL     1      -8.962   5.430 131.658  0.00  0.00    +0.000 N 
ATOM     11  C   UNL     1      -8.442   6.701 131.136  0.00  0.00    +0.000 C 
ATOM     12  C   UNL     1      -8.956   6.887 129.685  0.00  0.00    +0.000 C 
ATOM     13  N   UNL     1     -10.438   6.806 129.663  0.00  0.00    +0.000 N 
ATOM     14  C   UNL     1     -10.950   5.601 130.266  0.00  0.00    +0.000 C 
ATOM     15  C   UNL     1     -10.400   5.349 131.655  0.00  0.00    +0.000 C 
ATOM     16  C   UNL     1     -11.215   7.730 128.978  0.00  0.00    +0.000 C 
ATOM     17  O   UNL     1     -10.724   8.723 128.466  0.00  0.00    +0.000 OA
BRANCH  16  18
ATOM     18  C   UNL     1     -12.719   7.567 128.866  0.00  0.00    +0.000 C 
ATOM     19  C   UNL     1     -13.716   8.338 128.030  0.00  0.00    +0.000 C 
ATOM     20  C   UNL     1     -13.318   6.937 127.621  0.00  0.00    +0.000 C 
ENDBRANCH  16  18
ENDBRANCH   7   8
BRANCH   5  21
ATOM     21  C   UNL     1      -6.717   0.850 129.034  0.00  0.00    +0.000 C 
BRANCH  21  22
ATOM     22  C   UNL     1      -7.502   0.691 127.747  0.00  0.00    +0.000 A 
ATOM     23  N   UNL     1      -7.793   1.780 127.095  0.00  0.00    +0.000 NA
ATOM     24  N   UNL     1      -8.664   1.698 126.059  0.00  0.00    +0.000 N 
ATOM     25  C   UNL     1      -9.292   0.556 125.627  0.00  0.00    +0.000 A 
ATOM     26  O   UNL     1     -10.124   0.562 124.728  0.00  0.00    +0.000 OA
ATOM     27  C   UNL     1      -8.873  -0.696 126.280  0.00  0.00    +0.000 A 
ATOM     28  C   UNL     1      -9.340  -1.927 125.813  0.00  0.00    +0.000 A 
ATOM     29  C   UNL     1      -8.861  -3.110 126.375  0.00  0.00    +0.000 A 
ATOM     30  C   UNL     1      -7.934  -3.065 127.414  0.00  0.00    +0.000 A 
ATOM     31  C   UNL     1      -7.493  -1.837 127.902  0.00  0.00    +0.000 A 
ATOM     32  C   UNL     1      -7.962  -0.647 127.331  0.00  0.00    +0.000 A 
ATOM     33  H   UNL     1      -8.949   2.577 125.637  0.00  0.00    +0.000 HD
ENDBRANCH  21  22
ENDBRANCH   5  21
TORSDOF 4
ENDMDL
