MODEL 1
REMARK VINA RESULT:      -8.0      0.000      0.000
REMARK  Name = Oliceridine
REMARK  8 active torsions:
REMARK  status: ('A' for Active; 'I' for Inactive)
REMARK    1  A    between atoms: C_1  and  O_2
REMARK    2  A    between atoms: O_2  and  C_3
REMARK    3  A    between atoms: C_4  and  C_5
REMARK    4  A    between atoms: C_5  and  N_6
REMARK    5  A    between atoms: N_6  and  C_7
REMARK    6  A    between atoms: C_7  and  C_8
REMARK    7  A    between atoms: C_8  and  C_9
REMARK    8  A    between atoms: C_9  and  C_19
REMARK                            x       y       z     vdW  Elec       q    Type
REMARK                         _______ _______ _______ _____ _____    ______ ____
ROOT
ATOM      1  C   UNL     1      -8.264  -1.216 125.391  0.00  0.00    +0.000 C 
ATOM      2  C   UNL     1      -9.440  -1.626 124.471  0.00  0.00    +0.000 C 
ATOM      3  C   UNL     1      -9.126  -2.886 123.648  0.00  0.00    +0.000 C 
ATOM      4  O   UNL     1      -7.908  -2.779 122.889  0.00  0.00    +0.000 OA
ATOM      5  C   UNL     1      -6.736  -2.483 123.660  0.00  0.00    +0.000 C 
ATOM      6  C   UNL     1      -5.519  -2.267 122.725  0.00  0.00    +0.000 C 
ATOM      7  C   UNL     1      -4.395  -3.172 123.243  0.00  0.00    +0.000 C 
ATOM      8  C   UNL     1      -5.095  -4.310 123.930  0.00  0.00    +0.000 C 
ATOM      9  C   UNL     1      -6.272  -3.630 124.551  0.00  0.00    +0.000 C 
ATOM     10  C   UNL     1      -7.005  -1.218 124.458  0.00  0.00    +0.000 C 
ENDROOT
BRANCH   1  11
ATOM     11  C   UNL     1      -8.166  -2.192 126.598  0.00  0.00    +0.000 A 
ATOM     12  N   UNL     1      -7.179  -1.935 127.483  0.00  0.00    +0.000 NA
ATOM     13  C   UNL     1      -7.199  -2.466 128.726  0.00  0.00    +0.000 A 
ATOM     14  C   UNL     1      -8.054  -3.452 129.093  0.00  0.00    +0.000 A 
ATOM     15  C   UNL     1      -8.933  -3.904 128.116  0.00  0.00    +0.000 A 
ATOM     16  C   UNL     1      -9.017  -3.242 126.879  0.00  0.00    +0.000 A 
ENDBRANCH   1  11
BRANCH   1  17
ATOM     17  C   UNL     1      -8.461   0.258 125.872  0.00  0.00    +0.000 C 
BRANCH  17  18
ATOM     18  C   UNL     1      -9.766   0.861 125.299  0.00  0.00    +0.000 C 
BRANCH  18  19
ATOM     19  N   UNL     1      -9.536   2.147 124.741  0.00  0.00    +0.000 NA
ATOM     20  H   UNL     1     -10.309   2.807 124.761  0.00  0.00    +0.000 HD
BRANCH  19  21
ATOM     21  C   UNL     1      -8.737   2.198 123.545  0.00  0.00    +0.000 C 
BRANCH  21  23
ATOM     22  C   UNL     1      -6.559   3.537 122.942  0.00  0.00    +0.000 A 
ATOM     23  C   UNL     1      -7.628   3.180 123.754  0.00  0.00    +0.000 A 
ATOM     24  S   UNL     1      -7.585   4.029 125.252  0.00  0.00    +0.000 S 
ATOM     25  C   UNL     1      -6.094   4.760 124.868  0.00  0.00    +0.000 A 
ATOM     26  C   UNL     1      -5.651   4.400 123.615  0.00  0.00    +0.000 A 
BRANCH  22  28
ATOM     27  C   UNL     1      -6.429   3.827 120.606  0.00  0.00    +0.000 C 
ATOM     28  O   UNL     1      -6.253   2.977 121.739  0.00  0.00    +0.000 OA
ENDBRANCH  22  28
ENDBRANCH  21  23
ENDBRANCH  19  21
ENDBRANCH  18  19
ENDBRANCH  17  18
ENDBRANCH   1  17
TORSDOF 7
ENDMDL
MODEL 2
REMARK VINA RESULT:      -7.9      1.234      1.747
REMARK  Name = Oliceridine
REMARK  8 active torsions:
REMARK  status: ('A' for Active; 'I' for Inactive)
REMARK    1  A    between atoms: C_1  and  O_2
REMARK    2  A    between atoms: O_2  and  C_3
REMARK    3  A    between atoms: C_4  and  C_5
REMARK    4  A    between atoms: C_5  and  N_6
REMARK    5  A    between atoms: N_6  and  C_7
REMARK    6  A    between atoms: C_7  and  C_8
REMARK    7  A    between atoms: C_8  and  C_9
REMARK    8  A    between atoms: C_9  and  C_19
REMARK                            x       y       z     vdW  Elec       q    Type
REMARK                         _______ _______ _______ _____ _____    ______ ____
ROOT
ATOM      1  C   UNL     1      -8.023  -1.215 125.441  0.00  0.00    +0.000 C 
ATOM      2  C   UNL     1      -9.213  -1.513 124.495  0.00  0.00    +0.000 C 
ATOM      3  C   UNL     1      -8.973  -2.761 123.632  0.00  0.00    +0.000 C 
ATOM      4  O   UNL     1      -7.741  -2.710 122.889  0.00  0.00    +0.000 OA
ATOM      5  C   UNL     1      -6.562  -2.520 123.682  0.00  0.00    +0.000 C 
ATOM      6  C   UNL     1      -5.321  -2.353 122.767  0.00  0.00    +0.000 C 
ATOM      7  C   UNL     1      -4.267  -3.348 123.264  0.00  0.00    +0.000 C 
ATOM      8  C   UNL     1      -5.049  -4.461 123.903  0.00  0.00    +0.000 C 
ATOM      9  C   UNL     1      -6.186  -3.725 124.536  0.00  0.00    +0.000 C 
ATOM     10  C   UNL     1      -6.756  -1.268 124.521  0.00  0.00    +0.000 C 
ENDROOT
BRANCH   1  11
ATOM     11  C   UNL     1      -8.006  -2.236 126.613  0.00  0.00    +0.000 A 
ATOM     12  N   UNL     1      -7.014  -2.077 127.517  0.00  0.00    +0.000 NA
ATOM     13  C   UNL     1      -7.084  -2.648 128.739  0.00  0.00    +0.000 A 
ATOM     14  C   UNL     1      -8.008  -3.586 129.064  0.00  0.00    +0.000 A 
ATOM     15  C   UNL     1      -8.904  -3.944 128.063  0.00  0.00    +0.000 A 
ATOM     16  C   UNL     1      -8.929  -3.235 126.850  0.00  0.00    +0.000 A 
ENDBRANCH   1  11
BRANCH   1  17
ATOM     17  C   UNL     1      -8.128   0.252 125.972  0.00  0.00    +0.000 C 
BRANCH  17  18
ATOM     18  C   UNL     1      -9.501   0.875 125.622  0.00  0.00    +0.000 C 
BRANCH  18  19
ATOM     19  N   UNL     1      -9.357   2.206 125.149  0.00  0.00    +0.000 NA
ATOM     20  H   UNL     1     -10.040   2.888 125.465  0.00  0.00    +0.000 HD
BRANCH  19  21
ATOM     21  C   UNL     1      -8.946   2.362 123.778  0.00  0.00    +0.000 C 
BRANCH  21  23
ATOM     22  C   UNL     1      -7.023   3.881 124.721  0.00  0.00    +0.000 A 
ATOM     23  C   UNL     1      -7.654   3.116 123.750  0.00  0.00    +0.000 A 
ATOM     24  S   UNL     1      -6.755   3.106 122.281  0.00  0.00    +0.000 S 
ATOM     25  C   UNL     1      -5.612   4.211 122.898  0.00  0.00    +0.000 A 
ATOM     26  C   UNL     1      -5.882   4.555 124.203  0.00  0.00    +0.000 A 
BRANCH  22  28
ATOM     27  C   UNL     1      -6.698   3.779 127.054  0.00  0.00    +0.000 C 
ATOM     28  O   UNL     1      -7.522   4.169 125.955  0.00  0.00    +0.000 OA
ENDBRANCH  22  28
ENDBRANCH  21  23
ENDBRANCH  19  21
ENDBRANCH  18  19
ENDBRANCH  17  18
ENDBRANCH   1  17
TORSDOF 7
ENDMDL
MODEL 3
REMARK VINA RESULT:      -7.7      1.489      2.033
REMARK  Name = Oliceridine
REMARK  8 active torsions:
REMARK  status: ('A' for Active; 'I' for Inactive)
REMARK    1  A    between atoms: C_1  and  O_2
REMARK    2  A    between atoms: O_2  and  C_3
REMARK    3  A    between atoms: C_4  and  C_5
REMARK    4  A    between atoms: C_5  and  N_6
REMARK    5  A    between atoms: N_6  and  C_7
REMARK    6  A    between atoms: C_7  and  C_8
REMARK    7  A    between atoms: C_8  and  C_9
REMARK    8  A    between atoms: C_9  and  C_19
REMARK                            x       y       z     vdW  Elec       q    Type
REMARK                         _______ _______ _______ _____ _____    ______ ____
ROOT
ATOM      1  C   UNL     1      -7.606  -1.007 126.368  0.00  0.00    +0.000 C 
ATOM      2  C   UNL     1      -9.025  -1.284 125.813  0.00  0.00    +0.000 C 
ATOM      3  C   UNL     1      -9.063  -2.517 124.896  0.00  0.00    +0.000 C 
ATOM      4  O   UNL     1      -8.107  -2.456 123.822  0.00  0.00    +0.000 OA
ATOM      5  C   UNL     1      -6.745  -2.284 124.231  0.00  0.00    +0.000 C 
ATOM      6  C   UNL     1      -5.830  -2.104 122.992  0.00  0.00    +0.000 C 
ATOM      7  C   UNL     1      -4.684  -3.112 123.137  0.00  0.00    +0.000 C 
ATOM      8  C   UNL     1      -5.251  -4.233 123.960  0.00  0.00    +0.000 C 
ATOM      9  C   UNL     1      -6.141  -3.506 124.915  0.00  0.00    +0.000 C 
ATOM     10  C   UNL     1      -6.670  -1.047 125.112  0.00  0.00    +0.000 C 
ENDROOT
BRANCH   1  11
ATOM     11  C   UNL     1      -7.250  -2.050 127.464  0.00  0.00    +0.000 A 
ATOM     12  N   UNL     1      -5.971  -2.031 127.900  0.00  0.00    +0.000 NA
ATOM     13  C   UNL     1      -5.621  -2.618 129.065  0.00  0.00    +0.000 A 
ATOM     14  C   UNL     1      -6.447  -3.447 129.752  0.00  0.00    +0.000 A 
ATOM     15  C   UNL     1      -7.700  -3.672 129.193  0.00  0.00    +0.000 A 
ATOM     16  C   UNL     1      -8.116  -2.937 128.070  0.00  0.00    +0.000 A 
ENDBRANCH   1  11
BRANCH   1  17
ATOM     17  C   UNL     1      -7.536   0.450 126.930  0.00  0.00    +0.000 C 
BRANCH  17  18
ATOM     18  C   UNL     1      -8.890   1.179 126.758  0.00  0.00    +0.000 C 
BRANCH  18  19
ATOM     19  N   UNL     1      -8.733   2.389 126.031  0.00  0.00    +0.000 NA
ATOM     20  H   UNL     1      -9.501   2.672 125.428  0.00  0.00    +0.000 HD
BRANCH  19  21
ATOM     21  C   UNL     1      -7.423   2.655 125.495  0.00  0.00    +0.000 C 
BRANCH  21  23
ATOM     22  C   UNL     1      -8.598   2.730 123.148  0.00  0.00    +0.000 A 
ATOM     23  C   UNL     1      -7.557   2.961 124.037  0.00  0.00    +0.000 A 
ATOM     24  S   UNL     1      -6.214   3.696 123.248  0.00  0.00    +0.000 S 
ATOM     25  C   UNL     1      -6.968   3.587 121.723  0.00  0.00    +0.000 A 
ATOM     26  C   UNL     1      -8.227   3.038 121.809  0.00  0.00    +0.000 A 
BRANCH  22  28
ATOM     27  C   UNL     1      -9.915   0.805 122.804  0.00  0.00    +0.000 C 
ATOM     28  O   UNL     1      -9.758   2.076 123.434  0.00  0.00    +0.000 OA
ENDBRANCH  22  28
ENDBRANCH  21  23
ENDBRANCH  19  21
ENDBRANCH  18  19
ENDBRANCH  17  18
ENDBRANCH   1  17
TORSDOF 7
ENDMDL
MODEL 4
REMARK VINA RESULT:      -7.2      2.903      3.534
REMARK  Name = Oliceridine
REMARK  8 active torsions:
REMARK  status: ('A' for Active; 'I' for Inactive)
REMARK    1  A    between atoms: C_1  and  O_2
REMARK    2  A    between atoms: O_2  and  C_3
REMARK    3  A    between atoms: C_4  and  C_5
REMARK    4  A    between atoms: C_5  and  N_6
REMARK    5  A    between atoms: N_6  and  C_7
REMARK    6  A    between atoms: C_7  and  C_8
REMARK    7  A    between atoms: C_8  and  C_9
REMARK    8  A    between atoms: C_9  and  C_19
REMARK                            x       y       z     vdW  Elec       q    Type
REMARK                         _______ _______ _______ _____ _____    ______ ____
ROOT
ATOM      1  C   UNL     1      -7.505  -1.012 125.769  0.00  0.00    +0.000 C 
ATOM      2  C   UNL     1      -8.802  -1.131 124.931  0.00  0.00    +0.000 C 
ATOM      3  C   UNL     1      -8.806  -2.379 124.035  0.00  0.00    +0.000 C 
ATOM      4  O   UNL     1      -7.650  -2.472 123.185  0.00  0.00    +0.000 OA
ATOM      5  C   UNL     1      -6.390  -2.457 123.870  0.00  0.00    +0.000 C 
ATOM      6  C   UNL     1      -5.224  -2.432 122.848  0.00  0.00    +0.000 C 
ATOM      7  C   UNL     1      -4.271  -3.569 123.237  0.00  0.00    +0.000 C 
ATOM      8  C   UNL     1      -5.134  -4.583 123.931  0.00  0.00    +0.000 C 
ATOM      9  C   UNL     1      -6.103  -3.720 124.673  0.00  0.00    +0.000 C 
ATOM     10  C   UNL     1      -6.342  -1.210 124.737  0.00  0.00    +0.000 C 
ENDROOT
BRANCH   1  11
ATOM     11  C   UNL     1      -7.519  -2.054 126.923  0.00  0.00    +0.000 A 
ATOM     12  N   UNL     1      -6.416  -2.082 127.703  0.00  0.00    +0.000 NA
ATOM     13  C   UNL     1      -6.437  -2.667 128.921  0.00  0.00    +0.000 A 
ATOM     14  C   UNL     1      -7.459  -3.451 129.346  0.00  0.00    +0.000 A 
ATOM     15  C   UNL     1      -8.511  -3.632 128.456  0.00  0.00    +0.000 A 
ATOM     16  C   UNL     1      -8.560  -2.896 127.260  0.00  0.00    +0.000 A 
ENDBRANCH   1  11
BRANCH   1  17
ATOM     17  C   UNL     1      -7.367   0.443 126.323  0.00  0.00    +0.000 C 
BRANCH  17  18
ATOM     18  C   UNL     1      -5.982   1.040 125.982  0.00  0.00    +0.000 C 
BRANCH  18  19
ATOM     19  N   UNL     1      -5.049   0.808 127.028  0.00  0.00    +0.000 NA
ATOM     20  H   UNL     1      -4.586  -0.096 127.046  0.00  0.00    +0.000 HD
BRANCH  19  21
ATOM     21  C   UNL     1      -5.394   1.329 128.326  0.00  0.00    +0.000 C 
BRANCH  21  23
ATOM     22  C   UNL     1      -3.526   3.118 127.868  0.00  0.00    +0.000 A 
ATOM     23  C   UNL     1      -4.585   2.564 128.574  0.00  0.00    +0.000 A 
ATOM     24  S   UNL     1      -4.955   3.491 129.977  0.00  0.00    +0.000 S 
ATOM     25  C   UNL     1      -3.636   4.539 129.710  0.00  0.00    +0.000 A 
ATOM     26  C   UNL     1      -2.948   4.218 128.561  0.00  0.00    +0.000 A 
BRANCH  22  28
ATOM     27  C   UNL     1      -1.610   3.042 126.497  0.00  0.00    +0.000 C 
ATOM     28  O   UNL     1      -2.930   2.574 126.771  0.00  0.00    +0.000 OA
ENDBRANCH  22  28
ENDBRANCH  21  23
ENDBRANCH  19  21
ENDBRANCH  18  19
ENDBRANCH  17  18
ENDBRANCH   1  17
TORSDOF 7
ENDMDL
MODEL 5
REMARK VINA RESULT:      -7.1      3.992      5.908
REMARK  Name = Oliceridine
REMARK  8 active torsions:
REMARK  status: ('A' for Active; 'I' for Inactive)
REMARK    1  A    between atoms: C_1  and  O_2
REMARK    2  A    between atoms: O_2  and  C_3
REMARK    3  A    between atoms: C_4  and  C_5
REMARK    4  A    between atoms: C_5  and  N_6
REMARK    5  A    between atoms: N_6  and  C_7
REMARK    6  A    between atoms: C_7  and  C_8
REMARK    7  A    between atoms: C_8  and  C_9
REMARK    8  A    between atoms: C_9  and  C_19
REMARK                            x       y       z     vdW  Elec       q    Type
REMARK                         _______ _______ _______ _____ _____    ______ ____
ROOT
ATOM      1  C   UNL     1      -8.055   0.547 125.980  0.00  0.00    +0.000 C 
ATOM      2  C   UNL     1      -6.659   0.151 126.523  0.00  0.00    +0.000 C 
ATOM      3  C   UNL     1      -6.027  -0.999 125.723  0.00  0.00    +0.000 C 
ATOM      4  O   UNL     1      -6.874  -2.157 125.627  0.00  0.00    +0.000 OA
ATOM      5  C   UNL     1      -8.167  -1.917 125.057  0.00  0.00    +0.000 C 
ATOM      6  C   UNL     1      -9.031  -3.204 125.124  0.00  0.00    +0.000 C 
ATOM      7  C   UNL     1      -9.573  -3.447 123.711  0.00  0.00    +0.000 C 
ATOM      8  C   UNL     1      -8.566  -2.818 122.791  0.00  0.00    +0.000 C 
ATOM      9  C   UNL     1      -8.142  -1.610 123.564  0.00  0.00    +0.000 C 
ATOM     10  C   UNL     1      -8.834  -0.807 125.853  0.00  0.00    +0.000 C 
ENDROOT
BRANCH   1  11
ATOM     11  C   UNL     1      -7.905   1.326 124.643  0.00  0.00    +0.000 A 
ATOM     12  N   UNL     1      -9.045   1.512 123.941  0.00  0.00    +0.000 NA
ATOM     13  C   UNL     1      -9.123   2.451 122.972  0.00  0.00    +0.000 A 
ATOM     14  C   UNL     1      -8.036   3.098 122.482  0.00  0.00    +0.000 A 
ATOM     15  C   UNL     1      -6.808   2.748 123.031  0.00  0.00    +0.000 A 
ATOM     16  C   UNL     1      -6.750   1.892 124.144  0.00  0.00    +0.000 A 
ENDBRANCH   1  11
BRANCH   1  17
ATOM     17  C   UNL     1      -8.813   1.399 127.049  0.00  0.00    +0.000 C 
BRANCH  17  18
ATOM     18  C   UNL     1      -7.874   2.444 127.697  0.00  0.00    +0.000 C 
BRANCH  18  19
ATOM     19  N   UNL     1      -8.614   3.490 128.310  0.00  0.00    +0.000 NA
ATOM     20  H   UNL     1      -8.901   4.265 127.720  0.00  0.00    +0.000 HD
BRANCH  19  21
ATOM     21  C   UNL     1      -8.213   3.869 129.641  0.00  0.00    +0.000 C 
BRANCH  21  23
ATOM     22  C   UNL     1      -9.842   5.924 129.502  0.00  0.00    +0.000 A 
ATOM     23  C   UNL     1      -9.171   4.897 130.153  0.00  0.00    +0.000 A 
ATOM     24  S   UNL     1      -9.526   4.889 131.838  0.00  0.00    +0.000 S 
ATOM     25  C   UNL     1     -10.456   6.312 131.714  0.00  0.00    +0.000 A 
ATOM     26  C   UNL     1     -10.530   6.768 130.417  0.00  0.00    +0.000 A 
BRANCH  22  28
ATOM     27  C   UNL     1     -10.572   7.289 127.724  0.00  0.00    +0.000 C 
ATOM     28  O   UNL     1      -9.699   6.261 128.190  0.00  0.00    +0.000 OA
ENDBRANCH  22  28
ENDBRANCH  21  23
ENDBRANCH  19  21
ENDBRANCH  18  19
ENDBRANCH  17  18
ENDBRANCH   1  17
TORSDOF 7
ENDMDL
MODEL 6
REMARK VINA RESULT:      -7.1      2.271      3.172
REMARK  Name = Oliceridine
REMARK  8 active torsions:
REMARK  status: ('A' for Active; 'I' for Inactive)
REMARK    1  A    between atoms: C_1  and  O_2
REMARK    2  A    between atoms: O_2  and  C_3
REMARK    3  A    between atoms: C_4  and  C_5
REMARK    4  A    between atoms: C_5  and  N_6
REMARK    5  A    between atoms: N_6  and  C_7
REMARK    6  A    between atoms: C_7  and  C_8
REMARK    7  A    between atoms: C_8  and  C_9
REMARK    8  A    between atoms: C_9  and  C_19
REMARK                            x       y       z     vdW  Elec       q    Type
REMARK                         _______ _______ _______ _____ _____    ______ ____
ROOT
ATOM      1  C   UNL     1      -8.035   0.530 125.357  0.00  0.00    +0.000 C 
ATOM      2  C   UNL     1      -9.318  -0.249 125.735  0.00  0.00    +0.000 C 
ATOM      3  C   UNL     1      -9.074  -1.763 125.835  0.00  0.00    +0.000 C 
ATOM      4  O   UNL     1      -8.479  -2.321 124.650  0.00  0.00    +0.000 OA
ATOM      5  C   UNL     1      -7.237  -1.725 124.255  0.00  0.00    +0.000 C 
ATOM      6  C   UNL     1      -6.762  -2.318 122.904  0.00  0.00    +0.000 C 
ATOM      7  C   UNL     1      -5.312  -2.776 123.105  0.00  0.00    +0.000 C 
ATOM      8  C   UNL     1      -5.202  -3.090 124.570  0.00  0.00    +0.000 C 
ATOM      9  C   UNL     1      -6.072  -2.042 125.186  0.00  0.00    +0.000 C 
ATOM     10  C   UNL     1      -7.458  -0.228 124.113  0.00  0.00    +0.000 C 
ENDROOT
BRANCH   1  11
ATOM     11  C   UNL     1      -7.069   0.589 126.574  0.00  0.00    +0.000 A 
ATOM     12  N   UNL     1      -5.857   1.138 126.336  0.00  0.00    +0.000 NA
ATOM     13  C   UNL     1      -5.074   1.569 127.349  0.00  0.00    +0.000 A 
ATOM     14  C   UNL     1      -5.327   1.282 128.651  0.00  0.00    +0.000 A 
ATOM     15  C   UNL     1      -6.454   0.508 128.906  0.00  0.00    +0.000 A 
ATOM     16  C   UNL     1      -7.349   0.199 127.867  0.00  0.00    +0.000 A 
ENDBRANCH   1  11
BRANCH   1  17
ATOM     17  C   UNL     1      -8.415   1.965 124.867  0.00  0.00    +0.000 C 
BRANCH  17  18
ATOM     18  C   UNL     1      -9.232   1.908 123.554  0.00  0.00    +0.000 C 
BRANCH  18  19
ATOM     19  N   UNL     1      -8.721   2.817 122.590  0.00  0.00    +0.000 NA
ATOM     20  H   UNL     1      -9.167   2.827 121.678  0.00  0.00    +0.000 HD
BRANCH  19  21
ATOM     21  C   UNL     1      -7.291   2.985 122.557  0.00  0.00    +0.000 C 
BRANCH  21  23
ATOM     22  C   UNL     1      -7.695   4.143 120.235  0.00  0.00    +0.000 A 
ATOM     23  C   UNL     1      -6.929   3.754 121.326  0.00  0.00    +0.000 A 
ATOM     24  S   UNL     1      -5.289   4.246 121.144  0.00  0.00    +0.000 S 
ATOM     25  C   UNL     1      -5.577   4.853 119.578  0.00  0.00    +0.000 A 
ATOM     26  C   UNL     1      -6.897   4.720 119.209  0.00  0.00    +0.000 A 
BRANCH  22  28
ATOM     27  C   UNL     1      -9.560   4.295 118.800  0.00  0.00    +0.000 C 
ATOM     28  O   UNL     1      -9.002   3.823 120.027  0.00  0.00    +0.000 OA
ENDBRANCH  22  28
ENDBRANCH  21  23
ENDBRANCH  19  21
ENDBRANCH  18  19
ENDBRANCH  17  18
ENDBRANCH   1  17
TORSDOF 7
ENDMDL
MODEL 7
REMARK VINA RESULT:      -7.0      2.322      3.125
REMARK  Name = Oliceridine
REMARK  8 active torsions:
REMARK  status: ('A' for Active; 'I' for Inactive)
REMARK    1  A    between atoms: C_1  and  O_2
REMARK    2  A    between atoms: O_2  and  C_3
REMARK    3  A    between atoms: C_4  and  C_5
REMARK    4  A    between atoms: C_5  and  N_6
REMARK    5  A    between atoms: N_6  and  C_7
REMARK    6  A    between atoms: C_7  and  C_8
REMARK    7  A    between atoms: C_8  and  C_9
REMARK    8  A    between atoms: C_9  and  C_19
REMARK                            x       y       z     vdW  Elec       q    Type
REMARK                         _______ _______ _______ _____ _____    ______ ____
ROOT
ATOM      1  C   UNL     1      -7.773  -0.640 124.933  0.00  0.00    +0.000 C 
ATOM      2  C   UNL     1      -8.766  -0.661 123.745  0.00  0.00    +0.000 C 
ATOM      3  C   UNL     1      -8.651  -1.946 122.910  0.00  0.00    +0.000 C 
ATOM      4  O   UNL     1      -7.313  -2.206 122.450  0.00  0.00    +0.000 OA
ATOM      5  C   UNL     1      -6.322  -2.292 123.482  0.00  0.00    +0.000 C 
ATOM      6  C   UNL     1      -4.910  -2.445 122.860  0.00  0.00    +0.000 C 
ATOM      7  C   UNL     1      -4.257  -3.656 123.536  0.00  0.00    +0.000 C 
ATOM      8  C   UNL     1      -5.402  -4.535 123.955  0.00  0.00    +0.000 C 
ATOM      9  C   UNL     1      -6.438  -3.536 124.355  0.00  0.00    +0.000 C 
ATOM     10  C   UNL     1      -6.387  -1.014 124.303  0.00  0.00    +0.000 C 
ENDROOT
BRANCH   1  11
ATOM     11  C   UNL     1      -8.253  -1.614 126.046  0.00  0.00    +0.000 A 
ATOM     12  N   UNL     1      -9.399  -2.282 125.787  0.00  0.00    +0.000 NA
ATOM     13  C   UNL     1      -9.733  -3.390 126.484  0.00  0.00    +0.000 A 
ATOM     14  C   UNL     1      -9.090  -3.773 127.615  0.00  0.00    +0.000 A 
ATOM     15  C   UNL     1      -8.045  -2.959 128.038  0.00  0.00    +0.000 A 
ATOM     16  C   UNL     1      -7.600  -1.902 127.226  0.00  0.00    +0.000 A 
ENDBRANCH   1  11
BRANCH   1  17
ATOM     17  C   UNL     1      -7.635   0.818 125.479  0.00  0.00    +0.000 C 
BRANCH  17  18
ATOM     18  C   UNL     1      -8.362   1.828 124.559  0.00  0.00    +0.000 C 
BRANCH  18  19
ATOM     19  N   UNL     1      -8.865   2.930 125.302  0.00  0.00    +0.000 NA
ATOM     20  H   UNL     1      -9.869   3.086 125.279  0.00  0.00    +0.000 HD
BRANCH  19  21
ATOM     21  C   UNL     1      -8.072   4.132 125.288  0.00  0.00    +0.000 C 
BRANCH  21  23
ATOM     22  C   UNL     1      -7.471   3.928 127.836  0.00  0.00    +0.000 A 
ATOM     23  C   UNL     1      -7.186   4.133 126.493  0.00  0.00    +0.000 A 
ATOM     24  S   UNL     1      -5.514   4.472 126.254  0.00  0.00    +0.000 S 
ATOM     25  C   UNL     1      -5.209   4.471 127.931  0.00  0.00    +0.000 A 
ATOM     26  C   UNL     1      -6.340   4.184 128.661  0.00  0.00    +0.000 A 
BRANCH  22  28
ATOM     27  C   UNL     1      -8.737   3.168 129.674  0.00  0.00    +0.000 C 
ATOM     28  O   UNL     1      -8.711   3.738 128.365  0.00  0.00    +0.000 OA
ENDBRANCH  22  28
ENDBRANCH  21  23
ENDBRANCH  19  21
ENDBRANCH  18  19
ENDBRANCH  17  18
ENDBRANCH   1  17
TORSDOF 7
ENDMDL
MODEL 8
REMARK VINA RESULT:      -6.8      3.195      7.070
REMARK  Name = Oliceridine
REMARK  8 active torsions:
REMARK  status: ('A' for Active; 'I' for Inactive)
REMARK    1  A    between atoms: C_1  and  O_2
REMARK    2  A    between atoms: O_2  and  C_3
REMARK    3  A    between atoms: C_4  and  C_5
REMARK    4  A    between atoms: C_5  and  N_6
REMARK    5  A    between atoms: N_6  and  C_7
REMARK    6  A    between atoms: C_7  and  C_8
REMARK    7  A    between atoms: C_8  and  C_9
REMARK    8  A    between atoms: C_9  and  C_19
REMARK                            x       y       z     vdW  Elec       q    Type
REMARK                         _______ _______ _______ _____ _____    ______ ____
ROOT
ATOM      1  C   UNL     1      -7.038  -0.200 125.782  0.00  0.00    +0.000 C 
ATOM      2  C   UNL     1      -7.926   0.179 126.992  0.00  0.00    +0.000 C 
ATOM      3  C   UNL     1      -9.194   0.939 126.570  0.00  0.00    +0.000 C 
ATOM      4  O   UNL     1      -8.919   2.099 125.765  0.00  0.00    +0.000 OA
ATOM      5  C   UNL     1      -8.170   1.845 124.570  0.00  0.00    +0.000 C 
ATOM      6  C   UNL     1      -7.827   3.179 123.857  0.00  0.00    +0.000 C 
ATOM      7  C   UNL     1      -8.272   3.029 122.398  0.00  0.00    +0.000 C 
ATOM      8  C   UNL     1      -9.394   2.030 122.432  0.00  0.00    +0.000 C 
ATOM      9  C   UNL     1      -8.944   1.085 123.499  0.00  0.00    +0.000 C 
ATOM     10  C   UNL     1      -6.889   1.126 124.962  0.00  0.00    +0.000 C 
ENDROOT
BRANCH   1  11
ATOM     11  C   UNL     1      -7.686  -1.372 124.992  0.00  0.00    +0.000 A 
ATOM     12  N   UNL     1      -8.563  -2.132 125.683  0.00  0.00    +0.000 NA
ATOM     13  C   UNL     1      -9.444  -2.936 125.047  0.00  0.00    +0.000 A 
ATOM     14  C   UNL     1      -9.365  -3.215 123.722  0.00  0.00    +0.000 A 
ATOM     15  C   UNL     1      -8.315  -2.624 123.027  0.00  0.00    +0.000 A 
ATOM     16  C   UNL     1      -7.502  -1.666 123.656  0.00  0.00    +0.000 A 
ENDBRANCH   1  11
BRANCH   1  17
ATOM     17  C   UNL     1      -5.605  -0.579 126.280  0.00  0.00    +0.000 C 
BRANCH  17  18
ATOM     18  C   UNL     1      -5.533  -0.576 127.826  0.00  0.00    +0.000 C 
BRANCH  18  19
ATOM     19  N   UNL     1      -4.734  -1.648 128.306  0.00  0.00    +0.000 NA
ATOM     20  H   UNL     1      -4.953  -2.580 127.966  0.00  0.00    +0.000 HD
BRANCH  19  21
ATOM     21  C   UNL     1      -4.346  -1.592 129.692  0.00  0.00    +0.000 C 
BRANCH  21  23
ATOM     22  C   UNL     1      -5.797  -3.748 130.071  0.00  0.00    +0.000 A 
ATOM     23  C   UNL     1      -4.762  -2.867 130.355  0.00  0.00    +0.000 A 
ATOM     24  S   UNL     1      -3.870  -3.376 131.737  0.00  0.00    +0.000 S 
ATOM     25  C   UNL     1      -4.931  -4.680 132.021  0.00  0.00    +0.000 A 
ATOM     26  C   UNL     1      -5.922  -4.754 131.069  0.00  0.00    +0.000 A 
BRANCH  22  28
ATOM     27  C   UNL     1      -7.977  -3.020 129.549  0.00  0.00    +0.000 C 
ATOM     28  O   UNL     1      -6.742  -3.580 129.105  0.00  0.00    +0.000 OA
ENDBRANCH  22  28
ENDBRANCH  21  23
ENDBRANCH  19  21
ENDBRANCH  18  19
ENDBRANCH  17  18
ENDBRANCH   1  17
TORSDOF 7
ENDMDL
MODEL 9
REMARK VINA RESULT:      -6.8      1.757      2.218
REMARK  Name = Oliceridine
REMARK  8 active torsions:
REMARK  status: ('A' for Active; 'I' for Inactive)
REMARK    1  A    between atoms: C_1  and  O_2
REMARK    2  A    between atoms: O_2  and  C_3
REMARK    3  A    between atoms: C_4  and  C_5
REMARK    4  A    between atoms: C_5  and  N_6
REMARK    5  A    between atoms: N_6  and  C_7
REMARK    6  A    between atoms: C_7  and  C_8
REMARK    7  A    between atoms: C_8  and  C_9
REMARK    8  A    between atoms: C_9  and  C_19
REMARK                            x       y       z     vdW  Elec       q    Type
REMARK                         _______ _______ _______ _____ _____    ______ ____
ROOT
ATOM      1  C   UNL     1      -8.201  -1.056 126.202  0.00  0.00    +0.000 C 
ATOM      2  C   UNL     1      -9.428  -1.967 125.955  0.00  0.00    +0.000 C 
ATOM      3  C   UNL     1      -9.045  -3.289 125.270  0.00  0.00    +0.000 C 
ATOM      4  O   UNL     1      -8.304  -3.103 124.051  0.00  0.00    +0.000 OA
ATOM      5  C   UNL     1      -7.098  -2.340 124.185  0.00  0.00    +0.000 C 
ATOM      6  C   UNL     1      -6.458  -2.099 122.793  0.00  0.00    +0.000 C 
ATOM      7  C   UNL     1      -4.992  -2.536 122.898  0.00  0.00    +0.000 C 
ATOM      8  C   UNL     1      -4.971  -3.580 123.978  0.00  0.00    +0.000 C 
ATOM      9  C   UNL     1      -5.987  -3.059 124.942  0.00  0.00    +0.000 C 
ATOM     10  C   UNL     1      -7.452  -1.008 124.827  0.00  0.00    +0.000 C 
ENDROOT
BRANCH   1  11
ATOM     11  C   UNL     1      -7.348  -1.618 127.375  0.00  0.00    +0.000 A 
ATOM     12  N   UNL     1      -7.991  -2.452 128.221  0.00  0.00    +0.000 NA
ATOM     13  C   UNL     1      -7.307  -3.271 129.049  0.00  0.00    +0.000 A 
ATOM     14  C   UNL     1      -5.971  -3.159 129.260  0.00  0.00    +0.000 A 
ATOM     15  C   UNL     1      -5.320  -2.142 128.572  0.00  0.00    +0.000 A 
ATOM     16  C   UNL     1      -6.004  -1.400 127.595  0.00  0.00    +0.000 A 
ENDBRANCH   1  11
BRANCH   1  17
ATOM     17  C   UNL     1      -8.680   0.402 126.501  0.00  0.00    +0.000 C 
BRANCH  17  18
ATOM     18  C   UNL     1      -8.646   1.272 125.222  0.00  0.00    +0.000 C 
BRANCH  18  19
ATOM     19  N   UNL     1      -8.408   2.637 125.535  0.00  0.00    +0.000 NA
ATOM     20  H   UNL     1      -8.081   3.237 124.782  0.00  0.00    +0.000 HD
BRANCH  19  21
ATOM     21  C   UNL     1      -7.816   2.911 126.818  0.00  0.00    +0.000 C 
BRANCH  21  23
ATOM     22  C   UNL     1      -5.710   3.932 125.627  0.00  0.00    +0.000 A 
ATOM     23  C   UNL     1      -6.364   3.214 126.618  0.00  0.00    +0.000 A 
ATOM     24  S   UNL     1      -5.248   2.561 127.757  0.00  0.00    +0.000 S 
ATOM     25  C   UNL     1      -3.910   3.125 126.864  0.00  0.00    +0.000 A 
ATOM     26  C   UNL     1      -4.296   3.825 125.743  0.00  0.00    +0.000 A 
BRANCH  22  28
ATOM     27  C   UNL     1      -5.632   4.239 123.291  0.00  0.00    +0.000 C 
ATOM     28  O   UNL     1      -6.295   4.488 124.530  0.00  0.00    +0.000 OA
ENDBRANCH  22  28
ENDBRANCH  21  23
ENDBRANCH  19  21
ENDBRANCH  18  19
ENDBRANCH  17  18
ENDBRANCH   1  17
TORSDOF 7
ENDMDL
