MODEL 1
REMARK VINA RESULT:      -8.6      0.000      0.000
REMARK  Name = Olmesartan
REMARK  13 active torsions:
REMARK  status: ('A' for Active; 'I' for Inactive)
REMARK    1  A    between atoms: C_1  and  C_2
REMARK    2  A    between atoms: C_2  and  C_3
REMARK    3  A    between atoms: C_3  and  C_4
REMARK    4  A    between atoms: C_6  and  C_30
REMARK    5  A    between atoms: C_7  and  C_27
REMARK    6  A    between atoms: N_8  and  C_9
REMARK    7  A    between atoms: C_9  and  C_10
REMARK    8  A    between atoms: C_13  and  C_16
REMARK    9  A    between atoms: C_17  and  C_22
REMARK   10  A    between atoms: C_27  and  O_28
REMARK   11  A    between atoms: C_30  and  C_31
REMARK   12  A    between atoms: C_30  and  C_32
REMARK   13  A    between atoms: C_30  and  O_33
REMARK                            x       y       z     vdW  Elec       q    Type
REMARK                         _______ _______ _______ _____ _____    ______ ____
ROOT
ATOM      1  C   UNL     1      -8.757  -1.601 125.018  0.00  0.00    +0.000 C 
ENDROOT
BRANCH   1   2
ATOM      2  C   UNL     1      -8.159  -2.134 126.273  0.00  0.00    +0.000 A 
ATOM      3  C   UNL     1      -6.897  -1.707 126.684  0.00  0.00    +0.000 A 
ATOM      4  C   UNL     1      -6.373  -2.194 127.869  0.00  0.00    +0.000 A 
ATOM      5  C   UNL     1      -7.161  -2.955 128.745  0.00  0.00    +0.000 A 
ATOM      6  C   UNL     1      -8.418  -3.391 128.315  0.00  0.00    +0.000 A 
ATOM      7  C   UNL     1      -8.863  -3.069 127.039  0.00  0.00    +0.000 A 
BRANCH   5   8
ATOM      8  C   UNL     1      -6.640  -3.292 130.073  0.00  0.00    +0.000 A 
ATOM      9  C   UNL     1      -6.675  -2.383 131.164  0.00  0.00    +0.000 A 
ATOM     10  C   UNL     1      -6.036  -2.711 132.361  0.00  0.00    +0.000 A 
ATOM     11  C   UNL     1      -5.428  -3.956 132.509  0.00  0.00    +0.000 A 
ATOM     12  C   UNL     1      -5.414  -4.864 131.453  0.00  0.00    +0.000 A 
ATOM     13  C   UNL     1      -6.016  -4.535 130.246  0.00  0.00    +0.000 A 
BRANCH   9  14
ATOM     14  C   UNL     1      -7.505  -1.191 131.137  0.00  0.00    +0.000 A 
ATOM     15  N   UNL     1      -7.485  -0.105 130.394  0.00  0.00    +0.000 NA
ATOM     16  N   UNL     1      -8.592   0.635 130.769  0.00  0.00    +0.000 NA
ATOM     17  N   UNL     1      -9.235   0.049 131.765  0.00  0.00    +0.000 NA
ATOM     18  N   UNL     1      -8.517  -1.048 132.024  0.00  0.00    +0.000 N 
ATOM     19  H   UNL     1      -8.764  -1.693 132.762  0.00  0.00    +0.000 HD
ENDBRANCH   9  14
ENDBRANCH   5   8
ENDBRANCH   1   2
BRANCH   1  24
ATOM     20  C   UNL     1      -6.955  -0.793 123.313  0.00  0.00    +0.000 A 
ATOM     21  N   UNL     1      -6.571   0.406 122.882  0.00  0.00    +0.000 NA
ATOM     22  C   UNL     1      -7.400   1.378 123.483  0.00  0.00    +0.000 A 
ATOM     23  C   UNL     1      -8.324   0.745 124.321  0.00  0.00    +0.000 A 
ATOM     24  N   UNL     1      -8.000  -0.624 124.214  0.00  0.00    +0.000 N 
BRANCH  22  25
ATOM     25  C   UNL     1      -7.254   2.886 123.202  0.00  0.00    +0.000 C 
ATOM     26  C   UNL     1      -6.820   3.735 124.391  0.00  0.00    +0.000 C 
ATOM     27  C   UNL     1      -6.404   3.186 121.967  0.00  0.00    +0.000 C 
BRANCH  25  28
ATOM     28  O   UNL     1      -8.535   3.472 122.886  0.00  0.00    +0.000 OA
ATOM     29  H   UNL     1      -9.028   2.780 122.389  0.00  0.00    +0.000 HD
ENDBRANCH  25  28
ENDBRANCH  22  25
BRANCH  23  30
ATOM     30  C   UNL     1      -9.401   1.207 125.204  0.00  0.00    +0.000 C 
ATOM     31  O   UNL     1      -9.332   1.236 126.436  0.00  0.00    +0.000 OA
BRANCH  30  32
ATOM     32  O   UNL     1     -10.538   1.645 124.646  0.00  0.00    +0.000 OA
ATOM     33  H   UNL     1     -11.067   0.955 124.181  0.00  0.00    +0.000 HD
ENDBRANCH  30  32
ENDBRANCH  23  30
BRANCH  20  34
ATOM     34  C   UNL     1      -6.366  -2.166 122.974  0.00  0.00    +0.000 C 
BRANCH  34  36
ATOM     35  C   UNL     1      -5.187  -4.057 124.116  0.00  0.00    +0.000 C 
ATOM     36  C   UNL     1      -5.063  -2.626 123.603  0.00  0.00    +0.000 C 
ENDBRANCH  34  36
ENDBRANCH  20  34
ENDBRANCH   1  24
TORSDOF 10
ENDMDL
MODEL 2
REMARK VINA RESULT:      -7.8      6.511      9.126
REMARK  Name = Olmesartan
REMARK  13 active torsions:
REMARK  status: ('A' for Active; 'I' for Inactive)
REMARK    1  A    between atoms: C_1  and  C_2
REMARK    2  A    between atoms: C_2  and  C_3
REMARK    3  A    between atoms: C_3  and  C_4
REMARK    4  A    between atoms: C_6  and  C_30
REMARK    5  A    between atoms: C_7  and  C_27
REMARK    6  A    between atoms: N_8  and  C_9
REMARK    7  A    between atoms: C_9  and  C_10
REMARK    8  A    between atoms: C_13  and  C_16
REMARK    9  A    between atoms: C_17  and  C_22
REMARK   10  A    between atoms: C_27  and  O_28
REMARK   11  A    between atoms: C_30  and  C_31
REMARK   12  A    between atoms: C_30  and  C_32
REMARK   13  A    between atoms: C_30  and  O_33
REMARK                            x       y       z     vdW  Elec       q    Type
REMARK                         _______ _______ _______ _____ _____    ______ ____
ROOT
ATOM      1  C   UNL     1      -6.866   2.820 130.743  0.00  0.00    +0.000 C 
ENDROOT
BRANCH   1   2
ATOM      2  C   UNL     1      -7.951   3.820 130.544  0.00  0.00    +0.000 A 
ATOM      3  C   UNL     1      -9.273   3.400 130.407  0.00  0.00    +0.000 A 
ATOM      4  C   UNL     1     -10.269   4.349 130.252  0.00  0.00    +0.000 A 
ATOM      5  C   UNL     1      -9.994   5.715 130.420  0.00  0.00    +0.000 A 
ATOM      6  C   UNL     1      -8.663   6.124 130.540  0.00  0.00    +0.000 A 
ATOM      7  C   UNL     1      -7.642   5.183 130.492  0.00  0.00    +0.000 A 
BRANCH   5   8
ATOM      8  C   UNL     1     -11.102   6.674 130.440  0.00  0.00    +0.000 A 
ATOM      9  C   UNL     1     -11.408   7.516 129.337  0.00  0.00    +0.000 A 
ATOM     10  C   UNL     1     -12.383   8.505 129.468  0.00  0.00    +0.000 A 
ATOM     11  C   UNL     1     -13.104   8.620 130.655  0.00  0.00    +0.000 A 
ATOM     12  C   UNL     1     -12.830   7.780 131.731  0.00  0.00    +0.000 A 
ATOM     13  C   UNL     1     -11.838   6.814 131.624  0.00  0.00    +0.000 A 
BRANCH   9  14
ATOM     14  C   UNL     1     -10.860   7.267 128.014  0.00  0.00    +0.000 A 
ATOM     15  N   UNL     1      -9.941   6.437 127.569  0.00  0.00    +0.000 NA
ATOM     16  N   UNL     1      -9.922   6.590 126.194  0.00  0.00    +0.000 NA
ATOM     17  N   UNL     1     -10.760   7.540 125.814  0.00  0.00    +0.000 NA
ATOM     18  N   UNL     1     -11.288   7.993 126.955  0.00  0.00    +0.000 N 
ATOM     19  H   UNL     1     -11.960   8.747 126.977  0.00  0.00    +0.000 HD
ENDBRANCH   9  14
ENDBRANCH   5   8
ENDBRANCH   1   2
BRANCH   1  24
ATOM     20  C   UNL     1      -4.341   3.444 130.529  0.00  0.00    +0.000 A 
ATOM     21  N   UNL     1      -3.492   3.495 129.506  0.00  0.00    +0.000 NA
ATOM     22  C   UNL     1      -4.168   3.052 128.348  0.00  0.00    +0.000 A 
ATOM     23  C   UNL     1      -5.487   2.723 128.678  0.00  0.00    +0.000 A 
ATOM     24  N   UNL     1      -5.574   3.007 130.057  0.00  0.00    +0.000 N 
BRANCH  22  25
ATOM     25  C   UNL     1      -3.486   2.964 126.969  0.00  0.00    +0.000 C 
ATOM     26  C   UNL     1      -4.059   3.881 125.895  0.00  0.00    +0.000 C 
ATOM     27  C   UNL     1      -1.964   3.081 127.044  0.00  0.00    +0.000 C 
BRANCH  25  28
ATOM     28  O   UNL     1      -3.700   1.664 126.377  0.00  0.00    +0.000 OA
ATOM     29  H   UNL     1      -3.498   1.013 127.087  0.00  0.00    +0.000 HD
ENDBRANCH  25  28
ENDBRANCH  22  25
BRANCH  23  30
ATOM     30  C   UNL     1      -6.647   2.237 127.924  0.00  0.00    +0.000 C 
ATOM     31  O   UNL     1      -7.416   2.958 127.281  0.00  0.00    +0.000 OA
BRANCH  30  32
ATOM     32  O   UNL     1      -6.893   0.920 127.912  0.00  0.00    +0.000 OA
ATOM     33  H   UNL     1      -6.851   0.481 128.794  0.00  0.00    +0.000 HD
ENDBRANCH  30  32
ENDBRANCH  23  30
BRANCH  20  34
ATOM     34  C   UNL     1      -4.104   3.835 131.991  0.00  0.00    +0.000 C 
BRANCH  34  36
ATOM     35  C   UNL     1      -1.744   4.319 132.672  0.00  0.00    +0.000 C 
ATOM     36  C   UNL     1      -2.892   3.317 132.744  0.00  0.00    +0.000 C 
ENDBRANCH  34  36
ENDBRANCH  20  34
ENDBRANCH   1  24
TORSDOF 10
ENDMDL
MODEL 3
REMARK VINA RESULT:      -7.8      5.935      8.197
REMARK  Name = Olmesartan
REMARK  13 active torsions:
REMARK  status: ('A' for Active; 'I' for Inactive)
REMARK    1  A    between atoms: C_1  and  C_2
REMARK    2  A    between atoms: C_2  and  C_3
REMARK    3  A    between atoms: C_3  and  C_4
REMARK    4  A    between atoms: C_6  and  C_30
REMARK    5  A    between atoms: C_7  and  C_27
REMARK    6  A    between atoms: N_8  and  C_9
REMARK    7  A    between atoms: C_9  and  C_10
REMARK    8  A    between atoms: C_13  and  C_16
REMARK    9  A    between atoms: C_17  and  C_22
REMARK   10  A    between atoms: C_27  and  O_28
REMARK   11  A    between atoms: C_30  and  C_31
REMARK   12  A    between atoms: C_30  and  C_32
REMARK   13  A    between atoms: C_30  and  O_33
REMARK                            x       y       z     vdW  Elec       q    Type
REMARK                         _______ _______ _______ _____ _____    ______ ____
ROOT
ATOM      1  C   UNL     1      -7.396   2.755 129.739  0.00  0.00    +0.000 C 
ENDROOT
BRANCH   1   2
ATOM      2  C   UNL     1      -8.434   3.767 130.077  0.00  0.00    +0.000 A 
ATOM      3  C   UNL     1      -8.065   5.081 130.362  0.00  0.00    +0.000 A 
ATOM      4  C   UNL     1      -9.049   6.013 130.645  0.00  0.00    +0.000 A 
ATOM      5  C   UNL     1     -10.405   5.703 130.464  0.00  0.00    +0.000 A 
ATOM      6  C   UNL     1     -10.764   4.379 130.195  0.00  0.00    +0.000 A 
ATOM      7  C   UNL     1      -9.784   3.399 130.110  0.00  0.00    +0.000 A 
BRANCH   5   8
ATOM      8  C   UNL     1     -11.408   6.766 130.586  0.00  0.00    +0.000 A 
ATOM      9  C   UNL     1     -11.724   7.649 129.520  0.00  0.00    +0.000 A 
ATOM     10  C   UNL     1     -12.583   8.726 129.742  0.00  0.00    +0.000 A 
ATOM     11  C   UNL     1     -13.183   8.893 130.988  0.00  0.00    +0.000 A 
ATOM     12  C   UNL     1     -12.901   8.016 132.031  0.00  0.00    +0.000 A 
ATOM     13  C   UNL     1     -12.021   6.960 131.832  0.00  0.00    +0.000 A 
BRANCH   9  14
ATOM     14  C   UNL     1     -11.320   7.367 128.153  0.00  0.00    +0.000 A 
ATOM     15  N   UNL     1     -10.145   7.194 127.586  0.00  0.00    +0.000 NA
ATOM     16  N   UNL     1     -10.402   6.855 126.269  0.00  0.00    +0.000 NA
ATOM     17  N   UNL     1     -11.700   6.888 126.019  0.00  0.00    +0.000 NA
ATOM     18  N   UNL     1     -12.252   7.267 127.177  0.00  0.00    +0.000 N 
ATOM     19  H   UNL     1     -13.249   7.396 127.283  0.00  0.00    +0.000 HD
ENDBRANCH   9  14
ENDBRANCH   5   8
ENDBRANCH   1   2
BRANCH   1  24
ATOM     20  C   UNL     1      -7.715   0.592 128.315  0.00  0.00    +0.000 A 
ATOM     21  N   UNL     1      -7.731   0.349 127.007  0.00  0.00    +0.000 NA
ATOM     22  C   UNL     1      -7.595   1.578 126.327  0.00  0.00    +0.000 A 
ATOM     23  C   UNL     1      -7.485   2.615 127.260  0.00  0.00    +0.000 A 
ATOM     24  N   UNL     1      -7.536   1.957 128.507  0.00  0.00    +0.000 N 
BRANCH  22  25
ATOM     25  C   UNL     1      -7.588   1.682 124.789  0.00  0.00    +0.000 C 
ATOM     26  C   UNL     1      -6.471   2.535 124.196  0.00  0.00    +0.000 C 
ATOM     27  C   UNL     1      -7.676   0.323 124.096  0.00  0.00    +0.000 C 
BRANCH  25  28
ATOM     28  O   UNL     1      -8.760   2.383 124.321  0.00  0.00    +0.000 OA
ATOM     29  H   UNL     1      -8.805   2.207 123.354  0.00  0.00    +0.000 HD
ENDBRANCH  25  28
ENDBRANCH  22  25
BRANCH  23  30
ATOM     30  C   UNL     1      -7.308   4.068 127.170  0.00  0.00    +0.000 C 
ATOM     31  O   UNL     1      -6.228   4.652 127.308  0.00  0.00    +0.000 OA
BRANCH  30  32
ATOM     32  O   UNL     1      -8.381   4.825 126.906  0.00  0.00    +0.000 OA
ATOM     33  H   UNL     1      -9.235   4.471 127.248  0.00  0.00    +0.000 HD
ENDBRANCH  30  32
ENDBRANCH  23  30
BRANCH  20  34
ATOM     34  C   UNL     1      -7.810  -0.403 129.476  0.00  0.00    +0.000 C 
BRANCH  34  36
ATOM     35  C   UNL     1      -8.154  -2.882 129.384  0.00  0.00    +0.000 C 
ATOM     36  C   UNL     1      -7.126  -1.755 129.394  0.00  0.00    +0.000 C 
ENDBRANCH  34  36
ENDBRANCH  20  34
ENDBRANCH   1  24
TORSDOF 10
ENDMDL
MODEL 4
REMARK VINA RESULT:      -7.7      7.521      9.305
REMARK  Name = Olmesartan
REMARK  13 active torsions:
REMARK  status: ('A' for Active; 'I' for Inactive)
REMARK    1  A    between atoms: C_1  and  C_2
REMARK    2  A    between atoms: C_2  and  C_3
REMARK    3  A    between atoms: C_3  and  C_4
REMARK    4  A    between atoms: C_6  and  C_30
REMARK    5  A    between atoms: C_7  and  C_27
REMARK    6  A    between atoms: N_8  and  C_9
REMARK    7  A    between atoms: C_9  and  C_10
REMARK    8  A    between atoms: C_13  and  C_16
REMARK    9  A    between atoms: C_17  and  C_22
REMARK   10  A    between atoms: C_27  and  O_28
REMARK   11  A    between atoms: C_30  and  C_31
REMARK   12  A    between atoms: C_30  and  C_32
REMARK   13  A    between atoms: C_30  and  O_33
REMARK                            x       y       z     vdW  Elec       q    Type
REMARK                         _______ _______ _______ _____ _____    ______ ____
ROOT
ATOM      1  C   UNL     1      -8.496   4.636 131.397  0.00  0.00    +0.000 C 
ENDROOT
BRANCH   1   2
ATOM      2  C   UNL     1      -7.136   5.116 131.766  0.00  0.00    +0.000 A 
ATOM      3  C   UNL     1      -6.199   4.229 132.294  0.00  0.00    +0.000 A 
ATOM      4  C   UNL     1      -4.931   4.691 132.603  0.00  0.00    +0.000 A 
ATOM      5  C   UNL     1      -4.522   5.978 132.221  0.00  0.00    +0.000 A 
ATOM      6  C   UNL     1      -5.475   6.864 131.708  0.00  0.00    +0.000 A 
ATOM      7  C   UNL     1      -6.798   6.462 131.586  0.00  0.00    +0.000 A 
BRANCH   5   8
ATOM      8  C   UNL     1      -3.119   6.366 132.391  0.00  0.00    +0.000 A 
ATOM      9  C   UNL     1      -2.151   6.214 131.363  0.00  0.00    +0.000 A 
ATOM     10  C   UNL     1      -0.805   6.470 131.633  0.00  0.00    +0.000 A 
ATOM     11  C   UNL     1      -0.424   6.940 132.888  0.00  0.00    +0.000 A 
ATOM     12  C   UNL     1      -1.370   7.119 133.893  0.00  0.00    +0.000 A 
ATOM     13  C   UNL     1      -2.707   6.835 133.646  0.00  0.00    +0.000 A 
BRANCH   9  14
ATOM     14  C   UNL     1      -2.536   5.969 129.984  0.00  0.00    +0.000 A 
ATOM     15  N   UNL     1      -2.699   4.866 129.284  0.00  0.00    +0.000 NA
ATOM     16  N   UNL     1      -3.171   5.264 128.047  0.00  0.00    +0.000 NA
ATOM     17  N   UNL     1      -3.230   6.583 127.967  0.00  0.00    +0.000 NA
ATOM     18  N   UNL     1      -2.775   7.008 129.151  0.00  0.00    +0.000 N 
ATOM     19  H   UNL     1      -2.690   7.989 129.375  0.00  0.00    +0.000 HD
ENDBRANCH   9  14
ENDBRANCH   5   8
ENDBRANCH   1   2
BRANCH   1  24
ATOM     20  C   UNL     1      -8.874   5.137 128.864  0.00  0.00    +0.000 A 
ATOM     21  N   UNL     1      -9.758   5.874 128.196  0.00  0.00    +0.000 NA
ATOM     22  C   UNL     1     -10.673   6.415 129.125  0.00  0.00    +0.000 A 
ATOM     23  C   UNL     1     -10.329   5.995 130.414  0.00  0.00    +0.000 A 
ATOM     24  N   UNL     1      -9.172   5.212 130.220  0.00  0.00    +0.000 N 
BRANCH  22  25
ATOM     25  C   UNL     1     -11.852   7.314 128.703  0.00  0.00    +0.000 C 
ATOM     26  C   UNL     1     -11.860   8.711 129.314  0.00  0.00    +0.000 C 
ATOM     27  C   UNL     1     -12.052   7.370 127.189  0.00  0.00    +0.000 C 
BRANCH  25  28
ATOM     28  O   UNL     1     -13.100   6.781 129.194  0.00  0.00    +0.000 OA
ATOM     29  H   UNL     1     -13.805   7.263 128.706  0.00  0.00    +0.000 HD
ENDBRANCH  25  28
ENDBRANCH  22  25
BRANCH  23  30
ATOM     30  C   UNL     1     -10.872   6.234 131.755  0.00  0.00    +0.000 C 
ATOM     31  O   UNL     1     -10.209   6.629 132.719  0.00  0.00    +0.000 OA
BRANCH  30  32
ATOM     32  O   UNL     1     -12.181   6.029 131.958  0.00  0.00    +0.000 OA
ATOM     33  H   UNL     1     -12.559   5.253 131.483  0.00  0.00    +0.000 HD
ENDBRANCH  30  32
ENDBRANCH  23  30
BRANCH  20  34
ATOM     34  C   UNL     1      -7.671   4.358 128.321  0.00  0.00    +0.000 C 
BRANCH  34  36
ATOM     35  C   UNL     1      -6.990   2.106 129.179  0.00  0.00    +0.000 C 
ATOM     36  C   UNL     1      -7.758   2.859 128.097  0.00  0.00    +0.000 C 
ENDBRANCH  34  36
ENDBRANCH  20  34
ENDBRANCH   1  24
TORSDOF 10
ENDMDL
MODEL 5
REMARK VINA RESULT:      -7.7      4.467      6.695
REMARK  Name = Olmesartan
REMARK  13 active torsions:
REMARK  status: ('A' for Active; 'I' for Inactive)
REMARK    1  A    between atoms: C_1  and  C_2
REMARK    2  A    between atoms: C_2  and  C_3
REMARK    3  A    between atoms: C_3  and  C_4
REMARK    4  A    between atoms: C_6  and  C_30
REMARK    5  A    between atoms: C_7  and  C_27
REMARK    6  A    between atoms: N_8  and  C_9
REMARK    7  A    between atoms: C_9  and  C_10
REMARK    8  A    between atoms: C_13  and  C_16
REMARK    9  A    between atoms: C_17  and  C_22
REMARK   10  A    between atoms: C_27  and  O_28
REMARK   11  A    between atoms: C_30  and  C_31
REMARK   12  A    between atoms: C_30  and  C_32
REMARK   13  A    between atoms: C_30  and  O_33
REMARK                            x       y       z     vdW  Elec       q    Type
REMARK                         _______ _______ _______ _____ _____    ______ ____
ROOT
ATOM      1  C   UNL     1      -6.820   1.653 126.033  0.00  0.00    +0.000 C 
ENDROOT
BRANCH   1   2
ATOM      2  C   UNL     1      -7.292   2.442 127.204  0.00  0.00    +0.000 A 
ATOM      3  C   UNL     1      -8.309   1.947 128.019  0.00  0.00    +0.000 A 
ATOM      4  C   UNL     1      -8.712   2.684 129.119  0.00  0.00    +0.000 A 
ATOM      5  C   UNL     1      -7.991   3.816 129.529  0.00  0.00    +0.000 A 
ATOM      6  C   UNL     1      -6.984   4.312 128.695  0.00  0.00    +0.000 A 
ATOM      7  C   UNL     1      -6.714   3.685 127.486  0.00  0.00    +0.000 A 
BRANCH   5   8
ATOM      8  C   UNL     1      -8.327   4.460 130.802  0.00  0.00    +0.000 A 
ATOM      9  C   UNL     1      -9.208   5.571 130.890  0.00  0.00    +0.000 A 
ATOM     10  C   UNL     1      -9.377   6.227 132.110  0.00  0.00    +0.000 A 
ATOM     11  C   UNL     1      -8.738   5.750 133.253  0.00  0.00    +0.000 A 
ATOM     12  C   UNL     1      -7.895   4.645 133.181  0.00  0.00    +0.000 A 
ATOM     13  C   UNL     1      -7.693   4.004 131.965  0.00  0.00    +0.000 A 
BRANCH   9  14
ATOM     14  C   UNL     1     -10.079   5.943 129.788  0.00  0.00    +0.000 A 
ATOM     15  N   UNL     1      -9.844   6.446 128.594  0.00  0.00    +0.000 NA
ATOM     16  N   UNL     1     -11.068   6.491 127.951  0.00  0.00    +0.000 NA
ATOM     17  N   UNL     1     -12.038   6.090 128.756  0.00  0.00    +0.000 NA
ATOM     18  N   UNL     1     -11.420   5.813 129.909  0.00  0.00    +0.000 N 
ATOM     19  H   UNL     1     -11.921   5.496 130.727  0.00  0.00    +0.000 HD
ENDBRANCH   9  14
ENDBRANCH   5   8
ENDBRANCH   1   2
BRANCH   1  24
ATOM     20  C   UNL     1      -8.790   0.800 124.551  0.00  0.00    +0.000 A 
ATOM     21  N   UNL     1      -9.319  -0.400 124.328  0.00  0.00    +0.000 NA
ATOM     22  C   UNL     1      -8.562  -1.355 125.041  0.00  0.00    +0.000 A 
ATOM     23  C   UNL     1      -7.531  -0.709 125.731  0.00  0.00    +0.000 A 
ATOM     24  N   UNL     1      -7.718   0.655 125.423  0.00  0.00    +0.000 N 
BRANCH  22  25
ATOM     25  C   UNL     1      -8.879  -2.863 125.005  0.00  0.00    +0.000 C 
ATOM     26  C   UNL     1      -7.771  -3.752 124.451  0.00  0.00    +0.000 C 
ATOM     27  C   UNL     1      -9.405  -3.397 126.337  0.00  0.00    +0.000 C 
BRANCH  25  28
ATOM     28  O   UNL     1      -9.952  -3.136 124.079  0.00  0.00    +0.000 OA
ATOM     29  H   UNL     1     -10.350  -3.985 124.377  0.00  0.00    +0.000 HD
ENDBRANCH  25  28
ENDBRANCH  22  25
BRANCH  23  30
ATOM     30  C   UNL     1      -6.459  -1.148 126.630  0.00  0.00    +0.000 C 
ATOM     31  O   UNL     1      -5.295  -1.365 126.278  0.00  0.00    +0.000 OA
BRANCH  30  32
ATOM     32  O   UNL     1      -6.744  -1.314 127.929  0.00  0.00    +0.000 OA
ATOM     33  H   UNL     1      -7.061  -0.504 128.392  0.00  0.00    +0.000 HD
ENDBRANCH  30  32
ENDBRANCH  23  30
BRANCH  20  34
ATOM     34  C   UNL     1      -9.253   2.163 124.025  0.00  0.00    +0.000 C 
BRANCH  34  36
ATOM     35  C   UNL     1      -7.369   3.049 122.634  0.00  0.00    +0.000 C 
ATOM     36  C   UNL     1      -8.839   2.642 122.646  0.00  0.00    +0.000 C 
ENDBRANCH  34  36
ENDBRANCH  20  34
ENDBRANCH   1  24
TORSDOF 10
ENDMDL
MODEL 6
REMARK VINA RESULT:      -7.6      4.235      7.300
REMARK  Name = Olmesartan
REMARK  13 active torsions:
REMARK  status: ('A' for Active; 'I' for Inactive)
REMARK    1  A    between atoms: C_1  and  C_2
REMARK    2  A    between atoms: C_2  and  C_3
REMARK    3  A    between atoms: C_3  and  C_4
REMARK    4  A    between atoms: C_6  and  C_30
REMARK    5  A    between atoms: C_7  and  C_27
REMARK    6  A    between atoms: N_8  and  C_9
REMARK    7  A    between atoms: C_9  and  C_10
REMARK    8  A    between atoms: C_13  and  C_16
REMARK    9  A    between atoms: C_17  and  C_22
REMARK   10  A    between atoms: C_27  and  O_28
REMARK   11  A    between atoms: C_30  and  C_31
REMARK   12  A    between atoms: C_30  and  C_32
REMARK   13  A    between atoms: C_30  and  O_33
REMARK                            x       y       z     vdW  Elec       q    Type
REMARK                         _______ _______ _______ _____ _____    ______ ____
ROOT
ATOM      1  C   UNL     1      -6.215   4.293 126.958  0.00  0.00    +0.000 C 
ENDROOT
BRANCH   1   2
ATOM      2  C   UNL     1      -6.190   2.915 126.394  0.00  0.00    +0.000 A 
ATOM      3  C   UNL     1      -6.216   1.810 127.244  0.00  0.00    +0.000 A 
ATOM      4  C   UNL     1      -6.222   0.539 126.697  0.00  0.00    +0.000 A 
ATOM      5  C   UNL     1      -6.393   0.350 125.317  0.00  0.00    +0.000 A 
ATOM      6  C   UNL     1      -6.348   1.465 124.474  0.00  0.00    +0.000 A 
ATOM      7  C   UNL     1      -6.139   2.729 125.008  0.00  0.00    +0.000 A 
BRANCH   5   8
ATOM      8  C   UNL     1      -6.587  -1.006 124.795  0.00  0.00    +0.000 A 
ATOM      9  C   UNL     1      -7.858  -1.500 124.398  0.00  0.00    +0.000 A 
ATOM     10  C   UNL     1      -8.001  -2.843 124.044  0.00  0.00    +0.000 A 
ATOM     11  C   UNL     1      -6.886  -3.677 124.012  0.00  0.00    +0.000 A 
ATOM     12  C   UNL     1      -5.631  -3.193 124.372  0.00  0.00    +0.000 A 
ATOM     13  C   UNL     1      -5.482  -1.868 124.759  0.00  0.00    +0.000 A 
BRANCH   9  14
ATOM     14  C   UNL     1      -8.987  -0.612 124.179  0.00  0.00    +0.000 A 
ATOM     15  N   UNL     1      -9.774   0.051 124.999  0.00  0.00    +0.000 NA
ATOM     16  N   UNL     1     -10.609   0.810 124.197  0.00  0.00    +0.000 NA
ATOM     17  N   UNL     1     -10.383   0.565 122.917  0.00  0.00    +0.000 NA
ATOM     18  N   UNL     1      -9.420  -0.363 122.922  0.00  0.00    +0.000 N 
ATOM     19  H   UNL     1      -9.051  -0.761 122.069  0.00  0.00    +0.000 HD
ENDBRANCH   9  14
ENDBRANCH   5   8
ENDBRANCH   1   2
BRANCH   1  24
ATOM     20  C   UNL     1      -4.690   4.598 129.053  0.00  0.00    +0.000 A 
ATOM     21  N   UNL     1      -4.933   4.725 130.355  0.00  0.00    +0.000 NA
ATOM     22  C   UNL     1      -6.332   4.743 130.542  0.00  0.00    +0.000 A 
ATOM     23  C   UNL     1      -6.968   4.614 129.304  0.00  0.00    +0.000 A 
ATOM     24  N   UNL     1      -5.904   4.497 128.385  0.00  0.00    +0.000 N 
BRANCH  22  25
ATOM     25  C   UNL     1      -6.983   4.894 131.931  0.00  0.00    +0.000 C 
ATOM     26  C   UNL     1      -6.049   4.687 133.118  0.00  0.00    +0.000 C 
ATOM     27  C   UNL     1      -7.789   6.184 132.079  0.00  0.00    +0.000 C 
BRANCH  25  28
ATOM     28  O   UNL     1      -7.959   3.853 132.152  0.00  0.00    +0.000 OA
ATOM     29  H   UNL     1      -8.825   4.244 131.897  0.00  0.00    +0.000 HD
ENDBRANCH  25  28
ENDBRANCH  22  25
BRANCH  23  30
ATOM     30  C   UNL     1      -8.366   4.549 128.865  0.00  0.00    +0.000 C 
ATOM     31  O   UNL     1      -8.948   5.446 128.246  0.00  0.00    +0.000 OA
BRANCH  30  32
ATOM     32  O   UNL     1      -9.067   3.439 129.133  0.00  0.00    +0.000 OA
ATOM     33  H   UNL     1      -8.582   2.754 129.649  0.00  0.00    +0.000 HD
ENDBRANCH  30  32
ENDBRANCH  23  30
BRANCH  20  34
ATOM     34  C   UNL     1      -3.339   4.509 128.335  0.00  0.00    +0.000 C 
BRANCH  34  36
ATOM     35  C   UNL     1      -2.051   3.307 126.555  0.00  0.00    +0.000 C 
ATOM     36  C   UNL     1      -2.790   3.168 127.882  0.00  0.00    +0.000 C 
ENDBRANCH  34  36
ENDBRANCH  20  34
ENDBRANCH   1  24
TORSDOF 10
ENDMDL
MODEL 7
REMARK VINA RESULT:      -7.6      2.642      7.460
REMARK  Name = Olmesartan
REMARK  13 active torsions:
REMARK  status: ('A' for Active; 'I' for Inactive)
REMARK    1  A    between atoms: C_1  and  C_2
REMARK    2  A    between atoms: C_2  and  C_3
REMARK    3  A    between atoms: C_3  and  C_4
REMARK    4  A    between atoms: C_6  and  C_30
REMARK    5  A    between atoms: C_7  and  C_27
REMARK    6  A    between atoms: N_8  and  C_9
REMARK    7  A    between atoms: C_9  and  C_10
REMARK    8  A    between atoms: C_13  and  C_16
REMARK    9  A    between atoms: C_17  and  C_22
REMARK   10  A    between atoms: C_27  and  O_28
REMARK   11  A    between atoms: C_30  and  C_31
REMARK   12  A    between atoms: C_30  and  C_32
REMARK   13  A    between atoms: C_30  and  O_33
REMARK                            x       y       z     vdW  Elec       q    Type
REMARK                         _______ _______ _______ _____ _____    ______ ____
ROOT
ATOM      1  C   UNL     1      -7.933  -2.537 130.712  0.00  0.00    +0.000 C 
ENDROOT
BRANCH   1   2
ATOM      2  C   UNL     1      -7.522  -2.557 129.282  0.00  0.00    +0.000 A 
ATOM      3  C   UNL     1      -8.341  -3.155 128.325  0.00  0.00    +0.000 A 
ATOM      4  C   UNL     1      -7.952  -3.135 126.997  0.00  0.00    +0.000 A 
ATOM      5  C   UNL     1      -6.855  -2.367 126.580  0.00  0.00    +0.000 A 
ATOM      6  C   UNL     1      -6.032  -1.786 127.549  0.00  0.00    +0.000 A 
ATOM      7  C   UNL     1      -6.309  -1.975 128.897  0.00  0.00    +0.000 A 
BRANCH   5   8
ATOM      8  C   UNL     1      -6.587  -2.215 125.147  0.00  0.00    +0.000 A 
ATOM      9  C   UNL     1      -7.433  -1.470 124.283  0.00  0.00    +0.000 A 
ATOM     10  C   UNL     1      -7.202  -1.480 122.906  0.00  0.00    +0.000 A 
ATOM     11  C   UNL     1      -6.102  -2.162 122.389  0.00  0.00    +0.000 A 
ATOM     12  C   UNL     1      -5.252  -2.872 123.232  0.00  0.00    +0.000 A 
ATOM     13  C   UNL     1      -5.491  -2.897 124.600  0.00  0.00    +0.000 A 
BRANCH   9  14
ATOM     14  C   UNL     1      -8.431  -0.550 124.801  0.00  0.00    +0.000 A 
ATOM     15  N   UNL     1      -9.719  -0.675 125.047  0.00  0.00    +0.000 NA
ATOM     16  N   UNL     1     -10.114   0.516 125.629  0.00  0.00    +0.000 NA
ATOM     17  N   UNL     1      -9.108   1.375 125.675  0.00  0.00    +0.000 NA
ATOM     18  N   UNL     1      -8.090   0.724 125.103  0.00  0.00    +0.000 N 
ATOM     19  H   UNL     1      -7.180   1.146 124.981  0.00  0.00    +0.000 HD
ENDBRANCH   9  14
ENDBRANCH   5   8
ENDBRANCH   1   2
BRANCH   1  24
ATOM     20  C   UNL     1      -6.062  -2.213 132.501  0.00  0.00    +0.000 A 
ATOM     21  N   UNL     1      -5.683  -1.185 133.257  0.00  0.00    +0.000 NA
ATOM     22  C   UNL     1      -6.477  -0.069 132.915  0.00  0.00    +0.000 A 
ATOM     23  C   UNL     1      -7.382  -0.433 131.913  0.00  0.00    +0.000 A 
ATOM     24  N   UNL     1      -7.114  -1.800 131.692  0.00  0.00    +0.000 N 
BRANCH  22  25
ATOM     25  C   UNL     1      -6.306   1.309 133.583  0.00  0.00    +0.000 C 
ATOM     26  C   UNL     1      -5.698   1.289 134.981  0.00  0.00    +0.000 C 
ATOM     27  C   UNL     1      -5.600   2.326 132.687  0.00  0.00    +0.000 C 
BRANCH  25  28
ATOM     28  O   UNL     1      -7.591   1.914 133.841  0.00  0.00    +0.000 OA
ATOM     29  H   UNL     1      -8.172   1.626 133.100  0.00  0.00    +0.000 HD
ENDBRANCH  25  28
ENDBRANCH  22  25
BRANCH  23  30
ATOM     30  C   UNL     1      -8.446   0.264 131.182  0.00  0.00    +0.000 C 
ATOM     31  O   UNL     1      -8.325   0.727 130.044  0.00  0.00    +0.000 OA
BRANCH  30  32
ATOM     32  O   UNL     1      -9.641   0.401 131.773  0.00  0.00    +0.000 OA
ATOM     33  H   UNL     1     -10.215   1.105 131.392  0.00  0.00    +0.000 HD
ENDBRANCH  30  32
ENDBRANCH  23  30
BRANCH  20  34
ATOM     34  C   UNL     1      -5.527  -3.648 132.499  0.00  0.00    +0.000 C 
BRANCH  34  36
ATOM     35  C   UNL     1      -5.557  -5.375 130.685  0.00  0.00    +0.000 C 
ATOM     36  C   UNL     1      -4.795  -4.199 131.289  0.00  0.00    +0.000 C 
ENDBRANCH  34  36
ENDBRANCH  20  34
ENDBRANCH   1  24
TORSDOF 10
ENDMDL
MODEL 8
REMARK VINA RESULT:      -7.5      4.415      6.361
REMARK  Name = Olmesartan
REMARK  13 active torsions:
REMARK  status: ('A' for Active; 'I' for Inactive)
REMARK    1  A    between atoms: C_1  and  C_2
REMARK    2  A    between atoms: C_2  and  C_3
REMARK    3  A    between atoms: C_3  and  C_4
REMARK    4  A    between atoms: C_6  and  C_30
REMARK    5  A    between atoms: C_7  and  C_27
REMARK    6  A    between atoms: N_8  and  C_9
REMARK    7  A    between atoms: C_9  and  C_10
REMARK    8  A    between atoms: C_13  and  C_16
REMARK    9  A    between atoms: C_17  and  C_22
REMARK   10  A    between atoms: C_27  and  O_28
REMARK   11  A    between atoms: C_30  and  C_31
REMARK   12  A    between atoms: C_30  and  C_32
REMARK   13  A    between atoms: C_30  and  O_33
REMARK                            x       y       z     vdW  Elec       q    Type
REMARK                         _______ _______ _______ _____ _____    ______ ____
ROOT
ATOM      1  C   UNL     1      -7.373   1.939 126.386  0.00  0.00    +0.000 C 
ENDROOT
BRANCH   1   2
ATOM      2  C   UNL     1      -7.647   2.552 127.715  0.00  0.00    +0.000 A 
ATOM      3  C   UNL     1      -8.666   2.049 128.522  0.00  0.00    +0.000 A 
ATOM      4  C   UNL     1      -8.884   2.616 129.766  0.00  0.00    +0.000 A 
ATOM      5  C   UNL     1      -7.983   3.551 130.298  0.00  0.00    +0.000 A 
ATOM      6  C   UNL     1      -6.975   4.060 129.473  0.00  0.00    +0.000 A 
ATOM      7  C   UNL     1      -6.881   3.638 128.154  0.00  0.00    +0.000 A 
BRANCH   5   8
ATOM      8  C   UNL     1      -8.136   3.986 131.689  0.00  0.00    +0.000 A 
ATOM      9  C   UNL     1      -8.460   5.323 132.043  0.00  0.00    +0.000 A 
ATOM     10  C   UNL     1      -8.453   5.707 133.385  0.00  0.00    +0.000 A 
ATOM     11  C   UNL     1      -8.198   4.764 134.378  0.00  0.00    +0.000 A 
ATOM     12  C   UNL     1      -7.907   3.445 134.041  0.00  0.00    +0.000 A 
ATOM     13  C   UNL     1      -7.878   3.059 132.708  0.00  0.00    +0.000 A 
BRANCH   9  14
ATOM     14  C   UNL     1      -8.972   6.268 131.065  0.00  0.00    +0.000 A 
ATOM     15  N   UNL     1      -8.407   7.239 130.380  0.00  0.00    +0.000 NA
ATOM     16  N   UNL     1      -9.383   7.724 129.529  0.00  0.00    +0.000 NA
ATOM     17  N   UNL     1     -10.537   7.112 129.736  0.00  0.00    +0.000 NA
ATOM     18  N   UNL     1     -10.284   6.256 130.732  0.00  0.00    +0.000 N 
ATOM     19  H   UNL     1     -10.997   5.655 131.121  0.00  0.00    +0.000 HD
ENDBRANCH   9  14
ENDBRANCH   5   8
ENDBRANCH   1   2
BRANCH   1  24
ATOM     20  C   UNL     1      -6.553  -0.506 126.779  0.00  0.00    +0.000 A 
ATOM     21  N   UNL     1      -6.946  -1.691 126.318  0.00  0.00    +0.000 NA
ATOM     22  C   UNL     1      -8.078  -1.493 125.499  0.00  0.00    +0.000 A 
ATOM     23  C   UNL     1      -8.385  -0.129 125.453  0.00  0.00    +0.000 A 
ATOM     24  N   UNL     1      -7.387   0.472 126.249  0.00  0.00    +0.000 N 
BRANCH  22  25
ATOM     25  C   UNL     1      -8.816  -2.654 124.803  0.00  0.00    +0.000 C 
ATOM     26  C   UNL     1      -9.156  -2.427 123.335  0.00  0.00    +0.000 C 
ATOM     27  C   UNL     1      -8.135  -4.007 125.012  0.00  0.00    +0.000 C 
BRANCH  25  28
ATOM     28  O   UNL     1     -10.128  -2.840 125.375  0.00  0.00    +0.000 OA
ATOM     29  H   UNL     1     -10.758  -2.766 124.622  0.00  0.00    +0.000 HD
ENDBRANCH  25  28
ENDBRANCH  22  25
BRANCH  23  30
ATOM     30  C   UNL     1      -9.407   0.675 124.775  0.00  0.00    +0.000 C 
ATOM     31  O   UNL     1     -10.523   0.926 125.240  0.00  0.00    +0.000 OA
BRANCH  30  32
ATOM     32  O   UNL     1      -9.117   1.194 123.574  0.00  0.00    +0.000 OA
ATOM     33  H   UNL     1      -8.935   2.163 123.571  0.00  0.00    +0.000 HD
ENDBRANCH  30  32
ENDBRANCH  23  30
BRANCH  20  34
ATOM     34  C   UNL     1      -5.365  -0.179 127.689  0.00  0.00    +0.000 C 
BRANCH  34  36
ATOM     35  C   UNL     1      -4.722   1.075 129.759  0.00  0.00    +0.000 C 
ATOM     36  C   UNL     1      -5.547  -0.076 129.192  0.00  0.00    +0.000 C 
ENDBRANCH  34  36
ENDBRANCH  20  34
ENDBRANCH   1  24
TORSDOF 10
ENDMDL
MODEL 9
REMARK VINA RESULT:      -7.5      3.811      7.352
REMARK  Name = Olmesartan
REMARK  13 active torsions:
REMARK  status: ('A' for Active; 'I' for Inactive)
REMARK    1  A    between atoms: C_1  and  C_2
REMARK    2  A    between atoms: C_2  and  C_3
REMARK    3  A    between atoms: C_3  and  C_4
REMARK    4  A    between atoms: C_6  and  C_30
REMARK    5  A    between atoms: C_7  and  C_27
REMARK    6  A    between atoms: N_8  and  C_9
REMARK    7  A    between atoms: C_9  and  C_10
REMARK    8  A    between atoms: C_13  and  C_16
REMARK    9  A    between atoms: C_17  and  C_22
REMARK   10  A    between atoms: C_27  and  O_28
REMARK   11  A    between atoms: C_30  and  C_31
REMARK   12  A    between atoms: C_30  and  C_32
REMARK   13  A    between atoms: C_30  and  O_33
REMARK                            x       y       z     vdW  Elec       q    Type
REMARK                         _______ _______ _______ _____ _____    ______ ____
ROOT
ATOM      1  C   UNL     1      -6.569   2.167 130.322  0.00  0.00    +0.000 C 
ENDROOT
BRANCH   1   2
ATOM      2  C   UNL     1      -6.448   1.375 129.067  0.00  0.00    +0.000 A 
ATOM      3  C   UNL     1      -7.501   0.564 128.646  0.00  0.00    +0.000 A 
ATOM      4  C   UNL     1      -7.378  -0.141 127.461  0.00  0.00    +0.000 A 
ATOM      5  C   UNL     1      -6.301   0.093 126.594  0.00  0.00    +0.000 A 
ATOM      6  C   UNL     1      -5.242   0.894 127.034  0.00  0.00    +0.000 A 
ATOM      7  C   UNL     1      -5.273   1.441 128.310  0.00  0.00    +0.000 A 
BRANCH   5   8
ATOM      8  C   UNL     1      -6.300  -0.526 125.265  0.00  0.00    +0.000 A 
ATOM      9  C   UNL     1      -7.118  -0.061 124.202  0.00  0.00    +0.000 A 
ATOM     10  C   UNL     1      -7.177  -0.778 123.006  0.00  0.00    +0.000 A 
ATOM     11  C   UNL     1      -6.381  -1.908 122.831  0.00  0.00    +0.000 A 
ATOM     12  C   UNL     1      -5.554  -2.355 123.859  0.00  0.00    +0.000 A 
ATOM     13  C   UNL     1      -5.513  -1.669 125.065  0.00  0.00    +0.000 A 
BRANCH   9  14
ATOM     14  C   UNL     1      -7.766   1.238 124.251  0.00  0.00    +0.000 A 
ATOM     15  N   UNL     1      -8.966   1.624 124.631  0.00  0.00    +0.000 NA
ATOM     16  N   UNL     1      -8.968   3.005 124.545  0.00  0.00    +0.000 NA
ATOM     17  N   UNL     1      -7.821   3.449 124.059  0.00  0.00    +0.000 NA
ATOM     18  N   UNL     1      -7.110   2.341 123.823  0.00  0.00    +0.000 N 
ATOM     19  H   UNL     1      -6.181   2.371 123.427  0.00  0.00    +0.000 HD
ENDBRANCH   9  14
ENDBRANCH   5   8
ENDBRANCH   1   2
BRANCH   1  24
ATOM     20  C   UNL     1      -8.862   2.809 131.386  0.00  0.00    +0.000 A 
ATOM     21  N   UNL     1      -9.720   3.807 131.187  0.00  0.00    +0.000 NA
ATOM     22  C   UNL     1      -9.168   4.677 130.222  0.00  0.00    +0.000 A 
ATOM     23  C   UNL     1      -7.924   4.187 129.812  0.00  0.00    +0.000 A 
ATOM     24  N   UNL     1      -7.771   2.991 130.545  0.00  0.00    +0.000 N 
BRANCH  22  25
ATOM     25  C   UNL     1      -9.883   5.959 129.752  0.00  0.00    +0.000 C 
ATOM     26  C   UNL     1     -11.399   5.957 129.908  0.00  0.00    +0.000 C 
ATOM     27  C   UNL     1      -9.267   7.235 130.326  0.00  0.00    +0.000 C 
BRANCH  25  28
ATOM     28  O   UNL     1      -9.744   6.125 128.324  0.00  0.00    +0.000 OA
ATOM     29  H   UNL     1     -10.532   5.688 127.929  0.00  0.00    +0.000 HD
ENDBRANCH  25  28
ENDBRANCH  22  25
BRANCH  23  30
ATOM     30  C   UNL     1      -6.909   4.626 128.849  0.00  0.00    +0.000 C 
ATOM     31  O   UNL     1      -5.820   5.121 129.156  0.00  0.00    +0.000 OA
BRANCH  30  32
ATOM     32  O   UNL     1      -7.161   4.471 127.542  0.00  0.00    +0.000 OA
ATOM     33  H   UNL     1      -7.137   3.539 127.221  0.00  0.00    +0.000 HD
ENDBRANCH  30  32
ENDBRANCH  23  30
BRANCH  20  34
ATOM     34  C   UNL     1      -9.000   1.600 132.317  0.00  0.00    +0.000 C 
BRANCH  34  36
ATOM     35  C   UNL     1      -8.131  -0.744 132.169  0.00  0.00    +0.000 C 
ATOM     36  C   UNL     1      -9.244   0.213 131.752  0.00  0.00    +0.000 C 
ENDBRANCH  34  36
ENDBRANCH  20  34
ENDBRANCH   1  24
TORSDOF 10
ENDMDL
