MODEL 1
REMARK VINA RESULT:      -6.9      0.000      0.000
REMARK  Name = Olodaterol
REMARK  12 active torsions:
REMARK  status: ('A' for Active; 'I' for Inactive)
REMARK    1  A    between atoms: C_1  and  O_2
REMARK    2  A    between atoms: O_2  and  C_3
REMARK    3  A    between atoms: C_6  and  C_7
REMARK    4  A    between atoms: C_7  and  C_8
REMARK    5  A    between atoms: C_8  and  C_9
REMARK    6  A    between atoms: C_8  and  C_10
REMARK    7  A    between atoms: C_8  and  N_11
REMARK    8  A    between atoms: N_11  and  C_12
REMARK    9  A    between atoms: C_12  and  C_13
REMARK   10  A    between atoms: C_13  and  O_14
REMARK   11  A    between atoms: C_13  and  C_15
REMARK   12  A    between atoms: C_24  and  O_25
REMARK                            x       y       z     vdW  Elec       q    Type
REMARK                         _______ _______ _______ _____ _____    ______ ____
ROOT
ATOM      1  C   UNL     1      -7.638   3.847 126.075  0.00  0.00    +0.000 C 
ENDROOT
BRANCH   1   2
ATOM      2  C   UNL     1      -8.247   3.077 124.883  0.00  0.00    +0.000 A 
ATOM      3  C   UNL     1      -7.491   3.123 123.800  0.00  0.00    +0.000 A 
ATOM      4  O   UNL     1      -6.178   2.912 124.100  0.00  0.00    +0.000 OA
ATOM      5  C   UNL     1      -5.626   4.179 123.900  0.00  0.00    +0.000 C 
ATOM      6  C   UNL     1      -5.673   4.288 122.369  0.00  0.00    +0.000 C 
ATOM      7  O   UNL     1      -4.811   4.902 121.815  0.00  0.00    +0.000 OA
ATOM      8  N   UNL     1      -6.841   3.640 121.718  0.00  0.00    +0.000 N 
ATOM      9  C   UNL     1      -7.871   2.985 122.495  0.00  0.00    +0.000 A 
ATOM     10  C   UNL     1      -9.091   2.268 122.291  0.00  0.00    +0.000 A 
ATOM     11  C   UNL     1      -9.793   1.842 123.439  0.00  0.00    +0.000 A 
ATOM     12  C   UNL     1      -9.305   2.214 124.682  0.00  0.00    +0.000 A 
ATOM     13  H   UNL     1      -6.901   3.728 120.714  0.00  0.00    +0.000 HD
BRANCH  11  14
ATOM     14  O   UNL     1     -10.922   1.083 123.606  0.00  0.00    +0.000 OA
ATOM     15  H   UNL     1     -11.406   1.145 124.437  0.00  0.00    +0.000 HD
ENDBRANCH  11  14
ENDBRANCH   1   2
BRANCH   1  16
ATOM     16  O   UNL     1      -8.402   5.061 126.288  0.00  0.00    +0.000 OA
ATOM     17  H   UNL     1      -9.340   4.875 126.123  0.00  0.00    +0.000 HD
ENDBRANCH   1  16
BRANCH   1  18
ATOM     18  C   UNL     1      -7.543   3.117 127.382  0.00  0.00    +0.000 C 
BRANCH  18  19
ATOM     19  N   UNL     1      -6.708   2.059 126.929  0.00  0.00    +0.000 NA
ATOM     20  H   UNL     1      -7.264   1.318 126.507  0.00  0.00    +0.000 HD
BRANCH  19  21
ATOM     21  C   UNL     1      -5.632   1.479 127.610  0.00  0.00    +0.000 C 
ATOM     22  C   UNL     1      -6.295   1.636 129.009  0.00  0.00    +0.000 C 
ATOM     23  C   UNL     1      -4.412   2.245 127.068  0.00  0.00    +0.000 C 
BRANCH  21  24
ATOM     24  C   UNL     1      -5.530  -0.040 127.200  0.00  0.00    +0.000 C 
BRANCH  24  28
ATOM     25  C   UNL     1      -8.521  -1.318 124.463  0.00  0.00    +0.000 A 
ATOM     26  C   UNL     1      -8.828  -1.261 125.832  0.00  0.00    +0.000 A 
ATOM     27  C   UNL     1      -7.900  -0.777 126.755  0.00  0.00    +0.000 A 
ATOM     28  C   UNL     1      -6.651  -0.401 126.284  0.00  0.00    +0.000 A 
ATOM     29  C   UNL     1      -6.408  -0.418 124.909  0.00  0.00    +0.000 A 
ATOM     30  C   UNL     1      -7.306  -0.873 124.003  0.00  0.00    +0.000 A 
BRANCH  25  32
ATOM     31  C   UNL     1      -9.494  -3.179 123.462  0.00  0.00    +0.000 C 
ATOM     32  O   UNL     1      -9.479  -1.759 123.603  0.00  0.00    +0.000 OA
ENDBRANCH  25  32
ENDBRANCH  24  28
ENDBRANCH  21  24
ENDBRANCH  19  21
ENDBRANCH  18  19
ENDBRANCH   1  18
TORSDOF 9
ENDMDL
MODEL 2
REMARK VINA RESULT:      -6.5      2.593      4.658
REMARK  Name = Olodaterol
REMARK  12 active torsions:
REMARK  status: ('A' for Active; 'I' for Inactive)
REMARK    1  A    between atoms: C_1  and  O_2
REMARK    2  A    between atoms: O_2  and  C_3
REMARK    3  A    between atoms: C_6  and  C_7
REMARK    4  A    between atoms: C_7  and  C_8
REMARK    5  A    between atoms: C_8  and  C_9
REMARK    6  A    between atoms: C_8  and  C_10
REMARK    7  A    between atoms: C_8  and  N_11
REMARK    8  A    between atoms: N_11  and  C_12
REMARK    9  A    between atoms: C_12  and  C_13
REMARK   10  A    between atoms: C_13  and  O_14
REMARK   11  A    between atoms: C_13  and  C_15
REMARK   12  A    between atoms: C_24  and  O_25
REMARK                            x       y       z     vdW  Elec       q    Type
REMARK                         _______ _______ _______ _____ _____    ______ ____
ROOT
ATOM      1  C   UNL     1      -8.539   1.649 124.133  0.00  0.00    +0.000 C 
ENDROOT
BRANCH   1   2
ATOM      2  C   UNL     1      -7.394   2.494 123.534  0.00  0.00    +0.000 A 
ATOM      3  C   UNL     1      -6.432   2.748 124.403  0.00  0.00    +0.000 A 
ATOM      4  O   UNL     1      -6.104   1.637 125.123  0.00  0.00    +0.000 OA
ATOM      5  C   UNL     1      -6.609   1.948 126.386  0.00  0.00    +0.000 C 
ATOM      6  C   UNL     1      -5.619   3.027 126.847  0.00  0.00    +0.000 C 
ATOM      7  O   UNL     1      -5.361   3.103 128.011  0.00  0.00    +0.000 OA
ATOM      8  N   UNL     1      -5.104   3.920 125.777  0.00  0.00    +0.000 N 
ATOM      9  C   UNL     1      -5.544   3.785 124.406  0.00  0.00    +0.000 A 
ATOM     10  C   UNL     1      -5.313   4.389 123.130  0.00  0.00    +0.000 A 
ATOM     11  C   UNL     1      -6.060   3.901 122.036  0.00  0.00    +0.000 A 
ATOM     12  C   UNL     1      -7.021   2.933 122.279  0.00  0.00    +0.000 A 
ATOM     13  H   UNL     1      -4.474   4.653 126.069  0.00  0.00    +0.000 HD
BRANCH  11  14
ATOM     14  O   UNL     1      -6.035   4.186 120.696  0.00  0.00    +0.000 OA
ATOM     15  H   UNL     1      -5.907   3.466 120.069  0.00  0.00    +0.000 HD
ENDBRANCH  11  14
ENDBRANCH   1   2
BRANCH   1  16
ATOM     16  O   UNL     1      -9.648   2.525 124.456  0.00  0.00    +0.000 OA
ATOM     17  H   UNL     1     -10.480   2.044 124.320  0.00  0.00    +0.000 HD
ENDBRANCH   1  16
BRANCH   1  18
ATOM     18  C   UNL     1      -9.062   0.519 123.297  0.00  0.00    +0.000 C 
BRANCH  18  19
ATOM     19  N   UNL     1      -8.079  -0.439 123.667  0.00  0.00    +0.000 NA
ATOM     20  H   UNL     1      -7.439  -0.614 122.893  0.00  0.00    +0.000 HD
BRANCH  19  21
ATOM     21  C   UNL     1      -8.282  -1.639 124.359  0.00  0.00    +0.000 C 
ATOM     22  C   UNL     1      -6.783  -1.791 124.749  0.00  0.00    +0.000 C 
ATOM     23  C   UNL     1      -9.075  -2.498 123.358  0.00  0.00    +0.000 C 
BRANCH  21  24
ATOM     24  C   UNL     1      -9.169  -1.349 125.629  0.00  0.00    +0.000 C 
BRANCH  24  28
ATOM     25  C   UNL     1      -7.700  -3.066 129.229  0.00  0.00    +0.000 A 
ATOM     26  C   UNL     1      -8.396  -3.879 128.319  0.00  0.00    +0.000 A 
ATOM     27  C   UNL     1      -8.830  -3.373 127.094  0.00  0.00    +0.000 A 
ATOM     28  C   UNL     1      -8.596  -2.033 126.824  0.00  0.00    +0.000 A 
ATOM     29  C   UNL     1      -7.848  -1.277 127.729  0.00  0.00    +0.000 A 
ATOM     30  C   UNL     1      -7.410  -1.762 128.916  0.00  0.00    +0.000 A 
BRANCH  25  32
ATOM     31  C   UNL     1      -5.990  -4.256 130.265  0.00  0.00    +0.000 C 
ATOM     32  O   UNL     1      -7.263  -3.624 130.391  0.00  0.00    +0.000 OA
ENDBRANCH  25  32
ENDBRANCH  24  28
ENDBRANCH  21  24
ENDBRANCH  19  21
ENDBRANCH  18  19
ENDBRANCH   1  18
TORSDOF 9
ENDMDL
MODEL 3
REMARK VINA RESULT:      -6.5      2.805      4.679
REMARK  Name = Olodaterol
REMARK  12 active torsions:
REMARK  status: ('A' for Active; 'I' for Inactive)
REMARK    1  A    between atoms: C_1  and  O_2
REMARK    2  A    between atoms: O_2  and  C_3
REMARK    3  A    between atoms: C_6  and  C_7
REMARK    4  A    between atoms: C_7  and  C_8
REMARK    5  A    between atoms: C_8  and  C_9
REMARK    6  A    between atoms: C_8  and  C_10
REMARK    7  A    between atoms: C_8  and  N_11
REMARK    8  A    between atoms: N_11  and  C_12
REMARK    9  A    between atoms: C_12  and  C_13
REMARK   10  A    between atoms: C_13  and  O_14
REMARK   11  A    between atoms: C_13  and  C_15
REMARK   12  A    between atoms: C_24  and  O_25
REMARK                            x       y       z     vdW  Elec       q    Type
REMARK                         _______ _______ _______ _____ _____    ______ ____
ROOT
ATOM      1  C   UNL     1      -7.769   0.454 123.340  0.00  0.00    +0.000 C 
ENDROOT
BRANCH   1   2
ATOM      2  C   UNL     1      -7.872   1.396 124.559  0.00  0.00    +0.000 A 
ATOM      3  C   UNL     1      -7.376   2.598 124.324  0.00  0.00    +0.000 A 
ATOM      4  O   UNL     1      -7.772   3.072 123.109  0.00  0.00    +0.000 OA
ATOM      5  C   UNL     1      -6.587   3.014 122.372  0.00  0.00    +0.000 C 
ATOM      6  C   UNL     1      -5.786   4.161 123.005  0.00  0.00    +0.000 C 
ATOM      7  O   UNL     1      -5.035   4.780 122.312  0.00  0.00    +0.000 OA
ATOM      8  N   UNL     1      -5.997   4.360 124.462  0.00  0.00    +0.000 N 
ATOM      9  C   UNL     1      -6.878   3.499 125.221  0.00  0.00    +0.000 A 
ATOM     10  C   UNL     1      -7.352   3.347 126.561  0.00  0.00    +0.000 A 
ATOM     11  C   UNL     1      -8.219   2.263 126.824  0.00  0.00    +0.000 A 
ATOM     12  C   UNL     1      -8.487   1.374 125.795  0.00  0.00    +0.000 A 
ATOM     13  H   UNL     1      -5.455   5.092 124.898  0.00  0.00    +0.000 HD
BRANCH  11  14
ATOM     14  O   UNL     1      -8.906   1.877 127.945  0.00  0.00    +0.000 OA
ATOM     15  H   UNL     1      -9.485   2.514 128.378  0.00  0.00    +0.000 HD
ENDBRANCH  11  14
ENDBRANCH   1   2
BRANCH   1  16
ATOM     16  O   UNL     1      -6.510  -0.262 123.405  0.00  0.00    +0.000 OA
ATOM     17  H   UNL     1      -6.623  -1.047 123.965  0.00  0.00    +0.000 HD
ENDBRANCH   1  16
BRANCH   1  18
ATOM     18  C   UNL     1      -8.870  -0.549 123.159  0.00  0.00    +0.000 C 
BRANCH  18  19
ATOM     19  N   UNL     1      -8.144  -1.686 123.607  0.00  0.00    +0.000 NA
ATOM     20  H   UNL     1      -7.575  -2.067 122.853  0.00  0.00    +0.000 HD
BRANCH  19  21
ATOM     21  C   UNL     1      -8.624  -2.746 124.385  0.00  0.00    +0.000 C 
ATOM     22  C   UNL     1      -7.202  -3.273 124.734  0.00  0.00    +0.000 C 
ATOM     23  C   UNL     1      -9.666  -3.416 123.472  0.00  0.00    +0.000 C 
BRANCH  21  24
ATOM     24  C   UNL     1      -9.337  -2.157 125.662  0.00  0.00    +0.000 C 
BRANCH  24  28
ATOM     25  C   UNL     1      -7.432  -3.138 129.333  0.00  0.00    +0.000 A 
ATOM     26  C   UNL     1      -8.336  -4.051 128.767  0.00  0.00    +0.000 A 
ATOM     27  C   UNL     1      -8.926  -3.802 127.528  0.00  0.00    +0.000 A 
ATOM     28  C   UNL     1      -8.630  -2.603 126.897  0.00  0.00    +0.000 A 
ATOM     29  C   UNL     1      -7.681  -1.751 127.466  0.00  0.00    +0.000 A 
ATOM     30  C   UNL     1      -7.092  -1.990 128.662  0.00  0.00    +0.000 A 
BRANCH  25  32
ATOM     31  C   UNL     1      -7.409  -2.732 131.624  0.00  0.00    +0.000 C 
ATOM     32  O   UNL     1      -6.854  -3.453 130.525  0.00  0.00    +0.000 OA
ENDBRANCH  25  32
ENDBRANCH  24  28
ENDBRANCH  21  24
ENDBRANCH  19  21
ENDBRANCH  18  19
ENDBRANCH   1  18
TORSDOF 9
ENDMDL
MODEL 4
REMARK VINA RESULT:      -6.3      4.053      7.395
REMARK  Name = Olodaterol
REMARK  12 active torsions:
REMARK  status: ('A' for Active; 'I' for Inactive)
REMARK    1  A    between atoms: C_1  and  O_2
REMARK    2  A    between atoms: O_2  and  C_3
REMARK    3  A    between atoms: C_6  and  C_7
REMARK    4  A    between atoms: C_7  and  C_8
REMARK    5  A    between atoms: C_8  and  C_9
REMARK    6  A    between atoms: C_8  and  C_10
REMARK    7  A    between atoms: C_8  and  N_11
REMARK    8  A    between atoms: N_11  and  C_12
REMARK    9  A    between atoms: C_12  and  C_13
REMARK   10  A    between atoms: C_13  and  O_14
REMARK   11  A    between atoms: C_13  and  C_15
REMARK   12  A    between atoms: C_24  and  O_25
REMARK                            x       y       z     vdW  Elec       q    Type
REMARK                         _______ _______ _______ _____ _____    ______ ____
ROOT
ATOM      1  C   UNL     1      -6.200   3.117 125.747  0.00  0.00    +0.000 C 
ENDROOT
BRANCH   1   2
ATOM      2  C   UNL     1      -6.292   3.523 124.260  0.00  0.00    +0.000 A 
ATOM      3  C   UNL     1      -7.467   3.245 123.722  0.00  0.00    +0.000 A 
ATOM      4  O   UNL     1      -8.490   3.599 124.551  0.00  0.00    +0.000 OA
ATOM      5  C   UNL     1      -8.974   2.356 124.964  0.00  0.00    +0.000 C 
ATOM      6  C   UNL     1      -9.655   1.858 123.681  0.00  0.00    +0.000 C 
ATOM      7  O   UNL     1     -10.628   1.173 123.782  0.00  0.00    +0.000 OA
ATOM      8  N   UNL     1      -8.991   2.253 122.412  0.00  0.00    +0.000 N 
ATOM      9  C   UNL     1      -7.768   3.024 122.408  0.00  0.00    +0.000 A 
ATOM     10  C   UNL     1      -6.850   3.596 121.472  0.00  0.00    +0.000 A 
ATOM     11  C   UNL     1      -5.719   4.261 121.994  0.00  0.00    +0.000 A 
ATOM     12  C   UNL     1      -5.527   4.245 123.367  0.00  0.00    +0.000 A 
ATOM     13  H   UNL     1      -9.411   1.909 121.560  0.00  0.00    +0.000 HD
BRANCH  11  14
ATOM     14  O   UNL     1      -4.708   4.972 121.404  0.00  0.00    +0.000 OA
ATOM     15  H   UNL     1      -3.983   5.292 121.952  0.00  0.00    +0.000 HD
ENDBRANCH  11  14
ENDBRANCH   1   2
BRANCH   1  16
ATOM     16  O   UNL     1      -5.270   2.011 125.873  0.00  0.00    +0.000 OA
ATOM     17  H   UNL     1      -5.596   1.403 126.556  0.00  0.00    +0.000 HD
ENDBRANCH   1  16
BRANCH   1  18
ATOM     18  C   UNL     1      -5.795   4.184 126.720  0.00  0.00    +0.000 C 
BRANCH  18  19
ATOM     19  N   UNL     1      -4.459   3.741 126.918  0.00  0.00    +0.000 NA
ATOM     20  H   UNL     1      -4.420   2.723 126.951  0.00  0.00    +0.000 HD
BRANCH  19  21
ATOM     21  C   UNL     1      -3.520   4.254 127.819  0.00  0.00    +0.000 C 
ATOM     22  C   UNL     1      -2.300   3.685 127.037  0.00  0.00    +0.000 C 
ATOM     23  C   UNL     1      -4.047   3.787 129.188  0.00  0.00    +0.000 C 
BRANCH  21  24
ATOM     24  C   UNL     1      -3.553   5.828 127.747  0.00  0.00    +0.000 C 
BRANCH  24  28
ATOM     25  C   UNL     1      -2.785   7.317 131.653  0.00  0.00    +0.000 A 
ATOM     26  C   UNL     1      -1.755   6.665 130.956  0.00  0.00    +0.000 A 
ATOM     27  C   UNL     1      -1.942   6.227 129.645  0.00  0.00    +0.000 A 
ATOM     28  C   UNL     1      -3.191   6.412 129.070  0.00  0.00    +0.000 A 
ATOM     29  C   UNL     1      -4.167   7.118 129.777  0.00  0.00    +0.000 A 
ATOM     30  C   UNL     1      -3.991   7.559 131.045  0.00  0.00    +0.000 A 
BRANCH  25  32
ATOM     31  C   UNL     1      -2.167   9.139 132.962  0.00  0.00    +0.000 C 
ATOM     32  O   UNL     1      -2.532   7.760 132.915  0.00  0.00    +0.000 OA
ENDBRANCH  25  32
ENDBRANCH  24  28
ENDBRANCH  21  24
ENDBRANCH  19  21
ENDBRANCH  18  19
ENDBRANCH   1  18
TORSDOF 9
ENDMDL
MODEL 5
REMARK VINA RESULT:      -6.3      4.773      7.577
REMARK  Name = Olodaterol
REMARK  12 active torsions:
REMARK  status: ('A' for Active; 'I' for Inactive)
REMARK    1  A    between atoms: C_1  and  O_2
REMARK    2  A    between atoms: O_2  and  C_3
REMARK    3  A    between atoms: C_6  and  C_7
REMARK    4  A    between atoms: C_7  and  C_8
REMARK    5  A    between atoms: C_8  and  C_9
REMARK    6  A    between atoms: C_8  and  C_10
REMARK    7  A    between atoms: C_8  and  N_11
REMARK    8  A    between atoms: N_11  and  C_12
REMARK    9  A    between atoms: C_12  and  C_13
REMARK   10  A    between atoms: C_13  and  O_14
REMARK   11  A    between atoms: C_13  and  C_15
REMARK   12  A    between atoms: C_24  and  O_25
REMARK                            x       y       z     vdW  Elec       q    Type
REMARK                         _______ _______ _______ _____ _____    ______ ____
ROOT
ATOM      1  C   UNL     1      -6.577   3.483 129.541  0.00  0.00    +0.000 C 
ENDROOT
BRANCH   1   2
ATOM      2  C   UNL     1      -6.735   3.837 128.046  0.00  0.00    +0.000 A 
ATOM      3  C   UNL     1      -5.658   3.556 127.334  0.00  0.00    +0.000 A 
ATOM      4  O   UNL     1      -5.153   2.331 127.656  0.00  0.00    +0.000 OA
ATOM      5  C   UNL     1      -3.977   2.668 128.330  0.00  0.00    +0.000 C 
ATOM      6  C   UNL     1      -3.101   3.167 127.172  0.00  0.00    +0.000 C 
ATOM      7  O   UNL     1      -1.922   2.985 127.231  0.00  0.00    +0.000 OA
ATOM      8  N   UNL     1      -3.823   3.886 126.090  0.00  0.00    +0.000 N 
ATOM      9  C   UNL     1      -5.249   4.117 126.158  0.00  0.00    +0.000 A 
ATOM     10  C   UNL     1      -6.286   4.720 125.380  0.00  0.00    +0.000 A 
ATOM     11  C   UNL     1      -7.587   4.728 125.929  0.00  0.00    +0.000 A 
ATOM     12  C   UNL     1      -7.761   4.230 127.211  0.00  0.00    +0.000 A 
ATOM     13  H   UNL     1      -3.256   4.245 125.336  0.00  0.00    +0.000 HD
BRANCH  11  14
ATOM     14  O   UNL     1      -8.798   5.138 125.435  0.00  0.00    +0.000 OA
ATOM     15  H   UNL     1      -8.839   5.950 124.917  0.00  0.00    +0.000 HD
ENDBRANCH  11  14
ENDBRANCH   1   2
BRANCH   1  16
ATOM     16  O   UNL     1      -5.697   4.454 130.162  0.00  0.00    +0.000 OA
ATOM     17  H   UNL     1      -4.778   4.230 129.944  0.00  0.00    +0.000 HD
ENDBRANCH   1  16
BRANCH   1  18
ATOM     18  C   UNL     1      -7.833   3.399 130.357  0.00  0.00    +0.000 C 
BRANCH  18  19
ATOM     19  N   UNL     1      -7.814   4.734 130.843  0.00  0.00    +0.000 NA
ATOM     20  H   UNL     1      -7.145   4.829 131.606  0.00  0.00    +0.000 HD
BRANCH  19  21
ATOM     21  C   UNL     1      -8.915   5.556 131.109  0.00  0.00    +0.000 C 
ATOM     22  C   UNL     1      -8.110   6.875 130.925  0.00  0.00    +0.000 C 
ATOM     23  C   UNL     1      -9.477   4.985 132.423  0.00  0.00    +0.000 C 
BRANCH  21  24
ATOM     24  C   UNL     1      -9.974   5.375 129.955  0.00  0.00    +0.000 C 
BRANCH  24  28
ATOM     25  C   UNL     1     -12.384   8.797 129.216  0.00  0.00    +0.000 A 
ATOM     26  C   UNL     1     -12.629   8.025 130.362  0.00  0.00    +0.000 A 
ATOM     27  C   UNL     1     -11.815   6.937 130.681  0.00  0.00    +0.000 A 
ATOM     28  C   UNL     1     -10.789   6.615 129.806  0.00  0.00    +0.000 A 
ATOM     29  C   UNL     1     -10.543   7.445 128.710  0.00  0.00    +0.000 A 
ATOM     30  C   UNL     1     -11.319   8.511 128.398  0.00  0.00    +0.000 A 
BRANCH  25  32
ATOM     31  C   UNL     1     -13.379  10.692 130.128  0.00  0.00    +0.000 C 
ATOM     32  O   UNL     1     -13.184   9.872 128.977  0.00  0.00    +0.000 OA
ENDBRANCH  25  32
ENDBRANCH  24  28
ENDBRANCH  21  24
ENDBRANCH  19  21
ENDBRANCH  18  19
ENDBRANCH   1  18
TORSDOF 9
ENDMDL
MODEL 6
REMARK VINA RESULT:      -6.2      4.160      6.938
REMARK  Name = Olodaterol
REMARK  12 active torsions:
REMARK  status: ('A' for Active; 'I' for Inactive)
REMARK    1  A    between atoms: C_1  and  O_2
REMARK    2  A    between atoms: O_2  and  C_3
REMARK    3  A    between atoms: C_6  and  C_7
REMARK    4  A    between atoms: C_7  and  C_8
REMARK    5  A    between atoms: C_8  and  C_9
REMARK    6  A    between atoms: C_8  and  C_10
REMARK    7  A    between atoms: C_8  and  N_11
REMARK    8  A    between atoms: N_11  and  C_12
REMARK    9  A    between atoms: C_12  and  C_13
REMARK   10  A    between atoms: C_13  and  O_14
REMARK   11  A    between atoms: C_13  and  C_15
REMARK   12  A    between atoms: C_24  and  O_25
REMARK                            x       y       z     vdW  Elec       q    Type
REMARK                         _______ _______ _______ _____ _____    ______ ____
ROOT
ATOM      1  C   UNL     1      -5.729   4.245 124.399  0.00  0.00    +0.000 C 
ENDROOT
BRANCH   1   2
ATOM      2  C   UNL     1      -6.967   3.324 124.354  0.00  0.00    +0.000 A 
ATOM      3  C   UNL     1      -7.403   3.106 123.126  0.00  0.00    +0.000 A 
ATOM      4  O   UNL     1      -6.373   2.843 122.271  0.00  0.00    +0.000 OA
ATOM      5  C   UNL     1      -6.339   4.000 121.491  0.00  0.00    +0.000 C 
ATOM      6  C   UNL     1      -7.610   3.829 120.647  0.00  0.00    +0.000 C 
ATOM      7  O   UNL     1      -7.614   4.256 119.531  0.00  0.00    +0.000 OA
ATOM      8  N   UNL     1      -8.752   3.175 121.337  0.00  0.00    +0.000 N 
ATOM      9  C   UNL     1      -8.662   2.764 122.721  0.00  0.00    +0.000 A 
ATOM     10  C   UNL     1      -9.467   2.128 123.716  0.00  0.00    +0.000 A 
ATOM     11  C   UNL     1      -8.910   1.980 125.005  0.00  0.00    +0.000 A 
ATOM     12  C   UNL     1      -7.661   2.531 125.246  0.00  0.00    +0.000 A 
ATOM     13  H   UNL     1      -9.604   3.081 120.804  0.00  0.00    +0.000 HD
BRANCH  11  14
ATOM     14  O   UNL     1      -9.359   1.364 126.144  0.00  0.00    +0.000 OA
ATOM     15  H   UNL     1      -9.946   1.848 126.735  0.00  0.00    +0.000 HD
ENDBRANCH  11  14
ENDBRANCH   1   2
BRANCH   1  16
ATOM     16  O   UNL     1      -6.154   5.584 124.759  0.00  0.00    +0.000 OA
ATOM     17  H   UNL     1      -5.712   5.844 125.583  0.00  0.00    +0.000 HD
ENDBRANCH   1  16
BRANCH   1  18
ATOM     18  C   UNL     1      -4.614   3.844 125.319  0.00  0.00    +0.000 C 
BRANCH  18  19
ATOM     19  N   UNL     1      -4.849   4.828 126.316  0.00  0.00    +0.000 NA
ATOM     20  H   UNL     1      -4.924   5.754 125.896  0.00  0.00    +0.000 HD
BRANCH  19  21
ATOM     21  C   UNL     1      -4.210   4.950 127.555  0.00  0.00    +0.000 C 
ATOM     22  C   UNL     1      -2.985   4.090 127.127  0.00  0.00    +0.000 C 
ATOM     23  C   UNL     1      -5.308   4.566 128.563  0.00  0.00    +0.000 C 
BRANCH  21  24
ATOM     24  C   UNL     1      -3.796   6.455 127.769  0.00  0.00    +0.000 C 
BRANCH  24  28
ATOM     25  C   UNL     1      -2.394   7.246 131.702  0.00  0.00    +0.000 A 
ATOM     26  C   UNL     1      -3.636   7.763 131.304  0.00  0.00    +0.000 A 
ATOM     27  C   UNL     1      -4.168   7.466 130.048  0.00  0.00    +0.000 A 
ATOM     28  C   UNL     1      -3.407   6.686 129.190  0.00  0.00    +0.000 A 
ATOM     29  C   UNL     1      -2.205   6.143 129.648  0.00  0.00    +0.000 A 
ATOM     30  C   UNL     1      -1.687   6.414 130.870  0.00  0.00    +0.000 A 
BRANCH  25  32
ATOM     31  C   UNL     1      -2.485   6.672 133.956  0.00  0.00    +0.000 C 
ATOM     32  O   UNL     1      -1.944   7.534 132.955  0.00  0.00    +0.000 OA
ENDBRANCH  25  32
ENDBRANCH  24  28
ENDBRANCH  21  24
ENDBRANCH  19  21
ENDBRANCH  18  19
ENDBRANCH   1  18
TORSDOF 9
ENDMDL
MODEL 7
REMARK VINA RESULT:      -6.1      3.970      7.458
REMARK  Name = Olodaterol
REMARK  12 active torsions:
REMARK  status: ('A' for Active; 'I' for Inactive)
REMARK    1  A    between atoms: C_1  and  O_2
REMARK    2  A    between atoms: O_2  and  C_3
REMARK    3  A    between atoms: C_6  and  C_7
REMARK    4  A    between atoms: C_7  and  C_8
REMARK    5  A    between atoms: C_8  and  C_9
REMARK    6  A    between atoms: C_8  and  C_10
REMARK    7  A    between atoms: C_8  and  N_11
REMARK    8  A    between atoms: N_11  and  C_12
REMARK    9  A    between atoms: C_12  and  C_13
REMARK   10  A    between atoms: C_13  and  O_14
REMARK   11  A    between atoms: C_13  and  C_15
REMARK   12  A    between atoms: C_24  and  O_25
REMARK                            x       y       z     vdW  Elec       q    Type
REMARK                         _______ _______ _______ _____ _____    ______ ____
ROOT
ATOM      1  C   UNL     1      -8.464   3.846 129.328  0.00  0.00    +0.000 C 
ENDROOT
BRANCH   1   2
ATOM      2  C   UNL     1      -8.594   3.533 130.835  0.00  0.00    +0.000 A 
ATOM      3  C   UNL     1      -9.602   4.168 131.407  0.00  0.00    +0.000 A 
ATOM      4  O   UNL     1     -10.727   4.113 130.638  0.00  0.00    +0.000 OA
ATOM      5  C   UNL     1     -10.839   5.430 130.190  0.00  0.00    +0.000 C 
ATOM      6  C   UNL     1     -11.271   6.149 131.476  0.00  0.00    +0.000 C 
ATOM      7  O   UNL     1     -11.999   7.091 131.384  0.00  0.00    +0.000 OA
ATOM      8  N   UNL     1     -10.688   5.613 132.733  0.00  0.00    +0.000 N 
ATOM      9  C   UNL     1      -9.753   4.510 132.721  0.00  0.00    +0.000 A 
ATOM     10  C   UNL     1      -8.999   3.718 133.644  0.00  0.00    +0.000 A 
ATOM     11  C   UNL     1      -8.148   2.729 133.106  0.00  0.00    +0.000 A 
ATOM     12  C   UNL     1      -8.033   2.642 131.727  0.00  0.00    +0.000 A 
ATOM     13  H   UNL     1     -10.940   6.093 133.585  0.00  0.00    +0.000 HD
BRANCH  11  14
ATOM     14  O   UNL     1      -7.365   1.765 133.686  0.00  0.00    +0.000 OA
ATOM     15  H   UNL     1      -6.852   1.178 133.119  0.00  0.00    +0.000 HD
ENDBRANCH  11  14
ENDBRANCH   1   2
BRANCH   1  16
ATOM     16  O   UNL     1      -7.793   5.122 129.171  0.00  0.00    +0.000 OA
ATOM     17  H   UNL     1      -7.337   5.342 129.999  0.00  0.00    +0.000 HD
ENDBRANCH   1  16
BRANCH   1  18
ATOM     18  C   UNL     1      -7.751   2.834 128.482  0.00  0.00    +0.000 C 
BRANCH  18  19
ATOM     19  N   UNL     1      -8.310   3.226 127.235  0.00  0.00    +0.000 NA
ATOM     20  H   UNL     1      -9.168   2.710 127.048  0.00  0.00    +0.000 HD
BRANCH  19  21
ATOM     21  C   UNL     1      -7.633   3.421 126.026  0.00  0.00    +0.000 C 
ATOM     22  C   UNL     1      -6.261   2.957 126.597  0.00  0.00    +0.000 C 
ATOM     23  C   UNL     1      -8.034   4.850 125.619  0.00  0.00    +0.000 C 
BRANCH  21  24
ATOM     24  C   UNL     1      -8.180   2.392 124.965  0.00  0.00    +0.000 C 
BRANCH  24  28
ATOM     25  C   UNL     1      -7.129   3.759 121.080  0.00  0.00    +0.000 A 
ATOM     26  C   UNL     1      -6.118   3.584 122.039  0.00  0.00    +0.000 A 
ATOM     27  C   UNL     1      -6.410   3.067 123.302  0.00  0.00    +0.000 A 
ATOM     28  C   UNL     1      -7.734   2.779 123.596  0.00  0.00    +0.000 A 
ATOM     29  C   UNL     1      -8.698   2.912 122.594  0.00  0.00    +0.000 A 
ATOM     30  C   UNL     1      -8.423   3.400 121.360  0.00  0.00    +0.000 A 
BRANCH  25  32
ATOM     31  C   UNL     1      -5.544   4.941 119.853  0.00  0.00    +0.000 C 
ATOM     32  O   UNL     1      -6.780   4.227 119.850  0.00  0.00    +0.000 OA
ENDBRANCH  25  32
ENDBRANCH  24  28
ENDBRANCH  21  24
ENDBRANCH  19  21
ENDBRANCH  18  19
ENDBRANCH   1  18
TORSDOF 9
ENDMDL
MODEL 8
REMARK VINA RESULT:      -6.1      2.018      4.814
REMARK  Name = Olodaterol
REMARK  12 active torsions:
REMARK  status: ('A' for Active; 'I' for Inactive)
REMARK    1  A    between atoms: C_1  and  O_2
REMARK    2  A    between atoms: O_2  and  C_3
REMARK    3  A    between atoms: C_6  and  C_7
REMARK    4  A    between atoms: C_7  and  C_8
REMARK    5  A    between atoms: C_8  and  C_9
REMARK    6  A    between atoms: C_8  and  C_10
REMARK    7  A    between atoms: C_8  and  N_11
REMARK    8  A    between atoms: N_11  and  C_12
REMARK    9  A    between atoms: C_12  and  C_13
REMARK   10  A    between atoms: C_13  and  O_14
REMARK   11  A    between atoms: C_13  and  C_15
REMARK   12  A    between atoms: C_24  and  O_25
REMARK                            x       y       z     vdW  Elec       q    Type
REMARK                         _______ _______ _______ _____ _____    ______ ____
ROOT
ATOM      1  C   UNL     1      -7.685   3.922 126.343  0.00  0.00    +0.000 C 
ENDROOT
BRANCH   1   2
ATOM      2  C   UNL     1      -8.243   3.126 125.143  0.00  0.00    +0.000 A 
ATOM      3  C   UNL     1      -7.453   3.168 124.085  0.00  0.00    +0.000 A 
ATOM      4  O   UNL     1      -6.148   2.980 124.431  0.00  0.00    +0.000 OA
ATOM      5  C   UNL     1      -5.607   4.251 124.231  0.00  0.00    +0.000 C 
ATOM      6  C   UNL     1      -5.604   4.337 122.698  0.00  0.00    +0.000 C 
ATOM      7  O   UNL     1      -4.733   4.956 122.164  0.00  0.00    +0.000 OA
ATOM      8  N   UNL     1      -6.742   3.664 122.019  0.00  0.00    +0.000 N 
ATOM      9  C   UNL     1      -7.787   3.007 122.771  0.00  0.00    +0.000 A 
ATOM     10  C   UNL     1      -8.990   2.270 122.536  0.00  0.00    +0.000 A 
ATOM     11  C   UNL     1      -9.725   1.850 123.667  0.00  0.00    +0.000 A 
ATOM     12  C   UNL     1      -9.282   2.246 124.919  0.00  0.00    +0.000 A 
ATOM     13  H   UNL     1      -6.769   3.737 121.012  0.00  0.00    +0.000 HD
BRANCH  11  14
ATOM     14  O   UNL     1     -10.848   1.078 123.807  0.00  0.00    +0.000 OA
ATOM     15  H   UNL     1     -10.784   0.248 124.293  0.00  0.00    +0.000 HD
ENDBRANCH  11  14
ENDBRANCH   1   2
BRANCH   1  16
ATOM     16  O   UNL     1      -8.400   5.179 126.446  0.00  0.00    +0.000 OA
ATOM     17  H   UNL     1      -7.766   5.909 126.373  0.00  0.00    +0.000 HD
ENDBRANCH   1  16
BRANCH   1  18
ATOM     18  C   UNL     1      -7.723   3.249 127.683  0.00  0.00    +0.000 C 
BRANCH  18  19
ATOM     19  N   UNL     1      -6.601   2.400 127.483  0.00  0.00    +0.000 NA
ATOM     20  H   UNL     1      -6.393   2.309 126.489  0.00  0.00    +0.000 HD
BRANCH  19  21
ATOM     21  C   UNL     1      -6.343   1.174 128.108  0.00  0.00    +0.000 C 
ATOM     22  C   UNL     1      -6.605   0.341 126.819  0.00  0.00    +0.000 C 
ATOM     23  C   UNL     1      -7.218   1.228 129.373  0.00  0.00    +0.000 C 
BRANCH  21  24
ATOM     24  C   UNL     1      -4.821   1.121 128.515  0.00  0.00    +0.000 C 
BRANCH  24  28
ATOM     25  C   UNL     1      -2.824   4.863 128.246  0.00  0.00    +0.000 A 
ATOM     26  C   UNL     1      -2.864   4.028 127.118  0.00  0.00    +0.000 A 
ATOM     27  C   UNL     1      -3.572   2.826 127.141  0.00  0.00    +0.000 A 
ATOM     28  C   UNL     1      -4.191   2.460 128.326  0.00  0.00    +0.000 A 
ATOM     29  C   UNL     1      -4.177   3.347 129.404  0.00  0.00    +0.000 A 
ATOM     30  C   UNL     1      -3.504   4.523 129.388  0.00  0.00    +0.000 A 
BRANCH  25  32
ATOM     31  C   UNL     1      -2.980   7.179 128.409  0.00  0.00    +0.000 C 
ATOM     32  O   UNL     1      -2.153   6.044 128.153  0.00  0.00    +0.000 OA
ENDBRANCH  25  32
ENDBRANCH  24  28
ENDBRANCH  21  24
ENDBRANCH  19  21
ENDBRANCH  18  19
ENDBRANCH   1  18
TORSDOF 9
ENDMDL
MODEL 9
REMARK VINA RESULT:      -6.1      4.725      6.728
REMARK  Name = Olodaterol
REMARK  12 active torsions:
REMARK  status: ('A' for Active; 'I' for Inactive)
REMARK    1  A    between atoms: C_1  and  O_2
REMARK    2  A    between atoms: O_2  and  C_3
REMARK    3  A    between atoms: C_6  and  C_7
REMARK    4  A    between atoms: C_7  and  C_8
REMARK    5  A    between atoms: C_8  and  C_9
REMARK    6  A    between atoms: C_8  and  C_10
REMARK    7  A    between atoms: C_8  and  N_11
REMARK    8  A    between atoms: N_11  and  C_12
REMARK    9  A    between atoms: C_12  and  C_13
REMARK   10  A    between atoms: C_13  and  O_14
REMARK   11  A    between atoms: C_13  and  C_15
REMARK   12  A    between atoms: C_24  and  O_25
REMARK                            x       y       z     vdW  Elec       q    Type
REMARK                         _______ _______ _______ _____ _____    ______ ____
ROOT
ATOM      1  C   UNL     1      -8.886  -2.489 125.730  0.00  0.00    +0.000 C 
ENDROOT
BRANCH   1   2
ATOM      2  C   UNL     1      -7.595  -2.544 124.885  0.00  0.00    +0.000 A 
ATOM      3  C   UNL     1      -7.278  -1.377 124.352  0.00  0.00    +0.000 A 
ATOM      4  O   UNL     1      -7.414  -0.364 125.255  0.00  0.00    +0.000 OA
ATOM      5  C   UNL     1      -8.535   0.311 124.769  0.00  0.00    +0.000 C 
ATOM      6  C   UNL     1      -7.962   0.975 123.509  0.00  0.00    +0.000 C 
ATOM      7  O   UNL     1      -8.395   2.038 123.179  0.00  0.00    +0.000 OA
ATOM      8  N   UNL     1      -6.932   0.187 122.784  0.00  0.00    +0.000 N 
ATOM      9  C   UNL     1      -6.535  -1.130 123.234  0.00  0.00    +0.000 A 
ATOM     10  C   UNL     1      -5.629  -2.172 122.864  0.00  0.00    +0.000 A 
ATOM     11  C   UNL     1      -5.644  -3.351 123.642  0.00  0.00    +0.000 A 
ATOM     12  C   UNL     1      -6.585  -3.456 124.655  0.00  0.00    +0.000 A 
ATOM     13  H   UNL     1      -6.566   0.598 121.938  0.00  0.00    +0.000 HD
BRANCH  11  14
ATOM     14  O   UNL     1      -4.875  -4.485 123.620  0.00  0.00    +0.000 OA
ATOM     15  H   UNL     1      -4.065  -4.488 123.098  0.00  0.00    +0.000 HD
ENDBRANCH  11  14
ENDBRANCH   1   2
BRANCH   1  16
ATOM     16  O   UNL     1      -9.959  -3.122 124.988  0.00  0.00    +0.000 OA
ATOM     17  H   UNL     1     -10.669  -2.475 124.848  0.00  0.00    +0.000 HD
ENDBRANCH   1  16
BRANCH   1  18
ATOM     18  C   UNL     1      -8.832  -3.107 127.096  0.00  0.00    +0.000 C 
BRANCH  18  19
ATOM     19  N   UNL     1      -8.021  -2.111 127.705  0.00  0.00    +0.000 NA
ATOM     20  H   UNL     1      -7.522  -1.573 126.998  0.00  0.00    +0.000 HD
BRANCH  19  21
ATOM     21  C   UNL     1      -7.191  -2.260 128.822  0.00  0.00    +0.000 C 
ATOM     22  C   UNL     1      -7.780  -1.022 129.557  0.00  0.00    +0.000 C 
ATOM     23  C   UNL     1      -5.787  -2.395 128.207  0.00  0.00    +0.000 C 
BRANCH  21  24
ATOM     24  C   UNL     1      -7.575  -3.595 129.567  0.00  0.00    +0.000 C 
BRANCH  24  28
ATOM     25  C   UNL     1      -5.338  -4.255 133.120  0.00  0.00    +0.000 A 
ATOM     26  C   UNL     1      -4.978  -4.942 131.949  0.00  0.00    +0.000 A 
ATOM     27  C   UNL     1      -5.638  -4.699 130.744  0.00  0.00    +0.000 A 
ATOM     28  C   UNL     1      -6.691  -3.796 130.751  0.00  0.00    +0.000 A 
ATOM     29  C   UNL     1      -6.976  -3.092 131.922  0.00  0.00    +0.000 A 
ATOM     30  C   UNL     1      -6.332  -3.309 133.094  0.00  0.00    +0.000 A 
BRANCH  25  32
ATOM     31  C   UNL     1      -4.540  -5.890 134.571  0.00  0.00    +0.000 C 
ATOM     32  O   UNL     1      -4.631  -4.501 134.257  0.00  0.00    +0.000 OA
ENDBRANCH  25  32
ENDBRANCH  24  28
ENDBRANCH  21  24
ENDBRANCH  19  21
ENDBRANCH  18  19
ENDBRANCH   1  18
TORSDOF 9
ENDMDL
