MODEL 1
REMARK VINA RESULT:      -7.9      0.000      0.000
REMARK  Name = Olopatadine
REMARK  8 active torsions:
REMARK  status: ('A' for Active; 'I' for Inactive)
REMARK    1  A    between atoms: C_1  and  N_2
REMARK    2  A    between atoms: N_2  and  C_3
REMARK    3  A    between atoms: N_2  and  C_4
REMARK    4  A    between atoms: C_4  and  C_5
REMARK    5  A    between atoms: C_5  and  C_6
REMARK    6  A    between atoms: C_19  and  C_20
REMARK    7  A    between atoms: C_20  and  C_21
REMARK    8  A    between atoms: C_21  and  O_22
REMARK                            x       y       z     vdW  Elec       q    Type
REMARK                         _______ _______ _______ _____ _____    ______ ____
ROOT
ATOM      1  C   UNL     1      -6.262   1.896 124.968  0.00  0.00    +0.000 C 
ATOM      2  C   UNL     1      -6.861   1.423 123.852  0.00  0.00    +0.000 C 
ATOM      3  C   UNL     1      -7.147   2.354 122.747  0.00  0.00    +0.000 A 
ATOM      4  C   UNL     1      -6.116   2.893 121.981  0.00  0.00    +0.000 A 
ATOM      5  C   UNL     1      -6.422   3.681 120.875  0.00  0.00    +0.000 A 
ATOM      6  C   UNL     1      -7.752   3.921 120.524  0.00  0.00    +0.000 A 
ATOM      7  C   UNL     1      -8.787   3.358 121.266  0.00  0.00    +0.000 A 
ATOM      8  C   UNL     1      -8.488   2.577 122.385  0.00  0.00    +0.000 A 
ATOM      9  C   UNL     1      -9.572   1.900 123.169  0.00  0.00    +0.000 C 
ATOM     10  O   UNL     1      -9.630   0.522 122.842  0.00  0.00    +0.000 OA
ATOM     11  C   UNL     1      -8.628  -0.287 123.297  0.00  0.00    +0.000 A 
ATOM     12  C   UNL     1      -7.346   0.026 123.768  0.00  0.00    +0.000 A 
ATOM     13  C   UNL     1      -6.452  -1.030 124.081  0.00  0.00    +0.000 A 
ATOM     14  C   UNL     1      -6.842  -2.378 124.063  0.00  0.00    +0.000 A 
ATOM     15  C   UNL     1      -8.131  -2.611 123.617  0.00  0.00    +0.000 A 
ATOM     16  C   UNL     1      -8.992  -1.609 123.209  0.00  0.00    +0.000 A 
ENDROOT
BRANCH   1  17
ATOM     17  C   UNL     1      -6.031   1.079 126.213  0.00  0.00    +0.000 C 
BRANCH  17  18
ATOM     18  C   UNL     1      -5.196   1.759 127.293  0.00  0.00    +0.000 C 
BRANCH  18  20
ATOM     19  C   UNL     1      -4.952   4.114 127.653  0.00  0.00    +0.000 C 
ATOM     20  N   UNL     1      -4.585   3.002 126.779  0.00  0.00    +0.000 NA
ATOM     21  C   UNL     1      -3.126   2.899 126.697  0.00  0.00    +0.000 C 
ENDBRANCH  18  20
ENDBRANCH  17  18
ENDBRANCH   1  17
BRANCH  14  22
ATOM     22  C   UNL     1      -5.850  -3.425 124.526  0.00  0.00    +0.000 C 
BRANCH  22  23
ATOM     23  C   UNL     1      -4.703  -3.974 123.692  0.00  0.00    +0.000 C 
ATOM     24  O   UNL     1      -3.888  -3.207 123.205  0.00  0.00    +0.000 OA
BRANCH  23  25
ATOM     25  O   UNL     1      -4.525  -5.279 123.451  0.00  0.00    +0.000 OA
ATOM     26  H   UNL     1      -4.065  -5.882 124.036  0.00  0.00    +0.000 HD
ENDBRANCH  23  25
ENDBRANCH  22  23
ENDBRANCH  14  22
TORSDOF 6
ENDMDL
MODEL 2
REMARK VINA RESULT:      -7.8      1.483      1.950
REMARK  Name = Olopatadine
REMARK  8 active torsions:
REMARK  status: ('A' for Active; 'I' for Inactive)
REMARK    1  A    between atoms: C_1  and  N_2
REMARK    2  A    between atoms: N_2  and  C_3
REMARK    3  A    between atoms: N_2  and  C_4
REMARK    4  A    between atoms: C_4  and  C_5
REMARK    5  A    between atoms: C_5  and  C_6
REMARK    6  A    between atoms: C_19  and  C_20
REMARK    7  A    between atoms: C_20  and  C_21
REMARK    8  A    between atoms: C_21  and  O_22
REMARK                            x       y       z     vdW  Elec       q    Type
REMARK                         _______ _______ _______ _____ _____    ______ ____
ROOT
ATOM      1  C   UNL     1      -6.345   1.562 125.095  0.00  0.00    +0.000 C 
ATOM      2  C   UNL     1      -6.935   1.149 123.950  0.00  0.00    +0.000 C 
ATOM      3  C   UNL     1      -7.224   2.141 122.899  0.00  0.00    +0.000 A 
ATOM      4  C   UNL     1      -6.193   2.731 122.171  0.00  0.00    +0.000 A 
ATOM      5  C   UNL     1      -6.501   3.580 121.111  0.00  0.00    +0.000 A 
ATOM      6  C   UNL     1      -7.831   3.828 120.768  0.00  0.00    +0.000 A 
ATOM      7  C   UNL     1      -8.864   3.216 121.471  0.00  0.00    +0.000 A 
ATOM      8  C   UNL     1      -8.564   2.374 122.544  0.00  0.00    +0.000 A 
ATOM      9  C   UNL     1      -9.647   1.644 123.282  0.00  0.00    +0.000 C 
ATOM     10  O   UNL     1      -9.691   0.286 122.876  0.00  0.00    +0.000 OA
ATOM     11  C   UNL     1      -8.686  -0.539 123.288  0.00  0.00    +0.000 A 
ATOM     12  C   UNL     1      -7.408  -0.244 123.783  0.00  0.00    +0.000 A 
ATOM     13  C   UNL     1      -6.507  -1.310 124.039  0.00  0.00    +0.000 A 
ATOM     14  C   UNL     1      -6.886  -2.657 123.941  0.00  0.00    +0.000 A 
ATOM     15  C   UNL     1      -8.171  -2.874 123.476  0.00  0.00    +0.000 A 
ATOM     16  C   UNL     1      -9.038  -1.856 123.122  0.00  0.00    +0.000 A 
ENDROOT
BRANCH   1  17
ATOM     17  C   UNL     1      -6.113   0.676 126.292  0.00  0.00    +0.000 C 
BRANCH  17  18
ATOM     18  C   UNL     1      -7.215   0.701 127.345  0.00  0.00    +0.000 C 
BRANCH  18  20
ATOM     19  C   UNL     1      -5.847  -1.084 128.168  0.00  0.00    +0.000 C 
ATOM     20  N   UNL     1      -7.202  -0.538 128.149  0.00  0.00    +0.000 NA
ATOM     21  C   UNL     1      -7.660  -0.302 129.521  0.00  0.00    +0.000 C 
ENDBRANCH  18  20
ENDBRANCH  17  18
ENDBRANCH   1  17
BRANCH  14  22
ATOM     22  C   UNL     1      -5.887  -3.722 124.348  0.00  0.00    +0.000 C 
BRANCH  22  23
ATOM     23  C   UNL     1      -4.625  -4.078 123.577  0.00  0.00    +0.000 C 
ATOM     24  O   UNL     1      -3.849  -3.196 123.248  0.00  0.00    +0.000 OA
BRANCH  23  25
ATOM     25  O   UNL     1      -4.303  -5.330 123.230  0.00  0.00    +0.000 OA
ATOM     26  H   UNL     1      -3.686  -5.886 123.707  0.00  0.00    +0.000 HD
ENDBRANCH  23  25
ENDBRANCH  22  23
ENDBRANCH  14  22
TORSDOF 6
ENDMDL
MODEL 3
REMARK VINA RESULT:      -7.4      2.753      4.261
REMARK  Name = Olopatadine
REMARK  8 active torsions:
REMARK  status: ('A' for Active; 'I' for Inactive)
REMARK    1  A    between atoms: C_1  and  N_2
REMARK    2  A    between atoms: N_2  and  C_3
REMARK    3  A    between atoms: N_2  and  C_4
REMARK    4  A    between atoms: C_4  and  C_5
REMARK    5  A    between atoms: C_5  and  C_6
REMARK    6  A    between atoms: C_19  and  C_20
REMARK    7  A    between atoms: C_20  and  C_21
REMARK    8  A    between atoms: C_21  and  O_22
REMARK                            x       y       z     vdW  Elec       q    Type
REMARK                         _______ _______ _______ _____ _____    ______ ____
ROOT
ATOM      1  C   UNL     1      -5.851  -0.202 127.737  0.00  0.00    +0.000 C 
ATOM      2  C   UNL     1      -5.670   0.285 126.488  0.00  0.00    +0.000 C 
ATOM      3  C   UNL     1      -5.163   1.659 126.325  0.00  0.00    +0.000 A 
ATOM      4  C   UNL     1      -3.848   1.979 126.655  0.00  0.00    +0.000 A 
ATOM      5  C   UNL     1      -3.365   3.258 126.387  0.00  0.00    +0.000 A 
ATOM      6  C   UNL     1      -4.185   4.210 125.779  0.00  0.00    +0.000 A 
ATOM      7  C   UNL     1      -5.490   3.885 125.417  0.00  0.00    +0.000 A 
ATOM      8  C   UNL     1      -5.986   2.609 125.695  0.00  0.00    +0.000 A 
ATOM      9  C   UNL     1      -7.362   2.202 125.260  0.00  0.00    +0.000 C 
ATOM     10  O   UNL     1      -7.291   1.380 124.107  0.00  0.00    +0.000 OA
ATOM     11  C   UNL     1      -6.828   0.105 124.257  0.00  0.00    +0.000 A 
ATOM     12  C   UNL     1      -6.086  -0.481 125.291  0.00  0.00    +0.000 A 
ATOM     13  C   UNL     1      -5.637  -1.819 125.143  0.00  0.00    +0.000 A 
ATOM     14  C   UNL     1      -6.014  -2.625 124.058  0.00  0.00    +0.000 A 
ATOM     15  C   UNL     1      -6.773  -1.990 123.091  0.00  0.00    +0.000 A 
ATOM     16  C   UNL     1      -7.142  -0.659 123.159  0.00  0.00    +0.000 A 
ENDROOT
BRANCH   1  17
ATOM     17  C   UNL     1      -6.479  -1.539 128.038  0.00  0.00    +0.000 C 
BRANCH  17  18
ATOM     18  C   UNL     1      -7.657  -1.501 129.005  0.00  0.00    +0.000 C 
BRANCH  18  20
ATOM     19  C   UNL     1      -8.681  -3.609 128.509  0.00  0.00    +0.000 C 
ATOM     20  N   UNL     1      -7.954  -2.851 129.525  0.00  0.00    +0.000 NA
ATOM     21  C   UNL     1      -6.734  -3.572 129.901  0.00  0.00    +0.000 C 
ENDBRANCH  18  20
ENDBRANCH  17  18
ENDBRANCH   1  17
BRANCH  14  22
ATOM     22  C   UNL     1      -5.579  -4.076 124.048  0.00  0.00    +0.000 C 
BRANCH  22  23
ATOM     23  C   UNL     1      -4.290  -4.598 123.433  0.00  0.00    +0.000 C 
ATOM     24  O   UNL     1      -3.314  -3.868 123.363  0.00  0.00    +0.000 OA
BRANCH  23  25
ATOM     25  O   UNL     1      -4.153  -5.841 122.952  0.00  0.00    +0.000 OA
ATOM     26  H   UNL     1      -4.809  -6.294 122.422  0.00  0.00    +0.000 HD
ENDBRANCH  23  25
ENDBRANCH  22  23
ENDBRANCH  14  22
TORSDOF 6
ENDMDL
MODEL 4
REMARK VINA RESULT:      -7.2      3.483      4.668
REMARK  Name = Olopatadine
REMARK  8 active torsions:
REMARK  status: ('A' for Active; 'I' for Inactive)
REMARK    1  A    between atoms: C_1  and  N_2
REMARK    2  A    between atoms: N_2  and  C_3
REMARK    3  A    between atoms: N_2  and  C_4
REMARK    4  A    between atoms: C_4  and  C_5
REMARK    5  A    between atoms: C_5  and  C_6
REMARK    6  A    between atoms: C_19  and  C_20
REMARK    7  A    between atoms: C_20  and  C_21
REMARK    8  A    between atoms: C_21  and  O_22
REMARK                            x       y       z     vdW  Elec       q    Type
REMARK                         _______ _______ _______ _____ _____    ______ ____
ROOT
ATOM      1  C   UNL     1      -5.667   0.207 126.150  0.00  0.00    +0.000 C 
ATOM      2  C   UNL     1      -6.330  -0.962 125.999  0.00  0.00    +0.000 C 
ATOM      3  C   UNL     1      -6.875  -1.307 124.674  0.00  0.00    +0.000 A 
ATOM      4  C   UNL     1      -6.029  -1.635 123.616  0.00  0.00    +0.000 A 
ATOM      5  C   UNL     1      -6.575  -2.063 122.409  0.00  0.00    +0.000 A 
ATOM      6  C   UNL     1      -7.958  -2.179 122.260  0.00  0.00    +0.000 A 
ATOM      7  C   UNL     1      -8.807  -1.885 123.324  0.00  0.00    +0.000 A 
ATOM      8  C   UNL     1      -8.268  -1.441 124.534  0.00  0.00    +0.000 A 
ATOM      9  C   UNL     1      -9.144  -1.180 125.723  0.00  0.00    +0.000 C 
ATOM     10  O   UNL     1      -9.053  -2.250 126.648  0.00  0.00    +0.000 OA
ATOM     11  C   UNL     1      -7.903  -2.376 127.371  0.00  0.00    +0.000 A 
ATOM     12  C   UNL     1      -6.627  -1.838 127.156  0.00  0.00    +0.000 A 
ATOM     13  C   UNL     1      -5.565  -2.221 128.016  0.00  0.00    +0.000 A 
ATOM     14  C   UNL     1      -5.767  -3.016 129.154  0.00  0.00    +0.000 A 
ATOM     15  C   UNL     1      -7.058  -3.487 129.321  0.00  0.00    +0.000 A 
ATOM     16  C   UNL     1      -8.091  -3.213 128.444  0.00  0.00    +0.000 A 
ENDROOT
BRANCH   1  17
ATOM     17  C   UNL     1      -5.174   0.733 127.473  0.00  0.00    +0.000 C 
BRANCH  17  18
ATOM     18  C   UNL     1      -4.917   2.235 127.522  0.00  0.00    +0.000 C 
BRANCH  18  20
ATOM     19  C   UNL     1      -4.592   3.775 125.717  0.00  0.00    +0.000 C 
ATOM     20  N   UNL     1      -4.003   2.648 126.437  0.00  0.00    +0.000 NA
ATOM     21  C   UNL     1      -2.682   3.022 126.948  0.00  0.00    +0.000 C 
ENDBRANCH  18  20
ENDBRANCH  17  18
ENDBRANCH   1  17
BRANCH  14  22
ATOM     22  C   UNL     1      -4.591  -3.275 130.075  0.00  0.00    +0.000 C 
BRANCH  22  23
ATOM     23  C   UNL     1      -3.130  -3.075 129.705  0.00  0.00    +0.000 C 
ATOM     24  O   UNL     1      -2.530  -3.956 129.110  0.00  0.00    +0.000 OA
BRANCH  23  25
ATOM     25  O   UNL     1      -2.441  -1.964 129.997  0.00  0.00    +0.000 OA
ATOM     26  H   UNL     1      -2.619  -1.394 130.746  0.00  0.00    +0.000 HD
ENDBRANCH  23  25
ENDBRANCH  22  23
ENDBRANCH  14  22
TORSDOF 6
ENDMDL
MODEL 5
REMARK VINA RESULT:      -7.1      4.582      7.585
REMARK  Name = Olopatadine
REMARK  8 active torsions:
REMARK  status: ('A' for Active; 'I' for Inactive)
REMARK    1  A    between atoms: C_1  and  N_2
REMARK    2  A    between atoms: N_2  and  C_3
REMARK    3  A    between atoms: N_2  and  C_4
REMARK    4  A    between atoms: C_4  and  C_5
REMARK    5  A    between atoms: C_5  and  C_6
REMARK    6  A    between atoms: C_19  and  C_20
REMARK    7  A    between atoms: C_20  and  C_21
REMARK    8  A    between atoms: C_21  and  O_22
REMARK                            x       y       z     vdW  Elec       q    Type
REMARK                         _______ _______ _______ _____ _____    ______ ____
ROOT
ATOM      1  C   UNL     1      -8.015  -3.044 128.962  0.00  0.00    +0.000 C 
ATOM      2  C   UNL     1      -7.816  -2.154 127.964  0.00  0.00    +0.000 C 
ATOM      3  C   UNL     1      -7.982  -2.597 126.569  0.00  0.00    +0.000 A 
ATOM      4  C   UNL     1      -9.243  -2.904 126.062  0.00  0.00    +0.000 A 
ATOM      5  C   UNL     1      -9.382  -3.213 124.711  0.00  0.00    +0.000 A 
ATOM      6  C   UNL     1      -8.271  -3.202 123.865  0.00  0.00    +0.000 A 
ATOM      7  C   UNL     1      -7.015  -2.864 124.360  0.00  0.00    +0.000 A 
ATOM      8  C   UNL     1      -6.864  -2.567 125.716  0.00  0.00    +0.000 A 
ATOM      9  C   UNL     1      -5.541  -2.133 126.272  0.00  0.00    +0.000 C 
ATOM     10  O   UNL     1      -5.526  -0.729 126.473  0.00  0.00    +0.000 OA
ATOM     11  C   UNL     1      -6.262  -0.223 127.504  0.00  0.00    +0.000 A 
ATOM     12  C   UNL     1      -7.316  -0.786 128.236  0.00  0.00    +0.000 A 
ATOM     13  C   UNL     1      -7.988   0.011 129.199  0.00  0.00    +0.000 A 
ATOM     14  C   UNL     1      -7.557   1.301 129.543  0.00  0.00    +0.000 A 
ATOM     15  C   UNL     1      -6.492   1.782 128.801  0.00  0.00    +0.000 A 
ATOM     16  C   UNL     1      -5.881   1.067 127.787  0.00  0.00    +0.000 A 
ENDROOT
BRANCH   1  17
ATOM     17  C   UNL     1      -7.756  -2.752 130.418  0.00  0.00    +0.000 C 
BRANCH  17  18
ATOM     18  C   UNL     1      -6.320  -2.971 130.880  0.00  0.00    +0.000 C 
BRANCH  18  20
ATOM     19  C   UNL     1      -4.400  -3.613 129.601  0.00  0.00    +0.000 C 
ATOM     20  N   UNL     1      -5.686  -4.070 130.124  0.00  0.00    +0.000 NA
ATOM     21  C   UNL     1      -5.487  -5.260 130.955  0.00  0.00    +0.000 C 
ENDBRANCH  18  20
ENDBRANCH  17  18
ENDBRANCH   1  17
BRANCH  14  22
ATOM     22  C   UNL     1      -8.269   2.028 130.666  0.00  0.00    +0.000 C 
BRANCH  22  23
ATOM     23  C   UNL     1      -9.581   2.783 130.525  0.00  0.00    +0.000 C 
ATOM     24  O   UNL     1      -9.778   3.477 129.541  0.00  0.00    +0.000 OA
BRANCH  23  25
ATOM     25  O   UNL     1     -10.561   2.733 131.437  0.00  0.00    +0.000 OA
ATOM     26  H   UNL     1     -10.741   1.981 132.002  0.00  0.00    +0.000 HD
ENDBRANCH  23  25
ENDBRANCH  22  23
ENDBRANCH  14  22
TORSDOF 6
ENDMDL
MODEL 6
REMARK VINA RESULT:      -7.1      6.292     10.457
REMARK  Name = Olopatadine
REMARK  8 active torsions:
REMARK  status: ('A' for Active; 'I' for Inactive)
REMARK    1  A    between atoms: C_1  and  N_2
REMARK    2  A    between atoms: N_2  and  C_3
REMARK    3  A    between atoms: N_2  and  C_4
REMARK    4  A    between atoms: C_4  and  C_5
REMARK    5  A    between atoms: C_5  and  C_6
REMARK    6  A    between atoms: C_19  and  C_20
REMARK    7  A    between atoms: C_20  and  C_21
REMARK    8  A    between atoms: C_21  and  O_22
REMARK                            x       y       z     vdW  Elec       q    Type
REMARK                         _______ _______ _______ _____ _____    ______ ____
ROOT
ATOM      1  C   UNL     1      -7.451   4.523 129.818  0.00  0.00    +0.000 C 
ATOM      2  C   UNL     1      -7.947   5.338 130.777  0.00  0.00    +0.000 C 
ATOM      3  C   UNL     1      -7.267   5.400 132.083  0.00  0.00    +0.000 A 
ATOM      4  C   UNL     1      -6.013   5.996 132.207  0.00  0.00    +0.000 A 
ATOM      5  C   UNL     1      -5.444   6.139 133.470  0.00  0.00    +0.000 A 
ATOM      6  C   UNL     1      -6.128   5.704 134.607  0.00  0.00    +0.000 A 
ATOM      7  C   UNL     1      -7.395   5.139 134.491  0.00  0.00    +0.000 A 
ATOM      8  C   UNL     1      -7.967   4.979 133.227  0.00  0.00    +0.000 A 
ATOM      9  C   UNL     1      -9.356   4.436 133.068  0.00  0.00    +0.000 C 
ATOM     10  O   UNL     1     -10.268   5.488 132.799  0.00  0.00    +0.000 OA
ATOM     11  C   UNL     1     -10.225   6.074 131.568  0.00  0.00    +0.000 A 
ATOM     12  C   UNL     1      -9.223   6.067 130.588  0.00  0.00    +0.000 A 
ATOM     13  C   UNL     1      -9.393   6.860 129.424  0.00  0.00    +0.000 A 
ATOM     14  C   UNL     1     -10.583   7.552 129.151  0.00  0.00    +0.000 A 
ATOM     15  C   UNL     1     -11.541   7.489 130.148  0.00  0.00    +0.000 A 
ATOM     16  C   UNL     1     -11.364   6.807 131.337  0.00  0.00    +0.000 A 
ENDROOT
BRANCH   1  17
ATOM     17  C   UNL     1      -8.122   4.274 128.492  0.00  0.00    +0.000 C 
BRANCH  17  18
ATOM     18  C   UNL     1      -7.467   3.208 127.621  0.00  0.00    +0.000 C 
BRANCH  18  20
ATOM     19  C   UNL     1      -8.050   4.721 125.858  0.00  0.00    +0.000 C 
ATOM     20  N   UNL     1      -7.037   3.777 126.327  0.00  0.00    +0.000 NA
ATOM     21  C   UNL     1      -5.741   4.453 126.431  0.00  0.00    +0.000 C 
ENDBRANCH  18  20
ENDBRANCH  17  18
ENDBRANCH   1  17
BRANCH  14  22
ATOM     22  C   UNL     1     -10.712   8.276 127.826  0.00  0.00    +0.000 C 
BRANCH  22  23
ATOM     23  C   UNL     1     -11.063   7.620 126.501  0.00  0.00    +0.000 C 
ATOM     24  O   UNL     1     -10.712   8.142 125.455  0.00  0.00    +0.000 OA
BRANCH  23  25
ATOM     25  O   UNL     1     -11.749   6.473 126.404  0.00  0.00    +0.000 OA
ATOM     26  H   UNL     1     -11.476   5.642 126.793  0.00  0.00    +0.000 HD
ENDBRANCH  23  25
ENDBRANCH  22  23
ENDBRANCH  14  22
TORSDOF 6
ENDMDL
MODEL 7
REMARK VINA RESULT:      -7.0      3.052      6.004
REMARK  Name = Olopatadine
REMARK  8 active torsions:
REMARK  status: ('A' for Active; 'I' for Inactive)
REMARK    1  A    between atoms: C_1  and  N_2
REMARK    2  A    between atoms: N_2  and  C_3
REMARK    3  A    between atoms: N_2  and  C_4
REMARK    4  A    between atoms: C_4  and  C_5
REMARK    5  A    between atoms: C_5  and  C_6
REMARK    6  A    between atoms: C_19  and  C_20
REMARK    7  A    between atoms: C_20  and  C_21
REMARK    8  A    between atoms: C_21  and  O_22
REMARK                            x       y       z     vdW  Elec       q    Type
REMARK                         _______ _______ _______ _____ _____    ______ ____
ROOT
ATOM      1  C   UNL     1      -7.092   1.629 122.939  0.00  0.00    +0.000 C 
ATOM      2  C   UNL     1      -7.074   0.992 124.131  0.00  0.00    +0.000 C 
ATOM      3  C   UNL     1      -7.464  -0.429 124.187  0.00  0.00    +0.000 A 
ATOM      4  C   UNL     1      -6.651  -1.414 123.632  0.00  0.00    +0.000 A 
ATOM      5  C   UNL     1      -6.989  -2.756 123.797  0.00  0.00    +0.000 A 
ATOM      6  C   UNL     1      -8.126  -3.113 124.524  0.00  0.00    +0.000 A 
ATOM      7  C   UNL     1      -8.923  -2.133 125.108  0.00  0.00    +0.000 A 
ATOM      8  C   UNL     1      -8.598  -0.786 124.936  0.00  0.00    +0.000 A 
ATOM      9  C   UNL     1      -9.394   0.295 125.606  0.00  0.00    +0.000 C 
ATOM     10  O   UNL     1      -8.701   0.787 126.741  0.00  0.00    +0.000 OA
ATOM     11  C   UNL     1      -7.597   1.562 126.530  0.00  0.00    +0.000 A 
ATOM     12  C   UNL     1      -6.795   1.717 125.392  0.00  0.00    +0.000 A 
ATOM     13  C   UNL     1      -5.626   2.517 125.479  0.00  0.00    +0.000 A 
ATOM     14  C   UNL     1      -5.308   3.265 126.622  0.00  0.00    +0.000 A 
ATOM     15  C   UNL     1      -6.161   3.087 127.697  0.00  0.00    +0.000 A 
ATOM     16  C   UNL     1      -7.251   2.237 127.676  0.00  0.00    +0.000 A 
ENDROOT
BRANCH   1  17
ATOM     17  C   UNL     1      -6.839   3.105 122.767  0.00  0.00    +0.000 C 
BRANCH  17  18
ATOM     18  C   UNL     1      -6.780   3.591 121.323  0.00  0.00    +0.000 C 
BRANCH  18  20
ATOM     19  C   UNL     1      -5.485   5.004 119.886  0.00  0.00    +0.000 C 
ATOM     20  N   UNL     1      -5.413   4.026 120.970  0.00  0.00    +0.000 NA
ATOM     21  C   UNL     1      -4.712   4.609 122.117  0.00  0.00    +0.000 C 
ENDBRANCH  18  20
ENDBRANCH  17  18
ENDBRANCH   1  17
BRANCH  14  22
ATOM     22  C   UNL     1      -4.101   4.180 126.576  0.00  0.00    +0.000 C 
BRANCH  22  23
ATOM     23  C   UNL     1      -2.744   3.868 127.188  0.00  0.00    +0.000 C 
ATOM     24  O   UNL     1      -2.191   4.700 127.890  0.00  0.00    +0.000 OA
BRANCH  23  25
ATOM     25  O   UNL     1      -2.100   2.709 127.001  0.00  0.00    +0.000 OA
ATOM     26  H   UNL     1      -1.147   2.614 126.969  0.00  0.00    +0.000 HD
ENDBRANCH  23  25
ENDBRANCH  22  23
ENDBRANCH  14  22
TORSDOF 6
ENDMDL
MODEL 8
REMARK VINA RESULT:      -7.0      6.117      8.773
REMARK  Name = Olopatadine
REMARK  8 active torsions:
REMARK  status: ('A' for Active; 'I' for Inactive)
REMARK    1  A    between atoms: C_1  and  N_2
REMARK    2  A    between atoms: N_2  and  C_3
REMARK    3  A    between atoms: N_2  and  C_4
REMARK    4  A    between atoms: C_4  and  C_5
REMARK    5  A    between atoms: C_5  and  C_6
REMARK    6  A    between atoms: C_19  and  C_20
REMARK    7  A    between atoms: C_20  and  C_21
REMARK    8  A    between atoms: C_21  and  O_22
REMARK                            x       y       z     vdW  Elec       q    Type
REMARK                         _______ _______ _______ _____ _____    ______ ____
ROOT
ATOM      1  C   UNL     1      -6.690  -1.832 130.850  0.00  0.00    +0.000 C 
ATOM      2  C   UNL     1      -7.527  -1.366 129.895  0.00  0.00    +0.000 C 
ATOM      3  C   UNL     1      -7.840  -2.226 128.740  0.00  0.00    +0.000 A 
ATOM      4  C   UNL     1      -8.625  -3.366 128.890  0.00  0.00    +0.000 A 
ATOM      5  C   UNL     1      -8.996  -4.097 127.764  0.00  0.00    +0.000 A 
ATOM      6  C   UNL     1      -8.598  -3.684 126.491  0.00  0.00    +0.000 A 
ATOM      7  C   UNL     1      -7.841  -2.527 126.332  0.00  0.00    +0.000 A 
ATOM      8  C   UNL     1      -7.454  -1.796 127.458  0.00  0.00    +0.000 A 
ATOM      9  C   UNL     1      -6.696  -0.509 127.323  0.00  0.00    +0.000 C 
ATOM     10  O   UNL     1      -7.563   0.596 127.519  0.00  0.00    +0.000 OA
ATOM     11  C   UNL     1      -8.003   0.847 128.786  0.00  0.00    +0.000 A 
ATOM     12  C   UNL     1      -8.032   0.026 129.922  0.00  0.00    +0.000 A 
ATOM     13  C   UNL     1      -8.651   0.509 131.103  0.00  0.00    +0.000 A 
ATOM     14  C   UNL     1      -9.123   1.824 131.224  0.00  0.00    +0.000 A 
ATOM     15  C   UNL     1      -9.034   2.588 130.074  0.00  0.00    +0.000 A 
ATOM     16  C   UNL     1      -8.527   2.114 128.878  0.00  0.00    +0.000 A 
ENDROOT
BRANCH   1  17
ATOM     17  C   UNL     1      -6.193  -1.009 132.011  0.00  0.00    +0.000 C 
BRANCH  17  18
ATOM     18  C   UNL     1      -6.609  -1.512 133.389  0.00  0.00    +0.000 C 
BRANCH  18  20
ATOM     19  C   UNL     1      -5.677  -0.808 135.481  0.00  0.00    +0.000 C 
ATOM     20  N   UNL     1      -6.561  -0.420 134.383  0.00  0.00    +0.000 NA
ATOM     21  C   UNL     1      -6.093   0.836 133.792  0.00  0.00    +0.000 C 
ENDBRANCH  18  20
ENDBRANCH  17  18
ENDBRANCH   1  17
BRANCH  14  22
ATOM     22  C   UNL     1      -9.662   2.281 132.565  0.00  0.00    +0.000 C 
BRANCH  22  23
ATOM     23  C   UNL     1      -9.099   3.426 133.390  0.00  0.00    +0.000 C 
ATOM     24  O   UNL     1      -7.932   3.756 133.251  0.00  0.00    +0.000 OA
BRANCH  23  25
ATOM     25  O   UNL     1      -9.821   4.116 134.284  0.00  0.00    +0.000 OA
ATOM     26  H   UNL     1     -10.693   3.865 134.588  0.00  0.00    +0.000 HD
ENDBRANCH  23  25
ENDBRANCH  22  23
ENDBRANCH  14  22
TORSDOF 6
ENDMDL
MODEL 9
REMARK VINA RESULT:      -6.8      6.170      8.491
REMARK  Name = Olopatadine
REMARK  8 active torsions:
REMARK  status: ('A' for Active; 'I' for Inactive)
REMARK    1  A    between atoms: C_1  and  N_2
REMARK    2  A    between atoms: N_2  and  C_3
REMARK    3  A    between atoms: N_2  and  C_4
REMARK    4  A    between atoms: C_4  and  C_5
REMARK    5  A    between atoms: C_5  and  C_6
REMARK    6  A    between atoms: C_19  and  C_20
REMARK    7  A    between atoms: C_20  and  C_21
REMARK    8  A    between atoms: C_21  and  O_22
REMARK                            x       y       z     vdW  Elec       q    Type
REMARK                         _______ _______ _______ _____ _____    ______ ____
ROOT
ATOM      1  C   UNL     1      -8.018   7.306 130.735  0.00  0.00    +0.000 C 
ATOM      2  C   UNL     1      -9.070   6.625 130.228  0.00  0.00    +0.000 C 
ATOM      3  C   UNL     1     -10.263   7.374 129.795  0.00  0.00    +0.000 A 
ATOM      4  C   UNL     1     -10.226   8.184 128.663  0.00  0.00    +0.000 A 
ATOM      5  C   UNL     1     -11.397   8.792 128.215  0.00  0.00    +0.000 A 
ATOM      6  C   UNL     1     -12.603   8.580 128.885  0.00  0.00    +0.000 A 
ATOM      7  C   UNL     1     -12.652   7.745 129.997  0.00  0.00    +0.000 A 
ATOM      8  C   UNL     1     -11.480   7.143 130.461  0.00  0.00    +0.000 A 
ATOM      9  C   UNL     1     -11.505   6.185 131.614  0.00  0.00    +0.000 C 
ATOM     10  O   UNL     1     -11.415   4.849 131.147  0.00  0.00    +0.000 OA
ATOM     11  C   UNL     1     -10.215   4.421 130.660  0.00  0.00    +0.000 A 
ATOM     12  C   UNL     1      -9.099   5.144 130.216  0.00  0.00    +0.000 A 
ATOM     13  C   UNL     1      -8.005   4.441 129.649  0.00  0.00    +0.000 A 
ATOM     14  C   UNL     1      -7.937   3.040 129.631  0.00  0.00    +0.000 A 
ATOM     15  C   UNL     1      -9.060   2.391 130.113  0.00  0.00    +0.000 A 
ATOM     16  C   UNL     1     -10.183   3.050 130.579  0.00  0.00    +0.000 A 
ENDROOT
BRANCH   1  17
ATOM     17  C   UNL     1      -6.795   6.653 131.327  0.00  0.00    +0.000 C 
BRANCH  17  18
ATOM     18  C   UNL     1      -5.463   7.135 130.764  0.00  0.00    +0.000 C 
BRANCH  18  20
ATOM     19  C   UNL     1      -3.893   6.760 132.534  0.00  0.00    +0.000 C 
ATOM     20  N   UNL     1      -4.353   6.280 131.233  0.00  0.00    +0.000 NA
ATOM     21  C   UNL     1      -4.755   4.874 131.338  0.00  0.00    +0.000 C 
ENDBRANCH  18  20
ENDBRANCH  17  18
ENDBRANCH   1  17
BRANCH  14  22
ATOM     22  C   UNL     1      -6.675   2.383 129.109  0.00  0.00    +0.000 C 
BRANCH  22  23
ATOM     23  C   UNL     1      -5.835   2.898 127.951  0.00  0.00    +0.000 C 
ATOM     24  O   UNL     1      -4.677   3.231 128.146  0.00  0.00    +0.000 OA
BRANCH  23  25
ATOM     25  O   UNL     1      -6.296   3.011 126.699  0.00  0.00    +0.000 OA
ATOM     26  H   UNL     1      -7.038   2.519 126.345  0.00  0.00    +0.000 HD
ENDBRANCH  23  25
ENDBRANCH  22  23
ENDBRANCH  14  22
TORSDOF 6
ENDMDL
