MODEL 1
REMARK VINA RESULT:      -7.2      0.000      0.000
REMARK  Name = Olsalazine
REMARK  8 active torsions:
REMARK  status: ('A' for Active; 'I' for Inactive)
REMARK    1  A    between atoms: O_1  and  C_2
REMARK    2  A    between atoms: C_2  and  C_4
REMARK    3  A    between atoms: C_6  and  N_11
REMARK    4  A    between atoms: C_9  and  O_10
REMARK    5  A    between atoms: N_12  and  C_13
REMARK    6  A    between atoms: C_16  and  O_17
REMARK    7  A    between atoms: C_18  and  C_20
REMARK    8  A    between atoms: C_20  and  O_21
REMARK                            x       y       z     vdW  Elec       q    Type
REMARK                         _______ _______ _______ _____ _____    ______ ____
ROOT
ATOM      1  N   UNL     1      -8.848   5.462 126.793  0.00  0.00    +0.000 NA
ATOM      2  N   UNL     1      -9.667   6.331 126.394  0.00  0.00    +0.000 NA
ENDROOT
BRANCH   1   5
ATOM      3  C   UNL     1      -7.869   3.063 124.056  0.00  0.00    +0.000 A 
ATOM      4  C   UNL     1      -8.608   3.747 125.052  0.00  0.00    +0.000 A 
ATOM      5  C   UNL     1      -8.073   4.853 125.749  0.00  0.00    +0.000 A 
ATOM      6  C   UNL     1      -6.783   5.270 125.372  0.00  0.00    +0.000 A 
ATOM      7  C   UNL     1      -6.054   4.618 124.358  0.00  0.00    +0.000 A 
ATOM      8  C   UNL     1      -6.592   3.506 123.715  0.00  0.00    +0.000 A 
BRANCH   3   9
ATOM      9  C   UNL     1      -8.481   1.907 123.350  0.00  0.00    +0.000 C 
ATOM     10  O   UNL     1      -9.536   1.998 122.738  0.00  0.00    +0.000 OA
BRANCH   9  11
ATOM     11  O   UNL     1      -7.823   0.738 123.513  0.00  0.00    +0.000 OA
ATOM     12  H   UNL     1      -7.524   0.576 124.431  0.00  0.00    +0.000 HD
ENDBRANCH   9  11
ENDBRANCH   3   9
BRANCH   8  13
ATOM     13  O   UNL     1      -5.875   2.833 122.766  0.00  0.00    +0.000 OA
ATOM     14  H   UNL     1      -5.084   2.424 123.162  0.00  0.00    +0.000 HD
ENDBRANCH   8  13
ENDBRANCH   1   5
BRANCH   2  15
ATOM     15  C   UNL     1     -10.398   6.973 127.441  0.00  0.00    +0.000 A 
ATOM     16  C   UNL     1     -11.317   8.006 127.218  0.00  0.00    +0.000 A 
ATOM     17  C   UNL     1     -12.068   8.552 128.272  0.00  0.00    +0.000 A 
ATOM     18  C   UNL     1     -11.918   8.064 129.572  0.00  0.00    +0.000 A 
ATOM     19  C   UNL     1     -11.008   7.027 129.851  0.00  0.00    +0.000 A 
ATOM     20  C   UNL     1     -10.268   6.490 128.765  0.00  0.00    +0.000 A 
BRANCH  18  21
ATOM     21  O   UNL     1     -12.681   8.605 130.570  0.00  0.00    +0.000 OA
ATOM     22  H   UNL     1     -13.612   8.695 130.321  0.00  0.00    +0.000 HD
ENDBRANCH  18  21
BRANCH  19  23
ATOM     23  C   UNL     1     -10.862   6.543 131.277  0.00  0.00    +0.000 C 
ATOM     24  O   UNL     1      -9.822   6.582 131.919  0.00  0.00    +0.000 OA
BRANCH  23  25
ATOM     25  O   UNL     1     -11.969   6.032 131.860  0.00  0.00    +0.000 OA
ATOM     26  H   UNL     1     -12.250   6.369 132.722  0.00  0.00    +0.000 HD
ENDBRANCH  23  25
ENDBRANCH  19  23
ENDBRANCH   2  15
TORSDOF 8
ENDMDL
MODEL 2
REMARK VINA RESULT:      -7.1      4.847      7.081
REMARK  Name = Olsalazine
REMARK  8 active torsions:
REMARK  status: ('A' for Active; 'I' for Inactive)
REMARK    1  A    between atoms: O_1  and  C_2
REMARK    2  A    between atoms: C_2  and  C_4
REMARK    3  A    between atoms: C_6  and  N_11
REMARK    4  A    between atoms: C_9  and  O_10
REMARK    5  A    between atoms: N_12  and  C_13
REMARK    6  A    between atoms: C_16  and  O_17
REMARK    7  A    between atoms: C_18  and  C_20
REMARK    8  A    between atoms: C_20  and  O_21
REMARK                            x       y       z     vdW  Elec       q    Type
REMARK                         _______ _______ _______ _____ _____    ______ ____
ROOT
ATOM      1  N   UNL     1      -8.263   6.848 130.681  0.00  0.00    +0.000 NA
ATOM      2  N   UNL     1      -9.336   6.722 131.325  0.00  0.00    +0.000 NA
ENDROOT
BRANCH   1   5
ATOM      3  C   UNL     1      -4.624   6.894 131.662  0.00  0.00    +0.000 A 
ATOM      4  C   UNL     1      -5.841   7.125 130.975  0.00  0.00    +0.000 A 
ATOM      5  C   UNL     1      -7.075   6.635 131.457  0.00  0.00    +0.000 A 
ATOM      6  C   UNL     1      -7.040   5.940 132.680  0.00  0.00    +0.000 A 
ATOM      7  C   UNL     1      -5.840   5.734 133.389  0.00  0.00    +0.000 A 
ATOM      8  C   UNL     1      -4.634   6.197 132.870  0.00  0.00    +0.000 A 
BRANCH   3   9
ATOM      9  C   UNL     1      -3.354   7.436 131.112  0.00  0.00    +0.000 C 
ATOM     10  O   UNL     1      -2.586   8.110 131.785  0.00  0.00    +0.000 OA
BRANCH   9  11
ATOM     11  O   UNL     1      -3.164   7.196 129.796  0.00  0.00    +0.000 OA
ATOM     12  H   UNL     1      -3.490   6.321 129.503  0.00  0.00    +0.000 HD
ENDBRANCH   9  11
ENDBRANCH   3   9
BRANCH   8  13
ATOM     13  O   UNL     1      -3.455   5.959 133.520  0.00  0.00    +0.000 OA
ATOM     14  H   UNL     1      -3.623   5.611 134.414  0.00  0.00    +0.000 HD
ENDBRANCH   8  13
ENDBRANCH   1   5
BRANCH   2  15
ATOM     15  C   UNL     1     -10.518   6.881 130.538  0.00  0.00    +0.000 A 
ATOM     16  C   UNL     1     -11.801   6.993 131.086  0.00  0.00    +0.000 A 
ATOM     17  C   UNL     1     -12.922   7.227 130.273  0.00  0.00    +0.000 A 
ATOM     18  C   UNL     1     -12.775   7.363 128.890  0.00  0.00    +0.000 A 
ATOM     19  C   UNL     1     -11.508   7.259 128.288  0.00  0.00    +0.000 A 
ATOM     20  C   UNL     1     -10.392   7.030 129.135  0.00  0.00    +0.000 A 
BRANCH  18  21
ATOM     21  O   UNL     1     -13.886   7.611 128.132  0.00  0.00    +0.000 OA
ATOM     22  H   UNL     1     -14.665   7.124 128.440  0.00  0.00    +0.000 HD
ENDBRANCH  18  21
BRANCH  19  23
ATOM     23  C   UNL     1     -11.397   7.392 126.784  0.00  0.00    +0.000 C 
ATOM     24  O   UNL     1     -10.675   8.196 126.211  0.00  0.00    +0.000 OA
BRANCH  23  25
ATOM     25  O   UNL     1     -12.161   6.559 126.044  0.00  0.00    +0.000 OA
ATOM     26  H   UNL     1     -13.122   6.576 126.151  0.00  0.00    +0.000 HD
ENDBRANCH  23  25
ENDBRANCH  19  23
ENDBRANCH   2  15
TORSDOF 8
ENDMDL
MODEL 3
REMARK VINA RESULT:      -7.0      4.841      6.223
REMARK  Name = Olsalazine
REMARK  8 active torsions:
REMARK  status: ('A' for Active; 'I' for Inactive)
REMARK    1  A    between atoms: O_1  and  C_2
REMARK    2  A    between atoms: C_2  and  C_4
REMARK    3  A    between atoms: C_6  and  N_11
REMARK    4  A    between atoms: C_9  and  O_10
REMARK    5  A    between atoms: N_12  and  C_13
REMARK    6  A    between atoms: C_16  and  O_17
REMARK    7  A    between atoms: C_18  and  C_20
REMARK    8  A    between atoms: C_20  and  O_21
REMARK                            x       y       z     vdW  Elec       q    Type
REMARK                         _______ _______ _______ _____ _____    ______ ____
ROOT
ATOM      1  N   UNL     1      -7.135   6.527 131.576  0.00  0.00    +0.000 NA
ATOM      2  N   UNL     1      -7.826   6.757 130.549  0.00  0.00    +0.000 NA
ENDROOT
BRANCH   1   5
ATOM      3  C   UNL     1      -3.836   6.606 129.756  0.00  0.00    +0.000 A 
ATOM      4  C   UNL     1      -5.224   6.625 130.038  0.00  0.00    +0.000 A 
ATOM      5  C   UNL     1      -5.717   6.569 131.360  0.00  0.00    +0.000 A 
ATOM      6  C   UNL     1      -4.757   6.539 132.389  0.00  0.00    +0.000 A 
ATOM      7  C   UNL     1      -3.374   6.554 132.120  0.00  0.00    +0.000 A 
ATOM      8  C   UNL     1      -2.918   6.571 130.804  0.00  0.00    +0.000 A 
BRANCH   3   9
ATOM      9  C   UNL     1      -3.371   6.671 128.345  0.00  0.00    +0.000 C 
ATOM     10  O   UNL     1      -2.322   7.213 128.027  0.00  0.00    +0.000 OA
BRANCH   9  11
ATOM     11  O   UNL     1      -4.238   6.158 127.444  0.00  0.00    +0.000 OA
ATOM     12  H   UNL     1      -4.124   6.514 126.540  0.00  0.00    +0.000 HD
ENDBRANCH   9  11
ENDBRANCH   3   9
BRANCH   8  13
ATOM     13  O   UNL     1      -1.580   6.534 130.527  0.00  0.00    +0.000 OA
ATOM     14  H   UNL     1      -1.432   6.409 129.573  0.00  0.00    +0.000 HD
ENDBRANCH   8  13
ENDBRANCH   1   5
BRANCH   2  15
ATOM     15  C   UNL     1      -9.236   6.768 130.779  0.00  0.00    +0.000 A 
ATOM     16  C   UNL     1      -9.830   6.284 131.951  0.00  0.00    +0.000 A 
ATOM     17  C   UNL     1     -11.215   6.389 132.163  0.00  0.00    +0.000 A 
ATOM     18  C   UNL     1     -12.031   6.992 131.203  0.00  0.00    +0.000 A 
ATOM     19  C   UNL     1     -11.485   7.495 130.007  0.00  0.00    +0.000 A 
ATOM     20  C   UNL     1     -10.082   7.382 129.825  0.00  0.00    +0.000 A 
BRANCH  18  21
ATOM     21  O   UNL     1     -13.372   7.095 131.451  0.00  0.00    +0.000 OA
ATOM     22  H   UNL     1     -13.889   7.259 130.648  0.00  0.00    +0.000 HD
ENDBRANCH  18  21
BRANCH  19  23
ATOM     23  C   UNL     1     -12.410   8.121 128.986  0.00  0.00    +0.000 C 
ATOM     24  O   UNL     1     -13.387   7.567 128.504  0.00  0.00    +0.000 OA
BRANCH  23  25
ATOM     25  O   UNL     1     -12.112   9.378 128.589  0.00  0.00    +0.000 OA
ATOM     26  H   UNL     1     -12.037   9.573 127.645  0.00  0.00    +0.000 HD
ENDBRANCH  23  25
ENDBRANCH  19  23
ENDBRANCH   2  15
TORSDOF 8
ENDMDL
MODEL 4
REMARK VINA RESULT:      -6.9      4.864      7.567
REMARK  Name = Olsalazine
REMARK  8 active torsions:
REMARK  status: ('A' for Active; 'I' for Inactive)
REMARK    1  A    between atoms: O_1  and  C_2
REMARK    2  A    between atoms: C_2  and  C_4
REMARK    3  A    between atoms: C_6  and  N_11
REMARK    4  A    between atoms: C_9  and  O_10
REMARK    5  A    between atoms: N_12  and  C_13
REMARK    6  A    between atoms: C_16  and  O_17
REMARK    7  A    between atoms: C_18  and  C_20
REMARK    8  A    between atoms: C_20  and  O_21
REMARK                            x       y       z     vdW  Elec       q    Type
REMARK                         _______ _______ _______ _____ _____    ______ ____
ROOT
ATOM      1  N   UNL     1      -9.409   6.731 131.432  0.00  0.00    +0.000 NA
ATOM      2  N   UNL     1      -8.327   6.705 130.789  0.00  0.00    +0.000 NA
ENDROOT
BRANCH   1   5
ATOM      3  C   UNL     1     -11.539   7.280 128.373  0.00  0.00    +0.000 A 
ATOM      4  C   UNL     1     -10.431   7.042 129.222  0.00  0.00    +0.000 A 
ATOM      5  C   UNL     1     -10.579   6.907 130.620  0.00  0.00    +0.000 A 
ATOM      6  C   UNL     1     -11.891   6.978 131.123  0.00  0.00    +0.000 A 
ATOM      7  C   UNL     1     -13.003   7.180 130.283  0.00  0.00    +0.000 A 
ATOM      8  C   UNL     1     -12.823   7.348 128.913  0.00  0.00    +0.000 A 
BRANCH   3   9
ATOM      9  C   UNL     1     -11.328   7.411 126.907  0.00  0.00    +0.000 C 
ATOM     10  O   UNL     1     -10.586   8.256 126.426  0.00  0.00    +0.000 OA
BRANCH   9  11
ATOM     11  O   UNL     1     -12.083   6.580 126.155  0.00  0.00    +0.000 OA
ATOM     12  H   UNL     1     -11.961   6.699 125.191  0.00  0.00    +0.000 HD
ENDBRANCH   9  11
ENDBRANCH   3   9
BRANCH   8  13
ATOM     13  O   UNL     1     -13.887   7.597 128.092  0.00  0.00    +0.000 OA
ATOM     14  H   UNL     1     -13.581   7.917 127.224  0.00  0.00    +0.000 HD
ENDBRANCH   8  13
ENDBRANCH   1   5
BRANCH   2  15
ATOM     15  C   UNL     1      -7.170   6.475 131.595  0.00  0.00    +0.000 A 
ATOM     16  C   UNL     1      -7.198   5.764 132.801  0.00  0.00    +0.000 A 
ATOM     17  C   UNL     1      -6.019   5.497 133.517  0.00  0.00    +0.000 A 
ATOM     18  C   UNL     1      -4.784   5.931 133.029  0.00  0.00    +0.000 A 
ATOM     19  C   UNL     1      -4.699   6.650 131.823  0.00  0.00    +0.000 A 
ATOM     20  C   UNL     1      -5.906   6.898 131.117  0.00  0.00    +0.000 A 
BRANCH  18  21
ATOM     21  O   UNL     1      -3.655   5.636 133.742  0.00  0.00    +0.000 OA
ATOM     22  H   UNL     1      -3.697   4.765 134.164  0.00  0.00    +0.000 HD
ENDBRANCH  18  21
BRANCH  19  23
ATOM     23  C   UNL     1      -3.343   7.120 131.343  0.00  0.00    +0.000 C 
ATOM     24  O   UNL     1      -2.433   6.378 131.001  0.00  0.00    +0.000 OA
BRANCH  23  25
ATOM     25  O   UNL     1      -3.144   8.456 131.302  0.00  0.00    +0.000 OA
ATOM     26  H   UNL     1      -3.852   9.050 131.584  0.00  0.00    +0.000 HD
ENDBRANCH  23  25
ENDBRANCH  19  23
ENDBRANCH   2  15
TORSDOF 8
ENDMDL
MODEL 5
REMARK VINA RESULT:      -6.9      4.968      8.576
REMARK  Name = Olsalazine
REMARK  8 active torsions:
REMARK  status: ('A' for Active; 'I' for Inactive)
REMARK    1  A    between atoms: O_1  and  C_2
REMARK    2  A    between atoms: C_2  and  C_4
REMARK    3  A    between atoms: C_6  and  N_11
REMARK    4  A    between atoms: C_9  and  O_10
REMARK    5  A    between atoms: N_12  and  C_13
REMARK    6  A    between atoms: C_16  and  O_17
REMARK    7  A    between atoms: C_18  and  C_20
REMARK    8  A    between atoms: C_20  and  O_21
REMARK                            x       y       z     vdW  Elec       q    Type
REMARK                         _______ _______ _______ _____ _____    ______ ____
ROOT
ATOM      1  N   UNL     1      -7.371   6.923 130.660  0.00  0.00    +0.000 NA
ATOM      2  N   UNL     1      -6.689   6.334 131.539  0.00  0.00    +0.000 NA
ENDROOT
BRANCH   1   5
ATOM      3  C   UNL     1     -11.059   7.360 130.022  0.00  0.00    +0.000 A 
ATOM      4  C   UNL     1      -9.652   7.355 129.861  0.00  0.00    +0.000 A 
ATOM      5  C   UNL     1      -8.790   6.841 130.855  0.00  0.00    +0.000 A 
ATOM      6  C   UNL     1      -9.404   6.293 131.997  0.00  0.00    +0.000 A 
ATOM      7  C   UNL     1     -10.804   6.263 132.151  0.00  0.00    +0.000 A 
ATOM      8  C   UNL     1     -11.627   6.811 131.171  0.00  0.00    +0.000 A 
BRANCH   3   9
ATOM      9  C   UNL     1     -11.921   7.910 128.942  0.00  0.00    +0.000 C 
ATOM     10  O   UNL     1     -12.925   7.332 128.548  0.00  0.00    +0.000 OA
BRANCH   9  11
ATOM     11  O   UNL     1     -11.459   9.049 128.380  0.00  0.00    +0.000 OA
ATOM     12  H   UNL     1     -11.465   9.038 127.402  0.00  0.00    +0.000 HD
ENDBRANCH   9  11
ENDBRANCH   3   9
BRANCH   8  13
ATOM     13  O   UNL     1     -12.984   6.836 131.330  0.00  0.00    +0.000 OA
ATOM     14  H   UNL     1     -13.415   6.261 130.671  0.00  0.00    +0.000 HD
ENDBRANCH   8  13
ENDBRANCH   1   5
BRANCH   2  15
ATOM     15  C   UNL     1      -5.276   6.464 131.372  0.00  0.00    +0.000 A 
ATOM     16  C   UNL     1      -4.403   6.790 132.417  0.00  0.00    +0.000 A 
ATOM     17  C   UNL     1      -3.013   6.828 132.219  0.00  0.00    +0.000 A 
ATOM     18  C   UNL     1      -2.470   6.531 130.966  0.00  0.00    +0.000 A 
ATOM     19  C   UNL     1      -3.303   6.198 129.882  0.00  0.00    +0.000 A 
ATOM     20  C   UNL     1      -4.703   6.159 130.114  0.00  0.00    +0.000 A 
BRANCH  18  21
ATOM     21  O   UNL     1      -1.111   6.559 130.814  0.00  0.00    +0.000 OA
ATOM     22  H   UNL     1      -0.649   6.797 131.632  0.00  0.00    +0.000 HD
ENDBRANCH  18  21
BRANCH  19  23
ATOM     23  C   UNL     1      -2.674   5.903 128.537  0.00  0.00    +0.000 C 
ATOM     24  O   UNL     1      -2.744   4.826 127.961  0.00  0.00    +0.000 OA
BRANCH  23  25
ATOM     25  O   UNL     1      -1.989   6.911 127.955  0.00  0.00    +0.000 OA
ATOM     26  H   UNL     1      -2.251   7.218 127.077  0.00  0.00    +0.000 HD
ENDBRANCH  23  25
ENDBRANCH  19  23
ENDBRANCH   2  15
TORSDOF 8
ENDMDL
MODEL 6
REMARK VINA RESULT:      -6.9      1.399      8.250
REMARK  Name = Olsalazine
REMARK  8 active torsions:
REMARK  status: ('A' for Active; 'I' for Inactive)
REMARK    1  A    between atoms: O_1  and  C_2
REMARK    2  A    between atoms: C_2  and  C_4
REMARK    3  A    between atoms: C_6  and  N_11
REMARK    4  A    between atoms: C_9  and  O_10
REMARK    5  A    between atoms: N_12  and  C_13
REMARK    6  A    between atoms: C_16  and  O_17
REMARK    7  A    between atoms: C_18  and  C_20
REMARK    8  A    between atoms: C_20  and  O_21
REMARK                            x       y       z     vdW  Elec       q    Type
REMARK                         _______ _______ _______ _____ _____    ______ ____
ROOT
ATOM      1  N   UNL     1      -8.654   5.299 127.751  0.00  0.00    +0.000 NA
ATOM      2  N   UNL     1      -7.724   4.457 127.642  0.00  0.00    +0.000 NA
ENDROOT
BRANCH   1   5
ATOM      3  C   UNL     1     -10.755   6.543 130.621  0.00  0.00    +0.000 A 
ATOM      4  C   UNL     1     -10.300   6.228 129.317  0.00  0.00    +0.000 A 
ATOM      5  C   UNL     1      -9.092   5.530 129.098  0.00  0.00    +0.000 A 
ATOM      6  C   UNL     1      -8.383   5.125 130.244  0.00  0.00    +0.000 A 
ATOM      7  C   UNL     1      -8.845   5.403 131.545  0.00  0.00    +0.000 A 
ATOM      8  C   UNL     1     -10.020   6.126 131.730  0.00  0.00    +0.000 A 
BRANCH   3   9
ATOM      9  C   UNL     1     -12.036   7.277 130.796  0.00  0.00    +0.000 C 
ATOM     10  O   UNL     1     -12.912   6.890 131.558  0.00  0.00    +0.000 OA
BRANCH   9  11
ATOM     11  O   UNL     1     -12.184   8.349 129.988  0.00  0.00    +0.000 OA
ATOM     12  H   UNL     1     -11.424   8.501 129.390  0.00  0.00    +0.000 HD
ENDBRANCH   9  11
ENDBRANCH   3   9
BRANCH   8  13
ATOM     13  O   UNL     1     -10.453   6.448 132.986  0.00  0.00    +0.000 OA
ATOM     14  H   UNL     1     -11.273   6.971 132.940  0.00  0.00    +0.000 HD
ENDBRANCH   8  13
ENDBRANCH   1   5
BRANCH   2  15
ATOM     15  C   UNL     1      -7.254   4.270 126.307  0.00  0.00    +0.000 A 
ATOM     16  C   UNL     1      -5.929   4.499 125.916  0.00  0.00    +0.000 A 
ATOM     17  C   UNL     1      -5.497   4.224 124.608  0.00  0.00    +0.000 A 
ATOM     18  C   UNL     1      -6.388   3.703 123.666  0.00  0.00    +0.000 A 
ATOM     19  C   UNL     1      -7.730   3.454 124.006  0.00  0.00    +0.000 A 
ATOM     20  C   UNL     1      -8.136   3.734 125.338  0.00  0.00    +0.000 A 
BRANCH  18  21
ATOM     21  O   UNL     1      -5.928   3.428 122.407  0.00  0.00    +0.000 OA
ATOM     22  H   UNL     1      -4.961   3.444 122.351  0.00  0.00    +0.000 HD
ENDBRANCH  18  21
BRANCH  19  23
ATOM     23  C   UNL     1      -8.666   2.909 122.949  0.00  0.00    +0.000 C 
ATOM     24  O   UNL     1      -9.337   1.893 123.074  0.00  0.00    +0.000 OA
BRANCH  23  25
ATOM     25  O   UNL     1      -8.746   3.604 121.793  0.00  0.00    +0.000 OA
ATOM     26  H   UNL     1      -7.936   3.929 121.378  0.00  0.00    +0.000 HD
ENDBRANCH  23  25
ENDBRANCH  19  23
ENDBRANCH   2  15
TORSDOF 8
ENDMDL
MODEL 7
REMARK VINA RESULT:      -6.9      5.355      8.217
REMARK  Name = Olsalazine
REMARK  8 active torsions:
REMARK  status: ('A' for Active; 'I' for Inactive)
REMARK    1  A    between atoms: O_1  and  C_2
REMARK    2  A    between atoms: C_2  and  C_4
REMARK    3  A    between atoms: C_6  and  N_11
REMARK    4  A    between atoms: C_9  and  O_10
REMARK    5  A    between atoms: N_12  and  C_13
REMARK    6  A    between atoms: C_16  and  O_17
REMARK    7  A    between atoms: C_18  and  C_20
REMARK    8  A    between atoms: C_20  and  O_21
REMARK                            x       y       z     vdW  Elec       q    Type
REMARK                         _______ _______ _______ _____ _____    ______ ____
ROOT
ATOM      1  N   UNL     1      -7.753   6.571 131.525  0.00  0.00    +0.000 NA
ATOM      2  N   UNL     1      -6.974   7.185 130.750  0.00  0.00    +0.000 NA
ENDROOT
BRANCH   1   5
ATOM      3  C   UNL     1     -10.863   7.582 129.652  0.00  0.00    +0.000 A 
ATOM      4  C   UNL     1      -9.508   7.385 130.013  0.00  0.00    +0.000 A 
ATOM      5  C   UNL     1      -9.142   6.681 131.181  0.00  0.00    +0.000 A 
ATOM      6  C   UNL     1     -10.194   6.146 131.948  0.00  0.00    +0.000 A 
ATOM      7  C   UNL     1     -11.544   6.307 131.579  0.00  0.00    +0.000 A 
ATOM      8  C   UNL     1     -11.875   7.039 130.442  0.00  0.00    +0.000 A 
BRANCH   3   9
ATOM      9  C   UNL     1     -11.192   8.328 128.409  0.00  0.00    +0.000 C 
ATOM     10  O   UNL     1     -10.619   8.117 127.349  0.00  0.00    +0.000 OA
BRANCH   9  11
ATOM     11  O   UNL     1     -12.110   9.307 128.568  0.00  0.00    +0.000 OA
ATOM     12  H   UNL     1     -12.989   9.089 128.196  0.00  0.00    +0.000 HD
ENDBRANCH   9  11
ENDBRANCH   3   9
BRANCH   8  13
ATOM     13  O   UNL     1     -13.182   7.247 130.100  0.00  0.00    +0.000 OA
ATOM     14  H   UNL     1     -13.260   7.431 129.147  0.00  0.00    +0.000 HD
ENDBRANCH   8  13
ENDBRANCH   1   5
BRANCH   2  15
ATOM     15  C   UNL     1      -5.589   7.029 131.063  0.00  0.00    +0.000 A 
ATOM     16  C   UNL     1      -4.558   7.606 130.311  0.00  0.00    +0.000 A 
ATOM     17  C   UNL     1      -3.215   7.489 130.706  0.00  0.00    +0.000 A 
ATOM     18  C   UNL     1      -2.881   6.795 131.872  0.00  0.00    +0.000 A 
ATOM     19  C   UNL     1      -3.877   6.196 132.664  0.00  0.00    +0.000 A 
ATOM     20  C   UNL     1      -5.226   6.338 132.245  0.00  0.00    +0.000 A 
BRANCH  18  21
ATOM     21  O   UNL     1      -1.565   6.718 132.236  0.00  0.00    +0.000 OA
ATOM     22  H   UNL     1      -1.384   5.972 132.828  0.00  0.00    +0.000 HD
ENDBRANCH  18  21
BRANCH  19  23
ATOM     23  C   UNL     1      -3.468   5.437 133.907  0.00  0.00    +0.000 C 
ATOM     24  O   UNL     1      -3.934   5.630 135.022  0.00  0.00    +0.000 OA
BRANCH  23  25
ATOM     25  O   UNL     1      -2.518   4.489 133.754  0.00  0.00    +0.000 OA
ATOM     26  H   UNL     1      -1.629   4.749 133.476  0.00  0.00    +0.000 HD
ENDBRANCH  23  25
ENDBRANCH  19  23
ENDBRANCH   2  15
TORSDOF 8
ENDMDL
MODEL 8
REMARK VINA RESULT:      -6.8      5.381      7.356
REMARK  Name = Olsalazine
REMARK  8 active torsions:
REMARK  status: ('A' for Active; 'I' for Inactive)
REMARK    1  A    between atoms: O_1  and  C_2
REMARK    2  A    between atoms: C_2  and  C_4
REMARK    3  A    between atoms: C_6  and  N_11
REMARK    4  A    between atoms: C_9  and  O_10
REMARK    5  A    between atoms: N_12  and  C_13
REMARK    6  A    between atoms: C_16  and  O_17
REMARK    7  A    between atoms: C_18  and  C_20
REMARK    8  A    between atoms: C_20  and  O_21
REMARK                            x       y       z     vdW  Elec       q    Type
REMARK                         _______ _______ _______ _____ _____    ______ ____
ROOT
ATOM      1  N   UNL     1      -6.941   7.187 130.770  0.00  0.00    +0.000 NA
ATOM      2  N   UNL     1      -7.721   6.558 131.533  0.00  0.00    +0.000 NA
ENDROOT
BRANCH   1   5
ATOM      3  C   UNL     1      -3.834   6.243 132.683  0.00  0.00    +0.000 A 
ATOM      4  C   UNL     1      -5.186   6.365 132.277  0.00  0.00    +0.000 A 
ATOM      5  C   UNL     1      -5.550   7.042 131.092  0.00  0.00    +0.000 A 
ATOM      6  C   UNL     1      -4.497   7.553 130.311  0.00  0.00    +0.000 A 
ATOM      7  C   UNL     1      -3.148   7.407 130.689  0.00  0.00    +0.000 A 
ATOM      8  C   UNL     1      -2.821   6.768 131.882  0.00  0.00    +0.000 A 
BRANCH   3   9
ATOM      9  C   UNL     1      -3.506   5.517 133.938  0.00  0.00    +0.000 C 
ATOM     10  O   UNL     1      -3.985   5.830 135.019  0.00  0.00    +0.000 OA
BRANCH   9  11
ATOM     11  O   UNL     1      -2.576   4.546 133.798  0.00  0.00    +0.000 OA
ATOM     12  H   UNL     1      -1.907   4.736 133.109  0.00  0.00    +0.000 HD
ENDBRANCH   9  11
ENDBRANCH   3   9
BRANCH   8  13
ATOM     13  O   UNL     1      -1.520   6.665 132.286  0.00  0.00    +0.000 OA
ATOM     14  H   UNL     1      -1.231   5.734 132.273  0.00  0.00    +0.000 HD
ENDBRANCH   8  13
ENDBRANCH   1   5
BRANCH   2  15
ATOM     15  C   UNL     1      -9.101   6.660 131.176  0.00  0.00    +0.000 A 
ATOM     16  C   UNL     1     -10.139   6.134 131.954  0.00  0.00    +0.000 A 
ATOM     17  C   UNL     1     -11.485   6.330 131.601  0.00  0.00    +0.000 A 
ATOM     18  C   UNL     1     -11.815   7.067 130.461  0.00  0.00    +0.000 A 
ATOM     19  C   UNL     1     -10.810   7.617 129.644  0.00  0.00    +0.000 A 
ATOM     20  C   UNL     1      -9.460   7.410 130.030  0.00  0.00    +0.000 A 
BRANCH  18  21
ATOM     21  O   UNL     1     -13.136   7.254 130.159  0.00  0.00    +0.000 OA
ATOM     22  H   UNL     1     -13.352   8.183 129.990  0.00  0.00    +0.000 HD
ENDBRANCH  18  21
BRANCH  19  23
ATOM     23  C   UNL     1     -11.213   8.391 128.407  0.00  0.00    +0.000 C 
ATOM     24  O   UNL     1     -10.731   8.220 127.296  0.00  0.00    +0.000 OA
BRANCH  23  25
ATOM     25  O   UNL     1     -12.167   9.334 128.566  0.00  0.00    +0.000 OA
ATOM     26  H   UNL     1     -11.912  10.265 128.605  0.00  0.00    +0.000 HD
ENDBRANCH  23  25
ENDBRANCH  19  23
ENDBRANCH   2  15
TORSDOF 8
ENDMDL
MODEL 9
REMARK VINA RESULT:      -6.6      1.319      2.351
REMARK  Name = Olsalazine
REMARK  8 active torsions:
REMARK  status: ('A' for Active; 'I' for Inactive)
REMARK    1  A    between atoms: O_1  and  C_2
REMARK    2  A    between atoms: C_2  and  C_4
REMARK    3  A    between atoms: C_6  and  N_11
REMARK    4  A    between atoms: C_9  and  O_10
REMARK    5  A    between atoms: N_12  and  C_13
REMARK    6  A    between atoms: C_16  and  O_17
REMARK    7  A    between atoms: C_18  and  C_20
REMARK    8  A    between atoms: C_20  and  O_21
REMARK                            x       y       z     vdW  Elec       q    Type
REMARK                         _______ _______ _______ _____ _____    ______ ____
ROOT
ATOM      1  N   UNL     1      -8.183   4.228 127.526  0.00  0.00    +0.000 NA
ATOM      2  N   UNL     1      -8.713   5.356 127.701  0.00  0.00    +0.000 NA
ENDROOT
BRANCH   1   5
ATOM      3  C   UNL     1      -7.890   3.296 123.886  0.00  0.00    +0.000 A 
ATOM      4  C   UNL     1      -8.416   3.562 125.174  0.00  0.00    +0.000 A 
ATOM      5  C   UNL     1      -7.603   4.039 126.227  0.00  0.00    +0.000 A 
ATOM      6  C   UNL     1      -6.251   4.277 125.919  0.00  0.00    +0.000 A 
ATOM      7  C   UNL     1      -5.726   4.047 124.631  0.00  0.00    +0.000 A 
ATOM      8  C   UNL     1      -6.543   3.542 123.624  0.00  0.00    +0.000 A 
BRANCH   3   9
ATOM      9  C   UNL     1      -8.791   2.798 122.813  0.00  0.00    +0.000 C 
ATOM     10  O   UNL     1      -8.903   3.370 121.737  0.00  0.00    +0.000 OA
BRANCH   9  11
ATOM     11  O   UNL     1      -9.530   1.721 123.155  0.00  0.00    +0.000 OA
ATOM     12  H   UNL     1      -9.198   1.248 123.945  0.00  0.00    +0.000 HD
ENDBRANCH   9  11
ENDBRANCH   3   9
BRANCH   8  13
ATOM     13  O   UNL     1      -6.036   3.265 122.385  0.00  0.00    +0.000 OA
ATOM     14  H   UNL     1      -5.327   3.894 122.159  0.00  0.00    +0.000 HD
ENDBRANCH   8  13
ENDBRANCH   1   5
BRANCH   2  15
ATOM     15  C   UNL     1      -9.240   5.561 129.013  0.00  0.00    +0.000 A 
ATOM     16  C   UNL     1      -8.620   5.089 130.176  0.00  0.00    +0.000 A 
ATOM     17  C   UNL     1      -9.137   5.384 131.448  0.00  0.00    +0.000 A 
ATOM     18  C   UNL     1     -10.285   6.169 131.578  0.00  0.00    +0.000 A 
ATOM     19  C   UNL     1     -10.948   6.668 130.442  0.00  0.00    +0.000 A 
ATOM     20  C   UNL     1     -10.398   6.360 129.170  0.00  0.00    +0.000 A 
BRANCH  18  21
ATOM     21  O   UNL     1     -10.749   6.453 132.833  0.00  0.00    +0.000 OA
ATOM     22  H   UNL     1     -11.704   6.616 132.851  0.00  0.00    +0.000 HD
ENDBRANCH  18  21
BRANCH  19  23
ATOM     23  C   UNL     1     -12.201   7.496 130.628  0.00  0.00    +0.000 C 
ATOM     24  O   UNL     1     -12.447   8.527 130.018  0.00  0.00    +0.000 OA
BRANCH  23  25
ATOM     25  O   UNL     1     -13.092   7.051 131.541  0.00  0.00    +0.000 OA
ATOM     26  H   UNL     1     -13.624   6.269 131.342  0.00  0.00    +0.000 HD
ENDBRANCH  23  25
ENDBRANCH  19  23
ENDBRANCH   2  15
TORSDOF 8
ENDMDL
