MODEL 1
REMARK VINA RESULT:      -7.8      0.000      0.000
REMARK  Name = Olutasidenib
REMARK  6 active torsions:
REMARK  status: ('A' for Active; 'I' for Inactive)
REMARK    1  A    between atoms: C_1  and  C_2
REMARK    2  A    between atoms: C_2  and  N_3
REMARK    3  A    between atoms: C_2  and  C_14
REMARK    4  A    between atoms: N_3  and  C_4
REMARK    5  A    between atoms: C_7  and  C_8
REMARK    6  A    between atoms: N_10  and  C_11
REMARK                            x       y       z     vdW  Elec       q    Type
REMARK                         _______ _______ _______ _____ _____    ______ ____
ROOT
ATOM      1  C   UNL     1      -5.355  -3.072 123.625  0.00  0.00    +0.000 C 
ATOM      2  C   UNL     1      -6.900  -3.032 123.691  0.00  0.00    +0.000 C 
ENDROOT
BRANCH   2   3
ATOM      3  C   UNL     1      -7.314  -2.925 125.138  0.00  0.00    +0.000 A 
ATOM      4  C   UNL     1      -6.441  -2.569 126.100  0.00  0.00    +0.000 A 
ATOM      5  C   UNL     1      -6.899  -2.319 127.456  0.00  0.00    +0.000 A 
ATOM      6  C   UNL     1      -8.004  -3.044 127.888  0.00  0.00    +0.000 A 
ATOM      7  N   UNL     1      -8.795  -3.671 126.910  0.00  0.00    +0.000 N 
ATOM      8  C   UNL     1      -8.701  -3.248 125.592  0.00  0.00    +0.000 A 
ATOM      9  O   UNL     1      -9.665  -3.200 124.854  0.00  0.00    +0.000 OA
ATOM     10  C   UNL     1      -8.410  -2.991 129.215  0.00  0.00    +0.000 A 
ATOM     11  C   UNL     1      -7.697  -2.185 130.106  0.00  0.00    +0.000 A 
ATOM     12  C   UNL     1      -6.706  -1.325 129.624  0.00  0.00    +0.000 A 
ATOM     13 CL   UNL     1      -6.046  -0.118 130.656  0.00  0.00    +0.000 Cl
ATOM     14  C   UNL     1      -6.295  -1.393 128.296  0.00  0.00    +0.000 A 
ATOM     15  H   UNL     1      -8.893  -4.675 127.016  0.00  0.00    +0.000 HD
ENDBRANCH   2   3
BRANCH   2  16
ATOM     16  N   UNL     1      -7.343  -1.941 122.837  0.00  0.00    +0.000 N 
ATOM     17  H   UNL     1      -7.176  -2.020 121.821  0.00  0.00    +0.000 HD
BRANCH  16  18
ATOM     18  C   UNL     1      -7.595  -0.645 123.263  0.00  0.00    +0.000 A 
ATOM     19  C   UNL     1      -6.666   0.197 123.743  0.00  0.00    +0.000 A 
ATOM     20  C   UNL     1      -6.929   1.538 124.114  0.00  0.00    +0.000 A 
ATOM     21  C   UNL     1      -8.195   1.902 124.272  0.00  0.00    +0.000 A 
ATOM     22  N   UNL     1      -9.254   1.086 123.904  0.00  0.00    +0.000 N 
ATOM     23  C   UNL     1     -10.636   1.516 124.082  0.00  0.00    +0.000 C 
ATOM     24  C   UNL     1      -9.041  -0.139 123.258  0.00  0.00    +0.000 A 
ATOM     25  O   UNL     1      -9.939  -0.807 122.762  0.00  0.00    +0.000 OA
BRANCH  21  26
ATOM     26  C   UNL     1      -8.471   3.264 124.887  0.00  0.00    +0.000 C 
ATOM     27  N   UNL     1      -8.700   4.394 125.398  0.00  0.00    +0.000 NA
ENDBRANCH  21  26
ENDBRANCH  16  18
ENDBRANCH   2  16
TORSDOF 4
ENDMDL
MODEL 2
REMARK VINA RESULT:      -7.7      8.087     10.129
REMARK  Name = Olutasidenib
REMARK  6 active torsions:
REMARK  status: ('A' for Active; 'I' for Inactive)
REMARK    1  A    between atoms: C_1  and  C_2
REMARK    2  A    between atoms: C_2  and  N_3
REMARK    3  A    between atoms: C_2  and  C_14
REMARK    4  A    between atoms: N_3  and  C_4
REMARK    5  A    between atoms: C_7  and  C_8
REMARK    6  A    between atoms: N_10  and  C_11
REMARK                            x       y       z     vdW  Elec       q    Type
REMARK                         _______ _______ _______ _____ _____    ______ ____
ROOT
ATOM      1  C   UNL     1      -6.596   5.152 134.337  0.00  0.00    +0.000 C 
ATOM      2  C   UNL     1      -6.736   4.880 132.821  0.00  0.00    +0.000 C 
ENDROOT
BRANCH   2   3
ATOM      3  C   UNL     1      -8.112   5.320 132.381  0.00  0.00    +0.000 A 
ATOM      4  C   UNL     1      -8.295   6.417 131.621  0.00  0.00    +0.000 A 
ATOM      5  C   UNL     1      -9.606   6.728 131.080  0.00  0.00    +0.000 A 
ATOM      6  C   UNL     1     -10.705   6.330 131.833  0.00  0.00    +0.000 A 
ATOM      7  N   UNL     1     -10.494   5.372 132.838  0.00  0.00    +0.000 N 
ATOM      8  C   UNL     1      -9.348   4.591 132.797  0.00  0.00    +0.000 A 
ATOM      9  O   UNL     1      -9.345   3.421 133.128  0.00  0.00    +0.000 OA
ATOM     10  C   UNL     1     -11.988   6.727 131.476  0.00  0.00    +0.000 A 
ATOM     11  C   UNL     1     -12.156   7.522 130.340  0.00  0.00    +0.000 A 
ATOM     12  C   UNL     1     -11.069   7.763 129.494  0.00  0.00    +0.000 A 
ATOM     13 CL   UNL     1     -11.330   8.471 127.949  0.00  0.00    +0.000 Cl
ATOM     14  C   UNL     1      -9.785   7.374 129.863  0.00  0.00    +0.000 A 
ATOM     15  H   UNL     1     -10.763   5.663 133.772  0.00  0.00    +0.000 HD
ENDBRANCH   2   3
BRANCH   2  16
ATOM     16  N   UNL     1      -5.629   5.548 132.155  0.00  0.00    +0.000 N 
ATOM     17  H   UNL     1      -5.521   6.566 132.295  0.00  0.00    +0.000 HD
BRANCH  16  18
ATOM     18  C   UNL     1      -4.951   5.062 131.047  0.00  0.00    +0.000 A 
ATOM     19  C   UNL     1      -4.502   3.803 130.917  0.00  0.00    +0.000 A 
ATOM     20  C   UNL     1      -3.868   3.305 129.753  0.00  0.00    +0.000 A 
ATOM     21  C   UNL     1      -3.433   4.183 128.859  0.00  0.00    +0.000 A 
ATOM     22  N   UNL     1      -3.746   5.533 128.929  0.00  0.00    +0.000 N 
ATOM     23  C   UNL     1      -3.261   6.474 127.927  0.00  0.00    +0.000 C 
ATOM     24  C   UNL     1      -4.619   6.029 129.907  0.00  0.00    +0.000 A 
ATOM     25  O   UNL     1      -5.060   7.171 129.903  0.00  0.00    +0.000 OA
BRANCH  21  26
ATOM     26  C   UNL     1      -2.556   3.671 127.729  0.00  0.00    +0.000 C 
ATOM     27  N   UNL     1      -1.827   3.247 126.791  0.00  0.00    +0.000 NA
ENDBRANCH  21  26
ENDBRANCH  16  18
ENDBRANCH   2  16
TORSDOF 4
ENDMDL
MODEL 3
REMARK VINA RESULT:      -7.6      9.122     10.523
REMARK  Name = Olutasidenib
REMARK  6 active torsions:
REMARK  status: ('A' for Active; 'I' for Inactive)
REMARK    1  A    between atoms: C_1  and  C_2
REMARK    2  A    between atoms: C_2  and  N_3
REMARK    3  A    between atoms: C_2  and  C_14
REMARK    4  A    between atoms: N_3  and  C_4
REMARK    5  A    between atoms: C_7  and  C_8
REMARK    6  A    between atoms: N_10  and  C_11
REMARK                            x       y       z     vdW  Elec       q    Type
REMARK                         _______ _______ _______ _____ _____    ______ ____
ROOT
ATOM      1  C   UNL     1      -9.447   3.462 133.425  0.00  0.00    +0.000 C 
ATOM      2  C   UNL     1      -9.469   4.926 132.924  0.00  0.00    +0.000 C 
ENDROOT
BRANCH   2   3
ATOM      3  C   UNL     1      -8.054   5.452 132.923  0.00  0.00    +0.000 A 
ATOM      4  C   UNL     1      -7.387   5.687 131.776  0.00  0.00    +0.000 A 
ATOM      5  C   UNL     1      -6.091   6.342 131.799  0.00  0.00    +0.000 A 
ATOM      6  C   UNL     1      -5.298   6.124 132.921  0.00  0.00    +0.000 A 
ATOM      7  N   UNL     1      -5.921   5.609 134.069  0.00  0.00    +0.000 N 
ATOM      8  C   UNL     1      -7.300   5.703 134.189  0.00  0.00    +0.000 A 
ATOM      9  O   UNL     1      -7.849   5.915 135.253  0.00  0.00    +0.000 OA
ATOM     10  C   UNL     1      -3.984   6.574 132.956  0.00  0.00    +0.000 A 
ATOM     11  C   UNL     1      -3.478   7.263 131.851  0.00  0.00    +0.000 A 
ATOM     12  C   UNL     1      -4.335   7.632 130.810  0.00  0.00    +0.000 A 
ATOM     13 CL   UNL     1      -3.793   8.736 129.608  0.00  0.00    +0.000 Cl
ATOM     14  C   UNL     1      -5.645   7.167 130.774  0.00  0.00    +0.000 A 
ATOM     15  H   UNL     1      -5.535   4.737 134.413  0.00  0.00    +0.000 HD
ENDBRANCH   2   3
BRANCH   2  16
ATOM     16  N   UNL     1     -10.133   4.932 131.630  0.00  0.00    +0.000 N 
ATOM     17  H   UNL     1      -9.854   4.220 130.936  0.00  0.00    +0.000 HD
BRANCH  16  18
ATOM     18  C   UNL     1     -10.801   6.017 131.079  0.00  0.00    +0.000 A 
ATOM     19  C   UNL     1     -11.898   6.586 131.604  0.00  0.00    +0.000 A 
ATOM     20  C   UNL     1     -12.530   7.732 131.063  0.00  0.00    +0.000 A 
ATOM     21  C   UNL     1     -12.208   8.095 129.829  0.00  0.00    +0.000 A 
ATOM     22  N   UNL     1     -11.154   7.519 129.136  0.00  0.00    +0.000 N 
ATOM     23  C   UNL     1     -10.818   7.943 127.782  0.00  0.00    +0.000 C 
ATOM     24  C   UNL     1     -10.310   6.579 129.742  0.00  0.00    +0.000 A 
ATOM     25  O   UNL     1      -9.271   6.176 129.234  0.00  0.00    +0.000 OA
BRANCH  21  26
ATOM     26  C   UNL     1     -13.043   9.177 129.166  0.00  0.00    +0.000 C 
ATOM     27  N   UNL     1     -13.737  10.076 128.615  0.00  0.00    +0.000 NA
ENDBRANCH  21  26
ENDBRANCH  16  18
ENDBRANCH   2  16
TORSDOF 4
ENDMDL
MODEL 4
REMARK VINA RESULT:      -7.5      6.821      9.395
REMARK  Name = Olutasidenib
REMARK  6 active torsions:
REMARK  status: ('A' for Active; 'I' for Inactive)
REMARK    1  A    between atoms: C_1  and  C_2
REMARK    2  A    between atoms: C_2  and  N_3
REMARK    3  A    between atoms: C_2  and  C_14
REMARK    4  A    between atoms: N_3  and  C_4
REMARK    5  A    between atoms: C_7  and  C_8
REMARK    6  A    between atoms: N_10  and  C_11
REMARK                            x       y       z     vdW  Elec       q    Type
REMARK                         _______ _______ _______ _____ _____    ______ ____
ROOT
ATOM      1  C   UNL     1      -6.259   6.913 131.179  0.00  0.00    +0.000 C 
ATOM      2  C   UNL     1      -7.040   5.769 131.868  0.00  0.00    +0.000 C 
ENDROOT
BRANCH   2   3
ATOM      3  C   UNL     1      -8.517   6.008 131.668  0.00  0.00    +0.000 A 
ATOM      4  C   UNL     1      -8.978   6.792 130.675  0.00  0.00    +0.000 A 
ATOM      5  C   UNL     1     -10.403   6.879 130.406  0.00  0.00    +0.000 A 
ATOM      6  C   UNL     1     -11.257   6.723 131.492  0.00  0.00    +0.000 A 
ATOM      7  N   UNL     1     -10.726   6.150 132.660  0.00  0.00    +0.000 N 
ATOM      8  C   UNL     1      -9.545   5.426 132.582  0.00  0.00    +0.000 A 
ATOM      9  O   UNL     1      -9.348   4.429 133.249  0.00  0.00    +0.000 OA
ATOM     10  C   UNL     1     -12.620   6.951 131.359  0.00  0.00    +0.000 A 
ATOM     11  C   UNL     1     -13.121   7.327 130.110  0.00  0.00    +0.000 A 
ATOM     12  C   UNL     1     -12.285   7.304 128.990  0.00  0.00    +0.000 A 
ATOM     13 CL   UNL     1     -12.960   7.462 127.417  0.00  0.00    +0.000 Cl
ATOM     14  C   UNL     1     -10.918   7.088 129.133  0.00  0.00    +0.000 A 
ATOM     15  H   UNL     1     -10.805   6.724 133.493  0.00  0.00    +0.000 HD
ENDBRANCH   2   3
BRANCH   2  16
ATOM     16  N   UNL     1      -6.537   4.515 131.331  0.00  0.00    +0.000 N 
ATOM     17  H   UNL     1      -5.543   4.282 131.487  0.00  0.00    +0.000 HD
BRANCH  16  18
ATOM     18  C   UNL     1      -7.124   3.794 130.300  0.00  0.00    +0.000 A 
ATOM     19  C   UNL     1      -8.021   2.809 130.470  0.00  0.00    +0.000 A 
ATOM     20  C   UNL     1      -8.657   2.126 129.406  0.00  0.00    +0.000 A 
ATOM     21  C   UNL     1      -8.143   2.254 128.190  0.00  0.00    +0.000 A 
ATOM     22  N   UNL     1      -7.142   3.169 127.899  0.00  0.00    +0.000 N 
ATOM     23  C   UNL     1      -6.601   3.293 126.551  0.00  0.00    +0.000 C 
ATOM     24  C   UNL     1      -6.681   4.076 128.862  0.00  0.00    +0.000 A 
ATOM     25  O   UNL     1      -5.931   5.011 128.607  0.00  0.00    +0.000 OA
BRANCH  21  26
ATOM     26  C   UNL     1      -8.679   1.349 127.093  0.00  0.00    +0.000 C 
ATOM     27  N   UNL     1      -9.124   0.599 126.182  0.00  0.00    +0.000 NA
ENDBRANCH  21  26
ENDBRANCH  16  18
ENDBRANCH   2  16
TORSDOF 4
ENDMDL
MODEL 5
REMARK VINA RESULT:      -7.3      6.285      8.707
REMARK  Name = Olutasidenib
REMARK  6 active torsions:
REMARK  status: ('A' for Active; 'I' for Inactive)
REMARK    1  A    between atoms: C_1  and  C_2
REMARK    2  A    between atoms: C_2  and  N_3
REMARK    3  A    between atoms: C_2  and  C_14
REMARK    4  A    between atoms: N_3  and  C_4
REMARK    5  A    between atoms: C_7  and  C_8
REMARK    6  A    between atoms: N_10  and  C_11
REMARK                            x       y       z     vdW  Elec       q    Type
REMARK                         _______ _______ _______ _____ _____    ______ ____
ROOT
ATOM      1  C   UNL     1      -6.076   5.984 130.943  0.00  0.00    +0.000 C 
ATOM      2  C   UNL     1      -7.058   4.870 130.511  0.00  0.00    +0.000 C 
ENDROOT
BRANCH   2   3
ATOM      3  C   UNL     1      -8.468   5.364 130.729  0.00  0.00    +0.000 A 
ATOM      4  C   UNL     1      -8.870   6.573 130.291  0.00  0.00    +0.000 A 
ATOM      5  C   UNL     1     -10.267   6.959 130.372  0.00  0.00    +0.000 A 
ATOM      6  C   UNL     1     -11.005   6.426 131.423  0.00  0.00    +0.000 A 
ATOM      7  N   UNL     1     -10.473   5.313 132.094  0.00  0.00    +0.000 N 
ATOM      8  C   UNL     1      -9.482   4.562 131.477  0.00  0.00    +0.000 A 
ATOM      9  O   UNL     1      -9.418   3.353 131.587  0.00  0.00    +0.000 OA
ATOM     10  C   UNL     1     -12.299   6.865 131.672  0.00  0.00    +0.000 A 
ATOM     11  C   UNL     1     -12.852   7.841 130.840  0.00  0.00    +0.000 A 
ATOM     12  C   UNL     1     -12.172   8.234 129.684  0.00  0.00    +0.000 A 
ATOM     13 CL   UNL     1     -12.976   9.193 128.504  0.00  0.00    +0.000 Cl
ATOM     14  C   UNL     1     -10.872   7.801 129.447  0.00  0.00    +0.000 A 
ATOM     15  H   UNL     1     -10.337   5.436 133.091  0.00  0.00    +0.000 HD
ENDBRANCH   2   3
BRANCH   2  16
ATOM     16  N   UNL     1      -6.732   4.512 129.140  0.00  0.00    +0.000 N 
ATOM     17  H   UNL     1      -6.210   5.196 128.569  0.00  0.00    +0.000 HD
BRANCH  16  18
ATOM     18  C   UNL     1      -7.382   3.541 128.391  0.00  0.00    +0.000 A 
ATOM     19  C   UNL     1      -7.678   2.307 128.830  0.00  0.00    +0.000 A 
ATOM     20  C   UNL     1      -8.398   1.350 128.075  0.00  0.00    +0.000 A 
ATOM     21  C   UNL     1      -8.540   1.564 126.774  0.00  0.00    +0.000 A 
ATOM     22  N   UNL     1      -8.184   2.763 126.175  0.00  0.00    +0.000 N 
ATOM     23  C   UNL     1      -8.358   2.973 124.743  0.00  0.00    +0.000 C 
ATOM     24  C   UNL     1      -7.736   3.852 126.934  0.00  0.00    +0.000 A 
ATOM     25  O   UNL     1      -7.578   4.977 126.475  0.00  0.00    +0.000 OA
BRANCH  21  26
ATOM     26  C   UNL     1      -9.107   0.438 125.926  0.00  0.00    +0.000 C 
ATOM     27  N   UNL     1      -9.578  -0.497 125.222  0.00  0.00    +0.000 NA
ENDBRANCH  21  26
ENDBRANCH  16  18
ENDBRANCH   2  16
TORSDOF 4
ENDMDL
MODEL 6
REMARK VINA RESULT:      -7.3      1.799      2.338
REMARK  Name = Olutasidenib
REMARK  6 active torsions:
REMARK  status: ('A' for Active; 'I' for Inactive)
REMARK    1  A    between atoms: C_1  and  C_2
REMARK    2  A    between atoms: C_2  and  N_3
REMARK    3  A    between atoms: C_2  and  C_14
REMARK    4  A    between atoms: N_3  and  C_4
REMARK    5  A    between atoms: C_7  and  C_8
REMARK    6  A    between atoms: N_10  and  C_11
REMARK                            x       y       z     vdW  Elec       q    Type
REMARK                         _______ _______ _______ _____ _____    ______ ____
ROOT
ATOM      1  C   UNL     1      -5.944  -2.488 123.091  0.00  0.00    +0.000 C 
ATOM      2  C   UNL     1      -7.033  -1.517 123.605  0.00  0.00    +0.000 C 
ENDROOT
BRANCH   2   3
ATOM      3  C   UNL     1      -7.402  -1.913 125.014  0.00  0.00    +0.000 A 
ATOM      4  C   UNL     1      -6.470  -2.295 125.909  0.00  0.00    +0.000 A 
ATOM      5  C   UNL     1      -6.830  -2.517 127.298  0.00  0.00    +0.000 A 
ATOM      6  C   UNL     1      -8.121  -2.970 127.547  0.00  0.00    +0.000 A 
ATOM      7  N   UNL     1      -9.067  -2.837 126.518  0.00  0.00    +0.000 N 
ATOM      8  C   UNL     1      -8.820  -1.946 125.483  0.00  0.00    +0.000 A 
ATOM      9  O   UNL     1      -9.702  -1.288 124.966  0.00  0.00    +0.000 OA
ATOM     10  C   UNL     1      -8.498  -3.363 128.825  0.00  0.00    +0.000 A 
ATOM     11  C   UNL     1      -7.562  -3.282 129.859  0.00  0.00    +0.000 A 
ATOM     12  C   UNL     1      -6.332  -2.658 129.635  0.00  0.00    +0.000 A 
ATOM     13 CL   UNL     1      -5.310  -2.281 130.966  0.00  0.00    +0.000 Cl
ATOM     14  C   UNL     1      -5.955  -2.278 128.351  0.00  0.00    +0.000 A 
ATOM     15  H   UNL     1      -9.504  -3.703 126.222  0.00  0.00    +0.000 HD
ENDBRANCH   2   3
BRANCH   2  16
ATOM     16  N   UNL     1      -6.516  -0.166 123.456  0.00  0.00    +0.000 N 
ATOM     17  H   UNL     1      -5.533  -0.051 123.160  0.00  0.00    +0.000 HD
BRANCH  16  18
ATOM     18  C   UNL     1      -7.057   0.967 124.048  0.00  0.00    +0.000 A 
ATOM     19  C   UNL     1      -8.134   1.626 123.595  0.00  0.00    +0.000 A 
ATOM     20  C   UNL     1      -8.711   2.744 124.246  0.00  0.00    +0.000 A 
ATOM     21  C   UNL     1      -7.997   3.351 125.185  0.00  0.00    +0.000 A 
ATOM     22  N   UNL     1      -6.813   2.823 125.677  0.00  0.00    +0.000 N 
ATOM     23  C   UNL     1      -6.054   3.510 126.715  0.00  0.00    +0.000 C 
ATOM     24  C   UNL     1      -6.350   1.566 125.268  0.00  0.00    +0.000 A 
ATOM     25  O   UNL     1      -5.410   0.986 125.798  0.00  0.00    +0.000 OA
BRANCH  21  26
ATOM     26  C   UNL     1      -8.512   4.676 125.722  0.00  0.00    +0.000 C 
ATOM     27  N   UNL     1      -8.938   5.776 126.168  0.00  0.00    +0.000 NA
ENDBRANCH  21  26
ENDBRANCH  16  18
ENDBRANCH   2  16
TORSDOF 4
ENDMDL
MODEL 7
REMARK VINA RESULT:      -7.2      6.855      9.280
REMARK  Name = Olutasidenib
REMARK  6 active torsions:
REMARK  status: ('A' for Active; 'I' for Inactive)
REMARK    1  A    between atoms: C_1  and  C_2
REMARK    2  A    between atoms: C_2  and  N_3
REMARK    3  A    between atoms: C_2  and  C_14
REMARK    4  A    between atoms: N_3  and  C_4
REMARK    5  A    between atoms: C_7  and  C_8
REMARK    6  A    between atoms: N_10  and  C_11
REMARK                            x       y       z     vdW  Elec       q    Type
REMARK                         _______ _______ _______ _____ _____    ______ ____
ROOT
ATOM      1  C   UNL     1      -5.882   6.507 131.169  0.00  0.00    +0.000 C 
ATOM      2  C   UNL     1      -6.704   5.274 131.613  0.00  0.00    +0.000 C 
ENDROOT
BRANCH   2   3
ATOM      3  C   UNL     1      -8.170   5.625 131.540  0.00  0.00    +0.000 A 
ATOM      4  C   UNL     1      -8.600   6.746 130.930  0.00  0.00    +0.000 A 
ATOM      5  C   UNL     1     -10.020   6.981 130.735  0.00  0.00    +0.000 A 
ATOM      6  C   UNL     1     -10.881   6.450 131.689  0.00  0.00    +0.000 A 
ATOM      7  N   UNL     1     -10.375   5.454 132.541  0.00  0.00    +0.000 N 
ATOM      8  C   UNL     1      -9.222   4.774 132.175  0.00  0.00    +0.000 A 
ATOM      9  O   UNL     1      -9.064   3.591 132.406  0.00  0.00    +0.000 OA
ATOM     10  C   UNL     1     -12.234   6.761 131.672  0.00  0.00    +0.000 A 
ATOM     11  C   UNL     1     -12.719   7.605 130.670  0.00  0.00    +0.000 A 
ATOM     12  C   UNL     1     -11.883   7.984 129.616  0.00  0.00    +0.000 A 
ATOM     13 CL   UNL     1     -12.549   8.758 128.233  0.00  0.00    +0.000 Cl
ATOM     14  C   UNL     1     -10.526   7.680 129.646  0.00  0.00    +0.000 A 
ATOM     15  H   UNL     1     -10.432   5.666 133.531  0.00  0.00    +0.000 HD
ENDBRANCH   2   3
BRANCH   2  16
ATOM     16  N   UNL     1      -6.293   4.155 130.781  0.00  0.00    +0.000 N 
ATOM     17  H   UNL     1      -5.679   3.437 131.200  0.00  0.00    +0.000 HD
BRANCH  16  18
ATOM     18  C   UNL     1      -6.296   4.146 129.394  0.00  0.00    +0.000 A 
ATOM     19  C   UNL     1      -7.394   4.027 128.632  0.00  0.00    +0.000 A 
ATOM     20  C   UNL     1      -7.387   4.083 127.217  0.00  0.00    +0.000 A 
ATOM     21  C   UNL     1      -6.221   3.959 126.597  0.00  0.00    +0.000 A 
ATOM     22  N   UNL     1      -5.013   3.972 127.277  0.00  0.00    +0.000 N 
ATOM     23  C   UNL     1      -3.746   3.841 126.567  0.00  0.00    +0.000 C 
ATOM     24  C   UNL     1      -4.955   4.208 128.656  0.00  0.00    +0.000 A 
ATOM     25  O   UNL     1      -3.910   4.401 129.266  0.00  0.00    +0.000 OA
BRANCH  21  26
ATOM     26  C   UNL     1      -6.235   3.791 125.087  0.00  0.00    +0.000 C 
ATOM     27  N   UNL     1      -6.246   3.651 123.833  0.00  0.00    +0.000 NA
ENDBRANCH  21  26
ENDBRANCH  16  18
ENDBRANCH   2  16
TORSDOF 4
ENDMDL
MODEL 8
REMARK VINA RESULT:      -7.0      9.637     12.359
REMARK  Name = Olutasidenib
REMARK  6 active torsions:
REMARK  status: ('A' for Active; 'I' for Inactive)
REMARK    1  A    between atoms: C_1  and  C_2
REMARK    2  A    between atoms: C_2  and  N_3
REMARK    3  A    between atoms: C_2  and  C_14
REMARK    4  A    between atoms: N_3  and  C_4
REMARK    5  A    between atoms: C_7  and  C_8
REMARK    6  A    between atoms: N_10  and  C_11
REMARK                            x       y       z     vdW  Elec       q    Type
REMARK                         _______ _______ _______ _____ _____    ______ ____
ROOT
ATOM      1  C   UNL     1      -6.209   4.380 131.341  0.00  0.00    +0.000 C 
ATOM      2  C   UNL     1      -6.757   5.385 132.381  0.00  0.00    +0.000 C 
ENDROOT
BRANCH   2   3
ATOM      3  C   UNL     1      -8.193   5.696 132.036  0.00  0.00    +0.000 A 
ATOM      4  C   UNL     1      -8.522   6.724 131.231  0.00  0.00    +0.000 A 
ATOM      5  C   UNL     1      -9.893   6.905 130.788  0.00  0.00    +0.000 A 
ATOM      6  C   UNL     1     -10.893   6.479 131.655  0.00  0.00    +0.000 A 
ATOM      7  N   UNL     1     -10.527   5.606 132.693  0.00  0.00    +0.000 N 
ATOM      8  C   UNL     1      -9.332   4.909 132.600  0.00  0.00    +0.000 A 
ATOM      9  O   UNL     1      -9.211   3.767 132.999  0.00  0.00    +0.000 OA
ATOM     10  C   UNL     1     -12.227   6.758 131.387  0.00  0.00    +0.000 A 
ATOM     11  C   UNL     1     -12.548   7.463 130.224  0.00  0.00    +0.000 A 
ATOM     12  C   UNL     1     -11.556   7.725 129.275  0.00  0.00    +0.000 A 
ATOM     13 CL   UNL     1     -11.996   8.310 127.719  0.00  0.00    +0.000 Cl
ATOM     14  C   UNL     1     -10.220   7.454 129.555  0.00  0.00    +0.000 A 
ATOM     15  H   UNL     1     -10.740   5.938 133.628  0.00  0.00    +0.000 HD
ENDBRANCH   2   3
BRANCH   2  16
ATOM     16  N   UNL     1      -6.547   4.806 133.698  0.00  0.00    +0.000 N 
ATOM     17  H   UNL     1      -6.731   3.797 133.821  0.00  0.00    +0.000 HD
BRANCH  16  18
ATOM     18  C   UNL     1      -6.518   5.517 134.889  0.00  0.00    +0.000 A 
ATOM     19  C   UNL     1      -7.564   5.664 135.717  0.00  0.00    +0.000 A 
ATOM     20  C   UNL     1      -7.502   6.340 136.960  0.00  0.00    +0.000 A 
ATOM     21  C   UNL     1      -6.450   7.113 137.194  0.00  0.00    +0.000 A 
ATOM     22  N   UNL     1      -5.339   7.128 136.364  0.00  0.00    +0.000 N 
ATOM     23  C   UNL     1      -4.193   7.982 136.650  0.00  0.00    +0.000 C 
ATOM     24  C   UNL     1      -5.232   6.254 135.274  0.00  0.00    +0.000 A 
ATOM     25  O   UNL     1      -4.205   6.109 134.621  0.00  0.00    +0.000 OA
BRANCH  21  26
ATOM     26  C   UNL     1      -6.487   8.012 138.418  0.00  0.00    +0.000 C 
ATOM     27  N   UNL     1      -6.519   8.759 139.435  0.00  0.00    +0.000 NA
ENDBRANCH  21  26
ENDBRANCH  16  18
ENDBRANCH   2  16
TORSDOF 4
ENDMDL
MODEL 9
REMARK VINA RESULT:      -6.9      7.733      9.478
REMARK  Name = Olutasidenib
REMARK  6 active torsions:
REMARK  status: ('A' for Active; 'I' for Inactive)
REMARK    1  A    between atoms: C_1  and  C_2
REMARK    2  A    between atoms: C_2  and  N_3
REMARK    3  A    between atoms: C_2  and  C_14
REMARK    4  A    between atoms: N_3  and  C_4
REMARK    5  A    between atoms: C_7  and  C_8
REMARK    6  A    between atoms: N_10  and  C_11
REMARK                            x       y       z     vdW  Elec       q    Type
REMARK                         _______ _______ _______ _____ _____    ______ ____
ROOT
ATOM      1  C   UNL     1      -7.705   3.581 132.643  0.00  0.00    +0.000 C 
ATOM      2  C   UNL     1      -7.966   4.917 131.908  0.00  0.00    +0.000 C 
ENDROOT
BRANCH   2   3
ATOM      3  C   UNL     1      -6.703   5.320 131.185  0.00  0.00    +0.000 A 
ATOM      4  C   UNL     1      -5.761   4.418 130.849  0.00  0.00    +0.000 A 
ATOM      5  C   UNL     1      -4.635   4.803 130.018  0.00  0.00    +0.000 A 
ATOM      6  C   UNL     1      -4.194   6.117 130.129  0.00  0.00    +0.000 A 
ATOM      7  N   UNL     1      -5.057   7.045 130.735  0.00  0.00    +0.000 N 
ATOM      8  C   UNL     1      -6.407   6.743 130.840  0.00  0.00    +0.000 A 
ATOM      9  O   UNL     1      -7.274   7.587 130.715  0.00  0.00    +0.000 OA
ATOM     10  C   UNL     1      -3.027   6.527 129.496  0.00  0.00    +0.000 A 
ATOM     11  C   UNL     1      -2.312   5.600 128.734  0.00  0.00    +0.000 A 
ATOM     12  C   UNL     1      -2.858   4.339 128.483  0.00  0.00    +0.000 A 
ATOM     13 CL   UNL     1      -2.137   3.315 127.305  0.00  0.00    +0.000 Cl
ATOM     14  C   UNL     1      -4.020   3.929 129.130  0.00  0.00    +0.000 A 
ATOM     15  H   UNL     1      -4.675   7.520 131.546  0.00  0.00    +0.000 HD
ENDBRANCH   2   3
BRANCH   2  16
ATOM     16  N   UNL     1      -9.131   4.726 131.060  0.00  0.00    +0.000 N 
ATOM     17  H   UNL     1      -9.204   3.847 130.523  0.00  0.00    +0.000 HD
BRANCH  16  18
ATOM     18  C   UNL     1      -9.946   5.742 130.580  0.00  0.00    +0.000 A 
ATOM     19  C   UNL     1     -10.859   6.400 131.312  0.00  0.00    +0.000 A 
ATOM     20  C   UNL     1     -11.638   7.477 130.823  0.00  0.00    +0.000 A 
ATOM     21  C   UNL     1     -11.685   7.665 129.511  0.00  0.00    +0.000 A 
ATOM     22  N   UNL     1     -10.860   6.979 128.633  0.00  0.00    +0.000 N 
ATOM     23  C   UNL     1     -10.927   7.212 127.195  0.00  0.00    +0.000 C 
ATOM     24  C   UNL     1      -9.863   6.110 129.096  0.00  0.00    +0.000 A 
ATOM     25  O   UNL     1      -9.003   5.621 128.374  0.00  0.00    +0.000 OA
BRANCH  21  26
ATOM     26  C   UNL     1     -12.692   8.667 128.972  0.00  0.00    +0.000 C 
ATOM     27  N   UNL     1     -13.528   9.499 128.525  0.00  0.00    +0.000 NA
ENDBRANCH  21  26
ENDBRANCH  16  18
ENDBRANCH   2  16
TORSDOF 4
ENDMDL
