MODEL 1
REMARK VINA RESULT:      -7.8      0.000      0.000
REMARK  Name = Omacetaxine mepesuccinate
REMARK  17 active torsions:
REMARK  status: ('A' for Active; 'I' for Inactive)
REMARK    1  A    between atoms: C_2  and  O_3
REMARK    2  A    between atoms: O_3  and  C_4
REMARK    3  A    between atoms: C_4  and  C_6
REMARK    4  A    between atoms: C_6  and  O_7
REMARK    5  A    between atoms: C_6  and  C_8
REMARK    6  A    between atoms: C_6  and  C_15
REMARK    7  A    between atoms: C_8  and  C_9
REMARK    8  A    between atoms: C_9  and  C_10
REMARK    9  A    between atoms: C_10  and  C_11
REMARK   10  A    between atoms: C_11  and  C_12
REMARK   11  A    between atoms: C_11  and  C_13
REMARK   12  A    between atoms: C_11  and  O_14
REMARK   13  A    between atoms: C_15  and  C_16
REMARK   14  A    between atoms: C_16  and  O_18
REMARK   15  A    between atoms: O_18  and  C_19
REMARK   16  A    between atoms: C_20  and  O_21
REMARK   17  A    between atoms: O_21  and  C_22
REMARK                            x       y       z     vdW  Elec       q    Type
REMARK                         _______ _______ _______ _____ _____    ______ ____
ROOT
ATOM      1  C   UNL     1      -8.595   2.889 129.522  0.00  0.00    +0.000 C 
ATOM      2  C   UNL     1      -7.800   2.672 130.908  0.00  0.00    +0.000 C 
ATOM      3  C   UNL     1      -6.950   1.645 130.687  0.00  0.00    +0.000 C 
ATOM      4  C   UNL     1      -7.211   0.960 129.365  0.00  0.00    +0.000 C 
ATOM      5  C   UNL     1      -8.029  -0.252 129.834  0.00  0.00    +0.000 C 
ATOM      6  C   UNL     1      -7.239  -1.430 129.330  0.00  0.00    +0.000 C 
ATOM      7  C   UNL     1      -5.974  -0.897 128.704  0.00  0.00    +0.000 C 
ATOM      8  N   UNL     1      -5.850   0.479 129.107  0.00  0.00    +0.000 NA
ATOM      9  C   UNL     1      -5.643   1.303 127.997  0.00  0.00    +0.000 C 
ATOM     10  C   UNL     1      -4.723   1.543 126.896  0.00  0.00    +0.000 C 
ATOM     11  C   UNL     1      -5.661   2.677 126.295  0.00  0.00    +0.000 A 
ATOM     12  C   UNL     1      -5.187   3.717 125.388  0.00  0.00    +0.000 A 
ATOM     13  C   UNL     1      -5.697   3.907 124.055  0.00  0.00    +0.000 A 
ATOM     14  C   UNL     1      -6.696   3.049 123.713  0.00  0.00    +0.000 A 
ATOM     15  O   UNL     1      -7.052   3.134 122.382  0.00  0.00    +0.000 OA
ATOM     16  C   UNL     1      -6.022   4.004 121.849  0.00  0.00    +0.000 C 
ATOM     17  O   UNL     1      -5.399   4.737 122.976  0.00  0.00    +0.000 OA
ATOM     18  C   UNL     1      -7.186   2.100 124.747  0.00  0.00    +0.000 A 
ATOM     19  C   UNL     1      -7.036   2.390 126.288  0.00  0.00    +0.000 A 
ATOM     20  C   UNL     1      -7.943   2.024 127.984  0.00  0.00    +0.000 C 
ENDROOT
BRANCH   2  21
ATOM     21  O   UNL     1      -7.748   3.193 132.201  0.00  0.00    +0.000 OA
ATOM     22  C   UNL     1      -8.647   2.963 133.265  0.00  0.00    +0.000 C 
ENDBRANCH   2  21
BRANCH   1  23
ATOM     23  O   UNL     1      -9.039   4.211 129.425  0.00  0.00    +0.000 OA
BRANCH  23  24
ATOM     24  C   UNL     1     -10.231   4.317 130.079  0.00  0.00    +0.000 C 
ATOM     25  O   UNL     1     -11.001   3.411 130.270  0.00  0.00    +0.000 OA
BRANCH  24  26
ATOM     26  C   UNL     1     -10.395   5.734 130.624  0.00  0.00    +0.000 C 
BRANCH  26  27
ATOM     27  O   UNL     1     -11.725   5.812 131.158  0.00  0.00    +0.000 OA
ATOM     28  H   UNL     1     -11.908   6.740 131.392  0.00  0.00    +0.000 HD
ENDBRANCH  26  27
BRANCH  26  29
ATOM     29  C   UNL     1      -9.334   6.141 131.666  0.00  0.00    +0.000 C 
BRANCH  29  30
ATOM     30  C   UNL     1      -8.140   6.843 131.058  0.00  0.00    +0.000 C 
BRANCH  30  31
ATOM     31  C   UNL     1      -6.844   6.497 131.778  0.00  0.00    +0.000 C 
BRANCH  31  32
ATOM     32  C   UNL     1      -5.744   6.128 130.772  0.00  0.00    +0.000 C 
ATOM     33  C   UNL     1      -4.877   7.343 130.450  0.00  0.00    +0.000 C 
ATOM     34  C   UNL     1      -4.855   5.008 131.296  0.00  0.00    +0.000 C 
BRANCH  32  35
ATOM     35  O   UNL     1      -6.361   5.651 129.581  0.00  0.00    +0.000 OA
ATOM     36  H   UNL     1      -5.991   4.775 129.381  0.00  0.00    +0.000 HD
ENDBRANCH  32  35
ENDBRANCH  31  32
ENDBRANCH  30  31
ENDBRANCH  29  30
ENDBRANCH  26  29
BRANCH  26  37
ATOM     37  C   UNL     1     -10.287   6.608 129.379  0.00  0.00    +0.000 C 
BRANCH  37  38
ATOM     38  C   UNL     1     -11.614   7.238 129.061  0.00  0.00    +0.000 C 
ATOM     39  O   UNL     1     -11.988   8.341 129.437  0.00  0.00    +0.000 OA
BRANCH  38  40
ATOM     40  O   UNL     1     -12.360   6.434 128.258  0.00  0.00    +0.000 OA
ATOM     41  C   UNL     1     -12.754   7.106 127.058  0.00  0.00    +0.000 C 
ENDBRANCH  38  40
ENDBRANCH  37  38
ENDBRANCH  26  37
ENDBRANCH  24  26
ENDBRANCH  23  24
ENDBRANCH   1  23
TORSDOF 13
ENDMDL
MODEL 2
REMARK VINA RESULT:      -7.8      3.316      7.245
REMARK  Name = Omacetaxine mepesuccinate
REMARK  17 active torsions:
REMARK  status: ('A' for Active; 'I' for Inactive)
REMARK    1  A    between atoms: C_2  and  O_3
REMARK    2  A    between atoms: O_3  and  C_4
REMARK    3  A    between atoms: C_4  and  C_6
REMARK    4  A    between atoms: C_6  and  O_7
REMARK    5  A    between atoms: C_6  and  C_8
REMARK    6  A    between atoms: C_6  and  C_15
REMARK    7  A    between atoms: C_8  and  C_9
REMARK    8  A    between atoms: C_9  and  C_10
REMARK    9  A    between atoms: C_10  and  C_11
REMARK   10  A    between atoms: C_11  and  C_12
REMARK   11  A    between atoms: C_11  and  C_13
REMARK   12  A    between atoms: C_11  and  O_14
REMARK   13  A    between atoms: C_15  and  C_16
REMARK   14  A    between atoms: C_16  and  O_18
REMARK   15  A    between atoms: O_18  and  C_19
REMARK   16  A    between atoms: C_20  and  O_21
REMARK   17  A    between atoms: O_21  and  C_22
REMARK                            x       y       z     vdW  Elec       q    Type
REMARK                         _______ _______ _______ _____ _____    ______ ____
ROOT
ATOM      1  C   UNL     1      -6.812   0.342 126.617  0.00  0.00    +0.000 C 
ATOM      2  C   UNL     1      -8.170   0.655 125.805  0.00  0.00    +0.000 C 
ATOM      3  C   UNL     1      -8.681  -0.549 125.466  0.00  0.00    +0.000 C 
ATOM      4  C   UNL     1      -7.720  -1.680 125.754  0.00  0.00    +0.000 C 
ATOM      5  C   UNL     1      -7.130  -1.908 124.355  0.00  0.00    +0.000 C 
ATOM      6  C   UNL     1      -7.431  -3.356 124.073  0.00  0.00    +0.000 C 
ATOM      7  C   UNL     1      -8.256  -3.882 125.222  0.00  0.00    +0.000 C 
ATOM      8  N   UNL     1      -8.708  -2.742 125.975  0.00  0.00    +0.000 NA
ATOM      9  C   UNL     1      -8.413  -2.896 127.332  0.00  0.00    +0.000 C 
ATOM     10  C   UNL     1      -8.673  -3.755 128.478  0.00  0.00    +0.000 C 
ATOM     11  C   UNL     1      -7.683  -2.913 129.394  0.00  0.00    +0.000 A 
ATOM     12  C   UNL     1      -7.740  -2.913 130.852  0.00  0.00    +0.000 A 
ATOM     13  C   UNL     1      -6.652  -3.335 131.695  0.00  0.00    +0.000 A 
ATOM     14  C   UNL     1      -5.534  -3.707 131.015  0.00  0.00    +0.000 A 
ATOM     15  O   UNL     1      -4.568  -4.267 131.827  0.00  0.00    +0.000 OA
ATOM     16  C   UNL     1      -5.273  -4.404 133.086  0.00  0.00    +0.000 C 
ATOM     17  O   UNL     1      -6.451  -3.506 133.063  0.00  0.00    +0.000 OA
ATOM     18  C   UNL     1      -5.536  -3.565 129.536  0.00  0.00    +0.000 A 
ATOM     19  C   UNL     1      -6.470  -2.535 128.795  0.00  0.00    +0.000 A 
ATOM     20  C   UNL     1      -6.508  -1.426 127.181  0.00  0.00    +0.000 C 
ENDROOT
BRANCH   2  21
ATOM     21  O   UNL     1      -8.920   1.743 125.358  0.00  0.00    +0.000 OA
ATOM     22  C   UNL     1      -9.805   1.793 124.260  0.00  0.00    +0.000 C 
ENDBRANCH   2  21
BRANCH   1  23
ATOM     23  O   UNL     1      -6.520   1.396 127.487  0.00  0.00    +0.000 OA
BRANCH  23  24
ATOM     24  C   UNL     1      -5.594   2.204 126.895  0.00  0.00    +0.000 C 
ATOM     25  O   UNL     1      -4.679   1.824 126.210  0.00  0.00    +0.000 OA
BRANCH  24  26
ATOM     26  C   UNL     1      -5.953   3.667 127.143  0.00  0.00    +0.000 C 
BRANCH  26  27
ATOM     27  O   UNL     1      -7.286   3.848 126.641  0.00  0.00    +0.000 OA
ATOM     28  H   UNL     1      -7.227   4.198 125.734  0.00  0.00    +0.000 HD
ENDBRANCH  26  27
BRANCH  26  29
ATOM     29  C   UNL     1      -5.828   4.112 128.614  0.00  0.00    +0.000 C 
BRANCH  29  30
ATOM     30  C   UNL     1      -7.165   4.303 129.294  0.00  0.00    +0.000 C 
BRANCH  30  31
ATOM     31  C   UNL     1      -7.410   3.263 130.379  0.00  0.00    +0.000 C 
BRANCH  31  32
ATOM     32  C   UNL     1      -8.662   2.431 130.063  0.00  0.00    +0.000 C 
ATOM     33  C   UNL     1      -8.412   0.952 130.344  0.00  0.00    +0.000 C 
ATOM     34  C   UNL     1      -9.865   2.896 130.873  0.00  0.00    +0.000 C 
BRANCH  32  35
ATOM     35  O   UNL     1      -8.988   2.609 128.688  0.00  0.00    +0.000 OA
ATOM     36  H   UNL     1      -8.723   3.507 128.430  0.00  0.00    +0.000 HD
ENDBRANCH  32  35
ENDBRANCH  31  32
ENDBRANCH  30  31
ENDBRANCH  29  30
ENDBRANCH  26  29
BRANCH  26  37
ATOM     37  C   UNL     1      -4.965   4.429 126.267  0.00  0.00    +0.000 C 
BRANCH  37  38
ATOM     38  C   UNL     1      -5.650   4.962 125.040  0.00  0.00    +0.000 C 
ATOM     39  O   UNL     1      -6.370   5.951 124.999  0.00  0.00    +0.000 OA
BRANCH  38  40
ATOM     40  O   UNL     1      -5.344   4.219 123.944  0.00  0.00    +0.000 OA
ATOM     41  C   UNL     1      -6.508   3.613 123.376  0.00  0.00    +0.000 C 
ENDBRANCH  38  40
ENDBRANCH  37  38
ENDBRANCH  26  37
ENDBRANCH  24  26
ENDBRANCH  23  24
ENDBRANCH   1  23
TORSDOF 13
ENDMDL
MODEL 3
REMARK VINA RESULT:      -7.7      2.497      4.921
REMARK  Name = Omacetaxine mepesuccinate
REMARK  17 active torsions:
REMARK  status: ('A' for Active; 'I' for Inactive)
REMARK    1  A    between atoms: C_2  and  O_3
REMARK    2  A    between atoms: O_3  and  C_4
REMARK    3  A    between atoms: C_4  and  C_6
REMARK    4  A    between atoms: C_6  and  O_7
REMARK    5  A    between atoms: C_6  and  C_8
REMARK    6  A    between atoms: C_6  and  C_15
REMARK    7  A    between atoms: C_8  and  C_9
REMARK    8  A    between atoms: C_9  and  C_10
REMARK    9  A    between atoms: C_10  and  C_11
REMARK   10  A    between atoms: C_11  and  C_12
REMARK   11  A    between atoms: C_11  and  C_13
REMARK   12  A    between atoms: C_11  and  O_14
REMARK   13  A    between atoms: C_15  and  C_16
REMARK   14  A    between atoms: C_16  and  O_18
REMARK   15  A    between atoms: O_18  and  C_19
REMARK   16  A    between atoms: C_20  and  O_21
REMARK   17  A    between atoms: O_21  and  C_22
REMARK                            x       y       z     vdW  Elec       q    Type
REMARK                         _______ _______ _______ _____ _____    ______ ____
ROOT
ATOM      1  C   UNL     1      -6.302   3.823 129.233  0.00  0.00    +0.000 C 
ATOM      2  C   UNL     1      -5.536   5.233 129.391  0.00  0.00    +0.000 C 
ATOM      3  C   UNL     1      -4.583   5.244 128.434  0.00  0.00    +0.000 C 
ATOM      4  C   UNL     1      -4.439   3.901 127.754  0.00  0.00    +0.000 C 
ATOM      5  C   UNL     1      -3.218   3.341 128.498  0.00  0.00    +0.000 C 
ATOM      6  C   UNL     1      -2.230   3.060 127.397  0.00  0.00    +0.000 C 
ATOM      7  C   UNL     1      -2.835   3.549 126.104  0.00  0.00    +0.000 C 
ATOM      8  N   UNL     1      -3.962   4.376 126.452  0.00  0.00    +0.000 NA
ATOM      9  C   UNL     1      -5.104   3.974 125.754  0.00  0.00    +0.000 C 
ATOM     10  C   UNL     1      -5.637   3.814 124.410  0.00  0.00    +0.000 C 
ATOM     11  C   UNL     1      -6.989   3.192 124.968  0.00  0.00    +0.000 A 
ATOM     12  C   UNL     1      -8.237   3.169 124.211  0.00  0.00    +0.000 A 
ATOM     13  C   UNL     1      -8.933   1.961 123.854  0.00  0.00    +0.000 A 
ATOM     14  C   UNL     1      -8.346   0.824 124.314  0.00  0.00    +0.000 A 
ATOM     15  O   UNL     1      -8.930  -0.326 123.820  0.00  0.00    +0.000 OA
ATOM     16  C   UNL     1      -9.836   0.202 122.820  0.00  0.00    +0.000 C 
ATOM     17  O   UNL     1     -10.062   1.639 123.104  0.00  0.00    +0.000 OA
ATOM     18  C   UNL     1      -7.139   0.957 125.171  0.00  0.00    +0.000 A 
ATOM     19  C   UNL     1      -6.848   2.260 126.009  0.00  0.00    +0.000 A 
ATOM     20  C   UNL     1      -5.985   2.816 127.676  0.00  0.00    +0.000 C 
ENDROOT
BRANCH   2  21
ATOM     21  O   UNL     1      -5.556   6.374 130.194  0.00  0.00    +0.000 OA
ATOM     22  C   UNL     1      -4.482   7.239 130.497  0.00  0.00    +0.000 C 
ENDBRANCH   2  21
BRANCH   1  23
ATOM     23  O   UNL     1      -7.605   3.927 129.725  0.00  0.00    +0.000 OA
BRANCH  23  24
ATOM     24  C   UNL     1      -8.301   4.792 128.932  0.00  0.00    +0.000 C 
ATOM     25  O   UNL     1      -8.304   4.779 127.728  0.00  0.00    +0.000 OA
BRANCH  24  26
ATOM     26  C   UNL     1      -9.157   5.711 129.800  0.00  0.00    +0.000 C 
BRANCH  26  27
ATOM     27  O   UNL     1      -8.261   6.670 130.382  0.00  0.00    +0.000 OA
ATOM     28  H   UNL     1      -8.473   7.548 130.020  0.00  0.00    +0.000 HD
ENDBRANCH  26  27
BRANCH  26  29
ATOM     29  C   UNL     1     -10.319   6.394 129.051  0.00  0.00    +0.000 C 
BRANCH  29  30
ATOM     30  C   UNL     1     -10.372   7.889 129.270  0.00  0.00    +0.000 C 
BRANCH  30  31
ATOM     31  C   UNL     1     -11.284   8.582 128.266  0.00  0.00    +0.000 C 
BRANCH  31  32
ATOM     32  C   UNL     1     -12.716   8.687 128.813  0.00  0.00    +0.000 C 
ATOM     33  C   UNL     1     -13.634   7.686 128.116  0.00  0.00    +0.000 C 
ATOM     34  C   UNL     1     -12.763   8.443 130.316  0.00  0.00    +0.000 C 
BRANCH  32  35
ATOM     35  O   UNL     1     -13.190  10.010 128.588  0.00  0.00    +0.000 OA
ATOM     36  H   UNL     1     -12.567  10.627 129.006  0.00  0.00    +0.000 HD
ENDBRANCH  32  35
ENDBRANCH  31  32
ENDBRANCH  30  31
ENDBRANCH  29  30
ENDBRANCH  26  29
BRANCH  26  37
ATOM     37  C   UNL     1      -9.691   4.781 130.884  0.00  0.00    +0.000 C 
BRANCH  37  38
ATOM     38  C   UNL     1      -9.610   5.440 132.232  0.00  0.00    +0.000 C 
ATOM     39  O   UNL     1     -10.333   6.344 132.628  0.00  0.00    +0.000 OA
BRANCH  38  40
ATOM     40  O   UNL     1      -8.635   4.879 132.995  0.00  0.00    +0.000 OA
ATOM     41  C   UNL     1      -9.137   3.793 133.779  0.00  0.00    +0.000 C 
ENDBRANCH  38  40
ENDBRANCH  37  38
ENDBRANCH  26  37
ENDBRANCH  24  26
ENDBRANCH  23  24
ENDBRANCH   1  23
TORSDOF 13
ENDMDL
MODEL 4
REMARK VINA RESULT:      -7.7      2.908      5.034
REMARK  Name = Omacetaxine mepesuccinate
REMARK  17 active torsions:
REMARK  status: ('A' for Active; 'I' for Inactive)
REMARK    1  A    between atoms: C_2  and  O_3
REMARK    2  A    between atoms: O_3  and  C_4
REMARK    3  A    between atoms: C_4  and  C_6
REMARK    4  A    between atoms: C_6  and  O_7
REMARK    5  A    between atoms: C_6  and  C_8
REMARK    6  A    between atoms: C_6  and  C_15
REMARK    7  A    between atoms: C_8  and  C_9
REMARK    8  A    between atoms: C_9  and  C_10
REMARK    9  A    between atoms: C_10  and  C_11
REMARK   10  A    between atoms: C_11  and  C_12
REMARK   11  A    between atoms: C_11  and  C_13
REMARK   12  A    between atoms: C_11  and  O_14
REMARK   13  A    between atoms: C_15  and  C_16
REMARK   14  A    between atoms: C_16  and  O_18
REMARK   15  A    between atoms: O_18  and  C_19
REMARK   16  A    between atoms: C_20  and  O_21
REMARK   17  A    between atoms: O_21  and  C_22
REMARK                            x       y       z     vdW  Elec       q    Type
REMARK                         _______ _______ _______ _____ _____    ______ ____
ROOT
ATOM      1  C   UNL     1      -7.887   0.302 131.670  0.00  0.00    +0.000 C 
ATOM      2  C   UNL     1      -6.699   0.584 132.723  0.00  0.00    +0.000 C 
ATOM      3  C   UNL     1      -6.115  -0.614 132.947  0.00  0.00    +0.000 C 
ATOM      4  C   UNL     1      -6.898  -1.755 132.340  0.00  0.00    +0.000 C 
ATOM      5  C   UNL     1      -7.652  -2.265 133.577  0.00  0.00    +0.000 C 
ATOM      6  C   UNL     1      -7.240  -3.710 133.673  0.00  0.00    +0.000 C 
ATOM      7  C   UNL     1      -6.210  -3.964 132.600  0.00  0.00    +0.000 C 
ATOM      8  N   UNL     1      -5.782  -2.678 132.114  0.00  0.00    +0.000 NA
ATOM      9  C   UNL     1      -5.864  -2.624 130.720  0.00  0.00    +0.000 C 
ATOM     10  C   UNL     1      -5.355  -3.251 129.510  0.00  0.00    +0.000 C 
ATOM     11  C   UNL     1      -6.291  -2.351 128.592  0.00  0.00    +0.000 A 
ATOM     12  C   UNL     1      -6.029  -2.099 127.179  0.00  0.00    +0.000 A 
ATOM     13  C   UNL     1      -6.937  -2.460 126.121  0.00  0.00    +0.000 A 
ATOM     14  C   UNL     1      -8.092  -3.033 126.551  0.00  0.00    +0.000 A 
ATOM     15  O   UNL     1      -8.869  -3.525 125.521  0.00  0.00    +0.000 OA
ATOM     16  C   UNL     1      -7.983  -3.388 124.382  0.00  0.00    +0.000 C 
ATOM     17  O   UNL     1      -6.923  -2.412 124.729  0.00  0.00    +0.000 OA
ATOM     18  C   UNL     1      -8.314  -3.145 128.017  0.00  0.00    +0.000 A 
ATOM     19  C   UNL     1      -7.610  -2.182 129.045  0.00  0.00    +0.000 A 
ATOM     20  C   UNL     1      -7.918  -1.364 130.797  0.00  0.00    +0.000 C 
ENDROOT
BRANCH   2  21
ATOM     21  O   UNL     1      -6.141   1.639 133.445  0.00  0.00    +0.000 OA
ATOM     22  C   UNL     1      -6.783   2.805 133.913  0.00  0.00    +0.000 C 
ENDBRANCH   2  21
BRANCH   1  23
ATOM     23  O   UNL     1      -8.165   1.461 130.940  0.00  0.00    +0.000 OA
BRANCH  23  24
ATOM     24  C   UNL     1      -9.362   1.963 131.361  0.00  0.00    +0.000 C 
ATOM     25  O   UNL     1     -10.144   1.387 132.073  0.00  0.00    +0.000 OA
BRANCH  24  26
ATOM     26  C   UNL     1      -9.513   3.405 130.882  0.00  0.00    +0.000 C 
BRANCH  26  27
ATOM     27  O   UNL     1     -10.634   3.418 129.984  0.00  0.00    +0.000 OA
ATOM     28  H   UNL     1     -10.669   4.289 129.551  0.00  0.00    +0.000 HD
ENDBRANCH  26  27
BRANCH  26  29
ATOM     29  C   UNL     1      -9.672   4.439 132.015  0.00  0.00    +0.000 C 
BRANCH  29  30
ATOM     30  C   UNL     1      -9.641   5.869 131.524  0.00  0.00    +0.000 C 
BRANCH  30  31
ATOM     31  C   UNL     1     -11.033   6.482 131.458  0.00  0.00    +0.000 C 
BRANCH  31  32
ATOM     32  C   UNL     1     -11.340   6.983 130.039  0.00  0.00    +0.000 C 
ATOM     33  C   UNL     1     -12.599   7.846 130.031  0.00  0.00    +0.000 C 
ATOM     34  C   UNL     1     -10.181   7.787 129.463  0.00  0.00    +0.000 C 
BRANCH  32  35
ATOM     35  O   UNL     1     -11.528   5.854 129.192  0.00  0.00    +0.000 OA
ATOM     36  H   UNL     1     -10.673   5.640 128.782  0.00  0.00    +0.000 HD
ENDBRANCH  32  35
ENDBRANCH  31  32
ENDBRANCH  30  31
ENDBRANCH  29  30
ENDBRANCH  26  29
BRANCH  26  37
ATOM     37  C   UNL     1      -8.226   3.657 130.103  0.00  0.00    +0.000 C 
BRANCH  37  38
ATOM     38  C   UNL     1      -8.532   3.958 128.663  0.00  0.00    +0.000 C 
ATOM     39  O   UNL     1      -8.703   5.073 128.189  0.00  0.00    +0.000 OA
BRANCH  38  40
ATOM     40  O   UNL     1      -8.567   2.820 127.919  0.00  0.00    +0.000 OA
ATOM     41  C   UNL     1      -7.251   2.331 127.643  0.00  0.00    +0.000 C 
ENDBRANCH  38  40
ENDBRANCH  37  38
ENDBRANCH  26  37
ENDBRANCH  24  26
ENDBRANCH  23  24
ENDBRANCH   1  23
TORSDOF 13
ENDMDL
MODEL 5
REMARK VINA RESULT:      -7.6      2.779      7.705
REMARK  Name = Omacetaxine mepesuccinate
REMARK  17 active torsions:
REMARK  status: ('A' for Active; 'I' for Inactive)
REMARK    1  A    between atoms: C_2  and  O_3
REMARK    2  A    between atoms: O_3  and  C_4
REMARK    3  A    between atoms: C_4  and  C_6
REMARK    4  A    between atoms: C_6  and  O_7
REMARK    5  A    between atoms: C_6  and  C_8
REMARK    6  A    between atoms: C_6  and  C_15
REMARK    7  A    between atoms: C_8  and  C_9
REMARK    8  A    between atoms: C_9  and  C_10
REMARK    9  A    between atoms: C_10  and  C_11
REMARK   10  A    between atoms: C_11  and  C_12
REMARK   11  A    between atoms: C_11  and  C_13
REMARK   12  A    between atoms: C_11  and  O_14
REMARK   13  A    between atoms: C_15  and  C_16
REMARK   14  A    between atoms: C_16  and  O_18
REMARK   15  A    between atoms: O_18  and  C_19
REMARK   16  A    between atoms: C_20  and  O_21
REMARK   17  A    between atoms: O_21  and  C_22
REMARK                            x       y       z     vdW  Elec       q    Type
REMARK                         _______ _______ _______ _____ _____    ______ ____
ROOT
ATOM      1  C   UNL     1      -7.283   3.219 129.318  0.00  0.00    +0.000 C 
ATOM      2  C   UNL     1      -7.019   2.081 130.429  0.00  0.00    +0.000 C 
ATOM      3  C   UNL     1      -7.034   2.719 131.620  0.00  0.00    +0.000 C 
ATOM      4  C   UNL     1      -7.058   4.222 131.463  0.00  0.00    +0.000 C 
ATOM      5  C   UNL     1      -5.574   4.550 131.682  0.00  0.00    +0.000 C 
ATOM      6  C   UNL     1      -5.590   5.513 132.839  0.00  0.00    +0.000 C 
ATOM      7  C   UNL     1      -7.016   5.629 133.318  0.00  0.00    +0.000 C 
ATOM      8  N   UNL     1      -7.753   4.551 132.712  0.00  0.00    +0.000 NA
ATOM      9  C   UNL     1      -8.905   5.032 132.082  0.00  0.00    +0.000 C 
ATOM     10  C   UNL     1     -10.151   5.738 132.341  0.00  0.00    +0.000 C 
ATOM     11  C   UNL     1     -10.523   5.746 130.795  0.00  0.00    +0.000 A 
ATOM     12  C   UNL     1     -11.884   5.914 130.297  0.00  0.00    +0.000 A 
ATOM     13  C   UNL     1     -12.291   6.992 129.433  0.00  0.00    +0.000 A 
ATOM     14  C   UNL     1     -11.283   7.836 129.084  0.00  0.00    +0.000 A 
ATOM     15  O   UNL     1     -11.723   8.952 128.400  0.00  0.00    +0.000 OA
ATOM     16  C   UNL     1     -13.162   8.835 128.526  0.00  0.00    +0.000 C 
ATOM     17  O   UNL     1     -13.490   7.433 128.877  0.00  0.00    +0.000 OA
ATOM     18  C   UNL     1      -9.909   7.516 129.552  0.00  0.00    +0.000 A 
ATOM     19  C   UNL     1      -9.470   6.047 129.915  0.00  0.00    +0.000 A 
ATOM     20  C   UNL     1      -7.880   4.903 129.904  0.00  0.00    +0.000 C 
ENDROOT
BRANCH   2  21
ATOM     21  O   UNL     1      -6.773   0.710 130.516  0.00  0.00    +0.000 OA
ATOM     22  C   UNL     1      -7.710  -0.344 130.456  0.00  0.00    +0.000 C 
ENDBRANCH   2  21
BRANCH   1  23
ATOM     23  O   UNL     1      -7.855   2.651 128.176  0.00  0.00    +0.000 OA
BRANCH  23  24
ATOM     24  C   UNL     1      -6.868   2.433 127.260  0.00  0.00    +0.000 C 
ATOM     25  O   UNL     1      -5.912   3.144 127.087  0.00  0.00    +0.000 OA
BRANCH  24  26
ATOM     26  C   UNL     1      -7.104   1.098 126.557  0.00  0.00    +0.000 C 
BRANCH  26  27
ATOM     27  O   UNL     1      -6.948   1.346 125.151  0.00  0.00    +0.000 OA
ATOM     28  H   UNL     1      -6.000   1.475 124.966  0.00  0.00    +0.000 HD
ENDBRANCH  26  27
BRANCH  26  29
ATOM     29  C   UNL     1      -6.192  -0.047 127.043  0.00  0.00    +0.000 C 
BRANCH  29  30
ATOM     30  C   UNL     1      -5.427  -0.714 125.922  0.00  0.00    +0.000 C 
BRANCH  30  31
ATOM     31  C   UNL     1      -5.774  -2.191 125.793  0.00  0.00    +0.000 C 
BRANCH  31  32
ATOM     32  C   UNL     1      -6.269  -2.512 124.374  0.00  0.00    +0.000 C 
ATOM     33  C   UNL     1      -5.123  -3.026 123.506  0.00  0.00    +0.000 C 
ATOM     34  C   UNL     1      -7.386  -3.547 124.389  0.00  0.00    +0.000 C 
BRANCH  32  35
ATOM     35  O   UNL     1      -6.807  -1.324 123.804  0.00  0.00    +0.000 OA
ATOM     36  H   UNL     1      -6.398  -0.564 124.251  0.00  0.00    +0.000 HD
ENDBRANCH  32  35
ENDBRANCH  31  32
ENDBRANCH  30  31
ENDBRANCH  29  30
ENDBRANCH  26  29
BRANCH  26  37
ATOM     37  C   UNL     1      -8.565   0.787 126.865  0.00  0.00    +0.000 C 
BRANCH  37  38
ATOM     38  C   UNL     1      -9.312   0.459 125.604  0.00  0.00    +0.000 C 
ATOM     39  O   UNL     1      -9.410  -0.653 125.102  0.00  0.00    +0.000 OA
BRANCH  38  40
ATOM     40  O   UNL     1      -9.910   1.565 125.085  0.00  0.00    +0.000 OA
ATOM     41  C   UNL     1     -10.128   1.435 123.678  0.00  0.00    +0.000 C 
ENDBRANCH  38  40
ENDBRANCH  37  38
ENDBRANCH  26  37
ENDBRANCH  24  26
ENDBRANCH  23  24
ENDBRANCH   1  23
TORSDOF 13
ENDMDL
MODEL 6
REMARK VINA RESULT:      -7.6      2.223      6.706
REMARK  Name = Omacetaxine mepesuccinate
REMARK  17 active torsions:
REMARK  status: ('A' for Active; 'I' for Inactive)
REMARK    1  A    between atoms: C_2  and  O_3
REMARK    2  A    between atoms: O_3  and  C_4
REMARK    3  A    between atoms: C_4  and  C_6
REMARK    4  A    between atoms: C_6  and  O_7
REMARK    5  A    between atoms: C_6  and  C_8
REMARK    6  A    between atoms: C_6  and  C_15
REMARK    7  A    between atoms: C_8  and  C_9
REMARK    8  A    between atoms: C_9  and  C_10
REMARK    9  A    between atoms: C_10  and  C_11
REMARK   10  A    between atoms: C_11  and  C_12
REMARK   11  A    between atoms: C_11  and  C_13
REMARK   12  A    between atoms: C_11  and  O_14
REMARK   13  A    between atoms: C_15  and  C_16
REMARK   14  A    between atoms: C_16  and  O_18
REMARK   15  A    between atoms: O_18  and  C_19
REMARK   16  A    between atoms: C_20  and  O_21
REMARK   17  A    between atoms: O_21  and  C_22
REMARK                            x       y       z     vdW  Elec       q    Type
REMARK                         _______ _______ _______ _____ _____    ______ ____
ROOT
ATOM      1  C   UNL     1      -7.376   3.114 129.278  0.00  0.00    +0.000 C 
ATOM      2  C   UNL     1      -7.056   2.012 130.410  0.00  0.00    +0.000 C 
ATOM      3  C   UNL     1      -6.944   2.697 131.569  0.00  0.00    +0.000 C 
ATOM      4  C   UNL     1      -6.928   4.193 131.350  0.00  0.00    +0.000 C 
ATOM      5  C   UNL     1      -5.420   4.470 131.426  0.00  0.00    +0.000 C 
ATOM      6  C   UNL     1      -5.299   5.479 132.538  0.00  0.00    +0.000 C 
ATOM      7  C   UNL     1      -6.673   5.669 133.132  0.00  0.00    +0.000 C 
ATOM      8  N   UNL     1      -7.499   4.598 132.639  0.00  0.00    +0.000 NA
ATOM      9  C   UNL     1      -8.683   5.098 132.091  0.00  0.00    +0.000 C 
ATOM     10  C   UNL     1      -9.875   5.863 132.425  0.00  0.00    +0.000 C 
ATOM     11  C   UNL     1     -10.381   5.824 130.919  0.00  0.00    +0.000 A 
ATOM     12  C   UNL     1     -11.774   6.026 130.532  0.00  0.00    +0.000 A 
ATOM     13  C   UNL     1     -12.216   7.083 129.661  0.00  0.00    +0.000 A 
ATOM     14  C   UNL     1     -11.213   7.873 129.191  0.00  0.00    +0.000 A 
ATOM     15  O   UNL     1     -11.671   8.977 128.500  0.00  0.00    +0.000 OA
ATOM     16  C   UNL     1     -13.097   8.922 128.755  0.00  0.00    +0.000 C 
ATOM     17  O   UNL     1     -13.443   7.549 129.193  0.00  0.00    +0.000 OA
ATOM     18  C   UNL     1      -9.816   7.517 129.552  0.00  0.00    +0.000 A 
ATOM     19  C   UNL     1      -9.400   6.048 129.939  0.00  0.00    +0.000 A 
ATOM     20  C   UNL     1      -7.859   4.843 129.840  0.00  0.00    +0.000 C 
ENDROOT
BRANCH   2  21
ATOM     21  O   UNL     1      -6.853   0.637 130.534  0.00  0.00    +0.000 OA
ATOM     22  C   UNL     1      -7.820  -0.363 130.771  0.00  0.00    +0.000 C 
ENDBRANCH   2  21
BRANCH   1  23
ATOM     23  O   UNL     1      -8.066   2.525 128.215  0.00  0.00    +0.000 OA
BRANCH  23  24
ATOM     24  C   UNL     1      -7.169   2.214 127.235  0.00  0.00    +0.000 C 
ATOM     25  O   UNL     1      -6.443   1.254 127.238  0.00  0.00    +0.000 OA
BRANCH  24  26
ATOM     26  C   UNL     1      -7.299   3.209 126.084  0.00  0.00    +0.000 C 
BRANCH  26  27
ATOM     27  O   UNL     1      -8.654   3.683 126.108  0.00  0.00    +0.000 OA
ATOM     28  H   UNL     1      -9.232   2.945 126.373  0.00  0.00    +0.000 HD
ENDBRANCH  26  27
BRANCH  26  29
ATOM     29  C   UNL     1      -6.285   4.370 126.129  0.00  0.00    +0.000 C 
BRANCH  29  30
ATOM     30  C   UNL     1      -4.938   4.007 125.545  0.00  0.00    +0.000 C 
BRANCH  30  31
ATOM     31  C   UNL     1      -3.798   4.295 126.513  0.00  0.00    +0.000 C 
BRANCH  31  32
ATOM     32  C   UNL     1      -3.201   2.988 127.054  0.00  0.00    +0.000 C 
ATOM     33  C   UNL     1      -1.686   2.966 126.863  0.00  0.00    +0.000 C 
ATOM     34  C   UNL     1      -3.519   2.794 128.531  0.00  0.00    +0.000 C 
BRANCH  32  35
ATOM     35  O   UNL     1      -3.788   1.897 126.353  0.00  0.00    +0.000 OA
ATOM     36  H   UNL     1      -4.622   1.668 126.796  0.00  0.00    +0.000 HD
ENDBRANCH  32  35
ENDBRANCH  31  32
ENDBRANCH  30  31
ENDBRANCH  29  30
ENDBRANCH  26  29
BRANCH  26  37
ATOM     37  C   UNL     1      -7.076   2.350 124.844  0.00  0.00    +0.000 C 
BRANCH  37  38
ATOM     38  C   UNL     1      -8.305   2.341 123.980  0.00  0.00    +0.000 C 
ATOM     39  O   UNL     1      -8.625   3.217 123.188  0.00  0.00    +0.000 OA
BRANCH  38  40
ATOM     40  O   UNL     1      -9.024   1.202 124.161  0.00  0.00    +0.000 OA
ATOM     41  C   UNL     1     -10.215   1.198 123.368  0.00  0.00    +0.000 C 
ENDBRANCH  38  40
ENDBRANCH  37  38
ENDBRANCH  26  37
ENDBRANCH  24  26
ENDBRANCH  23  24
ENDBRANCH   1  23
TORSDOF 13
ENDMDL
MODEL 7
REMARK VINA RESULT:      -7.5      3.400      7.158
REMARK  Name = Omacetaxine mepesuccinate
REMARK  17 active torsions:
REMARK  status: ('A' for Active; 'I' for Inactive)
REMARK    1  A    between atoms: C_2  and  O_3
REMARK    2  A    between atoms: O_3  and  C_4
REMARK    3  A    between atoms: C_4  and  C_6
REMARK    4  A    between atoms: C_6  and  O_7
REMARK    5  A    between atoms: C_6  and  C_8
REMARK    6  A    between atoms: C_6  and  C_15
REMARK    7  A    between atoms: C_8  and  C_9
REMARK    8  A    between atoms: C_9  and  C_10
REMARK    9  A    between atoms: C_10  and  C_11
REMARK   10  A    between atoms: C_11  and  C_12
REMARK   11  A    between atoms: C_11  and  C_13
REMARK   12  A    between atoms: C_11  and  O_14
REMARK   13  A    between atoms: C_15  and  C_16
REMARK   14  A    between atoms: C_16  and  O_18
REMARK   15  A    between atoms: O_18  and  C_19
REMARK   16  A    between atoms: C_20  and  O_21
REMARK   17  A    between atoms: O_21  and  C_22
REMARK                            x       y       z     vdW  Elec       q    Type
REMARK                         _______ _______ _______ _____ _____    ______ ____
ROOT
ATOM      1  C   UNL     1      -6.948   0.505 126.626  0.00  0.00    +0.000 C 
ATOM      2  C   UNL     1      -8.349   0.802 125.883  0.00  0.00    +0.000 C 
ATOM      3  C   UNL     1      -8.848  -0.406 125.544  0.00  0.00    +0.000 C 
ATOM      4  C   UNL     1      -7.851  -1.521 125.764  0.00  0.00    +0.000 C 
ATOM      5  C   UNL     1      -7.321  -1.708 124.335  0.00  0.00    +0.000 C 
ATOM      6  C   UNL     1      -7.603  -3.156 124.038  0.00  0.00    +0.000 C 
ATOM      7  C   UNL     1      -8.362  -3.723 125.212  0.00  0.00    +0.000 C 
ATOM      8  N   UNL     1      -8.803  -2.608 126.008  0.00  0.00    +0.000 NA
ATOM      9  C   UNL     1      -8.442  -2.782 127.347  0.00  0.00    +0.000 C 
ATOM     10  C   UNL     1      -8.629  -3.669 128.486  0.00  0.00    +0.000 C 
ATOM     11  C   UNL     1      -7.617  -2.823 129.372  0.00  0.00    +0.000 A 
ATOM     12  C   UNL     1      -7.607  -2.852 130.831  0.00  0.00    +0.000 A 
ATOM     13  C   UNL     1      -6.471  -3.265 131.614  0.00  0.00    +0.000 A 
ATOM     14  C   UNL     1      -5.378  -3.598 130.876  0.00  0.00    +0.000 A 
ATOM     15  O   UNL     1      -4.363  -4.152 131.631  0.00  0.00    +0.000 OA
ATOM     16  C   UNL     1      -5.006  -4.329 132.918  0.00  0.00    +0.000 C 
ATOM     17  O   UNL     1      -6.203  -3.458 132.968  0.00  0.00    +0.000 OA
ATOM     18  C   UNL     1      -5.452  -3.428 129.402  0.00  0.00    +0.000 A 
ATOM     19  C   UNL     1      -6.442  -2.405 128.726  0.00  0.00    +0.000 A 
ATOM     20  C   UNL     1      -6.579  -1.266 127.139  0.00  0.00    +0.000 C 
ENDROOT
BRANCH   2  21
ATOM     21  O   UNL     1      -9.142   1.882 125.494  0.00  0.00    +0.000 OA
ATOM     22  C   UNL     1      -8.892   2.815 124.466  0.00  0.00    +0.000 C 
ENDBRANCH   2  21
BRANCH   1  23
ATOM     23  O   UNL     1      -6.639   1.548 127.503  0.00  0.00    +0.000 OA
BRANCH  23  24
ATOM     24  C   UNL     1      -5.948   2.503 126.815  0.00  0.00    +0.000 C 
ATOM     25  O   UNL     1      -5.241   2.296 125.862  0.00  0.00    +0.000 OA
BRANCH  24  26
ATOM     26  C   UNL     1      -6.286   3.884 127.371  0.00  0.00    +0.000 C 
BRANCH  26  27
ATOM     27  O   UNL     1      -6.234   4.792 126.260  0.00  0.00    +0.000 OA
ATOM     28  H   UNL     1      -5.300   4.998 126.075  0.00  0.00    +0.000 HD
ENDBRANCH  26  27
BRANCH  26  29
ATOM     29  C   UNL     1      -7.636   3.959 128.111  0.00  0.00    +0.000 C 
BRANCH  29  30
ATOM     30  C   UNL     1      -7.506   4.430 129.542  0.00  0.00    +0.000 C 
BRANCH  30  31
ATOM     31  C   UNL     1      -8.862   4.671 130.191  0.00  0.00    +0.000 C 
BRANCH  31  32
ATOM     32  C   UNL     1      -9.054   6.162 130.512  0.00  0.00    +0.000 C 
ATOM     33  C   UNL     1     -10.167   6.354 131.538  0.00  0.00    +0.000 C 
ATOM     34  C   UNL     1      -7.773   6.792 131.042  0.00  0.00    +0.000 C 
BRANCH  32  35
ATOM     35  O   UNL     1      -9.389   6.844 129.308  0.00  0.00    +0.000 OA
ATOM     36  H   UNL     1      -9.883   6.228 128.741  0.00  0.00    +0.000 HD
ENDBRANCH  32  35
ENDBRANCH  31  32
ENDBRANCH  30  31
ENDBRANCH  29  30
ENDBRANCH  26  29
BRANCH  26  37
ATOM     37  C   UNL     1      -5.133   4.174 128.327  0.00  0.00    +0.000 C 
BRANCH  37  38
ATOM     38  C   UNL     1      -4.255   5.263 127.779  0.00  0.00    +0.000 C 
ATOM     39  O   UNL     1      -4.362   6.457 128.024  0.00  0.00    +0.000 OA
BRANCH  38  40
ATOM     40  O   UNL     1      -3.279   4.752 126.981  0.00  0.00    +0.000 OA
ATOM     41  C   UNL     1      -2.489   3.780 127.672  0.00  0.00    +0.000 C 
ENDBRANCH  38  40
ENDBRANCH  37  38
ENDBRANCH  26  37
ENDBRANCH  24  26
ENDBRANCH  23  24
ENDBRANCH   1  23
TORSDOF 13
ENDMDL
MODEL 8
REMARK VINA RESULT:      -7.4      3.319      7.211
REMARK  Name = Omacetaxine mepesuccinate
REMARK  17 active torsions:
REMARK  status: ('A' for Active; 'I' for Inactive)
REMARK    1  A    between atoms: C_2  and  O_3
REMARK    2  A    between atoms: O_3  and  C_4
REMARK    3  A    between atoms: C_4  and  C_6
REMARK    4  A    between atoms: C_6  and  O_7
REMARK    5  A    between atoms: C_6  and  C_8
REMARK    6  A    between atoms: C_6  and  C_15
REMARK    7  A    between atoms: C_8  and  C_9
REMARK    8  A    between atoms: C_9  and  C_10
REMARK    9  A    between atoms: C_10  and  C_11
REMARK   10  A    between atoms: C_11  and  C_12
REMARK   11  A    between atoms: C_11  and  C_13
REMARK   12  A    between atoms: C_11  and  O_14
REMARK   13  A    between atoms: C_15  and  C_16
REMARK   14  A    between atoms: C_16  and  O_18
REMARK   15  A    between atoms: O_18  and  C_19
REMARK   16  A    between atoms: C_20  and  O_21
REMARK   17  A    between atoms: O_21  and  C_22
REMARK                            x       y       z     vdW  Elec       q    Type
REMARK                         _______ _______ _______ _____ _____    ______ ____
ROOT
ATOM      1  C   UNL     1      -6.771   0.605 126.574  0.00  0.00    +0.000 C 
ATOM      2  C   UNL     1      -8.238   0.914 125.980  0.00  0.00    +0.000 C 
ATOM      3  C   UNL     1      -8.805  -0.292 125.755  0.00  0.00    +0.000 C 
ATOM      4  C   UNL     1      -7.819  -1.427 125.914  0.00  0.00    +0.000 C 
ATOM      5  C   UNL     1      -7.460  -1.693 124.445  0.00  0.00    +0.000 C 
ATOM      6  C   UNL     1      -7.812  -3.143 124.250  0.00  0.00    +0.000 C 
ATOM      7  C   UNL     1      -8.448  -3.634 125.527  0.00  0.00    +0.000 C 
ATOM      8  N   UNL     1      -8.766  -2.472 126.314  0.00  0.00    +0.000 NA
ATOM      9  C   UNL     1      -8.260  -2.599 127.611  0.00  0.00    +0.000 C 
ATOM     10  C   UNL     1      -8.340  -3.429 128.804  0.00  0.00    +0.000 C 
ATOM     11  C   UNL     1      -7.211  -2.577 129.530  0.00  0.00    +0.000 A 
ATOM     12  C   UNL     1      -7.036  -2.544 130.979  0.00  0.00    +0.000 A 
ATOM     13  C   UNL     1      -5.830  -2.958 131.648  0.00  0.00    +0.000 A 
ATOM     14  C   UNL     1      -4.838  -3.358 130.808  0.00  0.00    +0.000 A 
ATOM     15  O   UNL     1      -3.759  -3.910 131.469  0.00  0.00    +0.000 OA
ATOM     16  C   UNL     1      -4.256  -4.011 132.827  0.00  0.00    +0.000 C 
ATOM     17  O   UNL     1      -5.416  -3.100 132.970  0.00  0.00    +0.000 OA
ATOM     18  C   UNL     1      -5.074  -3.249 129.345  0.00  0.00    +0.000 A 
ATOM     19  C   UNL     1      -6.107  -2.226 128.737  0.00  0.00    +0.000 A 
ATOM     20  C   UNL     1      -6.393  -1.154 127.124  0.00  0.00    +0.000 C 
ENDROOT
BRANCH   2  21
ATOM     21  O   UNL     1      -9.041   2.000 125.632  0.00  0.00    +0.000 OA
ATOM     22  C   UNL     1      -8.772   3.008 124.682  0.00  0.00    +0.000 C 
ENDBRANCH   2  21
BRANCH   1  23
ATOM     23  O   UNL     1      -6.336   1.675 127.361  0.00  0.00    +0.000 OA
BRANCH  23  24
ATOM     24  C   UNL     1      -5.629   2.534 126.572  0.00  0.00    +0.000 C 
ATOM     25  O   UNL     1      -5.311   2.326 125.429  0.00  0.00    +0.000 OA
BRANCH  24  26
ATOM     26  C   UNL     1      -5.390   3.843 127.321  0.00  0.00    +0.000 C 
BRANCH  26  27
ATOM     27  O   UNL     1      -6.369   4.774 126.834  0.00  0.00    +0.000 OA
ATOM     28  H   UNL     1      -6.203   5.639 127.248  0.00  0.00    +0.000 HD
ENDBRANCH  26  27
BRANCH  26  29
ATOM     29  C   UNL     1      -5.436   3.714 128.857  0.00  0.00    +0.000 C 
BRANCH  29  30
ATOM     30  C   UNL     1      -6.643   4.382 129.475  0.00  0.00    +0.000 C 
BRANCH  30  31
ATOM     31  C   UNL     1      -7.355   3.472 130.468  0.00  0.00    +0.000 C 
BRANCH  31  32
ATOM     32  C   UNL     1      -8.580   2.810 129.819  0.00  0.00    +0.000 C 
ATOM     33  C   UNL     1      -8.459   1.289 129.865  0.00  0.00    +0.000 C 
ATOM     34  C   UNL     1      -9.874   3.229 130.504  0.00  0.00    +0.000 C 
BRANCH  32  35
ATOM     35  O   UNL     1      -8.663   3.243 128.465  0.00  0.00    +0.000 OA
ATOM     36  H   UNL     1      -8.761   2.456 127.903  0.00  0.00    +0.000 HD
ENDBRANCH  32  35
ENDBRANCH  31  32
ENDBRANCH  30  31
ENDBRANCH  29  30
ENDBRANCH  26  29
BRANCH  26  37
ATOM     37  C   UNL     1      -4.001   4.269 126.860  0.00  0.00    +0.000 C 
BRANCH  37  38
ATOM     38  C   UNL     1      -3.437   5.316 127.779  0.00  0.00    +0.000 C 
ATOM     39  O   UNL     1      -2.464   5.176 128.507  0.00  0.00    +0.000 OA
BRANCH  38  40
ATOM     40  O   UNL     1      -4.133   6.480 127.682  0.00  0.00    +0.000 OA
ATOM     41  C   UNL     1      -3.732   7.419 128.684  0.00  0.00    +0.000 C 
ENDBRANCH  38  40
ENDBRANCH  37  38
ENDBRANCH  26  37
ENDBRANCH  24  26
ENDBRANCH  23  24
ENDBRANCH   1  23
TORSDOF 13
ENDMDL
MODEL 9
REMARK VINA RESULT:      -7.4      3.195      4.750
REMARK  Name = Omacetaxine mepesuccinate
REMARK  17 active torsions:
REMARK  status: ('A' for Active; 'I' for Inactive)
REMARK    1  A    between atoms: C_2  and  O_3
REMARK    2  A    between atoms: O_3  and  C_4
REMARK    3  A    between atoms: C_4  and  C_6
REMARK    4  A    between atoms: C_6  and  O_7
REMARK    5  A    between atoms: C_6  and  C_8
REMARK    6  A    between atoms: C_6  and  C_15
REMARK    7  A    between atoms: C_8  and  C_9
REMARK    8  A    between atoms: C_9  and  C_10
REMARK    9  A    between atoms: C_10  and  C_11
REMARK   10  A    between atoms: C_11  and  C_12
REMARK   11  A    between atoms: C_11  and  C_13
REMARK   12  A    between atoms: C_11  and  O_14
REMARK   13  A    between atoms: C_15  and  C_16
REMARK   14  A    between atoms: C_16  and  O_18
REMARK   15  A    between atoms: O_18  and  C_19
REMARK   16  A    between atoms: C_20  and  O_21
REMARK   17  A    between atoms: O_21  and  C_22
REMARK                            x       y       z     vdW  Elec       q    Type
REMARK                         _______ _______ _______ _____ _____    ______ ____
ROOT
ATOM      1  C   UNL     1      -7.928   0.540 130.640  0.00  0.00    +0.000 C 
ATOM      2  C   UNL     1      -6.615   0.885 131.509  0.00  0.00    +0.000 C 
ATOM      3  C   UNL     1      -5.921  -0.270 131.601  0.00  0.00    +0.000 C 
ATOM      4  C   UNL     1      -6.707  -1.453 131.082  0.00  0.00    +0.000 C 
ATOM      5  C   UNL     1      -7.224  -2.045 132.401  0.00  0.00    +0.000 C 
ATOM      6  C   UNL     1      -6.701  -3.457 132.385  0.00  0.00    +0.000 C 
ATOM      7  C   UNL     1      -5.834  -3.610 131.160  0.00  0.00    +0.000 C 
ATOM      8  N   UNL     1      -5.577  -2.285 130.658  0.00  0.00    +0.000 NA
ATOM      9  C   UNL     1      -5.877  -2.206 129.295  0.00  0.00    +0.000 C 
ATOM     10  C   UNL     1      -5.518  -2.766 128.001  0.00  0.00    +0.000 C 
ATOM     11  C   UNL     1      -6.644  -1.917 127.268  0.00  0.00    +0.000 A 
ATOM     12  C   UNL     1      -6.621  -1.614 125.840  0.00  0.00    +0.000 A 
ATOM     13  C   UNL     1      -7.654  -2.017 124.921  0.00  0.00    +0.000 A 
ATOM     14  C   UNL     1      -8.686  -2.685 125.503  0.00  0.00    +0.000 A 
ATOM     15  O   UNL     1      -9.577  -3.209 124.587  0.00  0.00    +0.000 OA
ATOM     16  C   UNL     1      -8.888  -2.981 123.332  0.00  0.00    +0.000 C 
ATOM     17  O   UNL     1      -7.859  -1.937 123.545  0.00  0.00    +0.000 OA
ATOM     18  C   UNL     1      -8.671  -2.845 126.980  0.00  0.00    +0.000 A 
ATOM     19  C   UNL     1      -7.886  -1.856 127.922  0.00  0.00    +0.000 A 
ATOM     20  C   UNL     1      -7.977  -1.103 129.727  0.00  0.00    +0.000 C 
ENDROOT
BRANCH   2  21
ATOM     21  O   UNL     1      -6.026   1.962 132.173  0.00  0.00    +0.000 OA
ATOM     22  C   UNL     1      -6.354   2.480 133.445  0.00  0.00    +0.000 C 
ENDBRANCH   2  21
BRANCH   1  23
ATOM     23  O   UNL     1      -8.396   1.691 130.000  0.00  0.00    +0.000 OA
BRANCH  23  24
ATOM     24  C   UNL     1      -9.329   2.284 130.800  0.00  0.00    +0.000 C 
ATOM     25  O   UNL     1      -9.849   1.770 131.756  0.00  0.00    +0.000 OA
BRANCH  24  26
ATOM     26  C   UNL     1      -9.536   3.732 130.363  0.00  0.00    +0.000 C 
BRANCH  26  27
ATOM     27  O   UNL     1      -9.077   3.816 129.005  0.00  0.00    +0.000 OA
ATOM     28  H   UNL     1      -9.743   3.399 128.430  0.00  0.00    +0.000 HD
ENDBRANCH  26  27
BRANCH  26  29
ATOM     29  C   UNL     1     -10.984   4.241 130.512  0.00  0.00    +0.000 C 
BRANCH  29  30
ATOM     30  C   UNL     1     -11.098   5.746 130.430  0.00  0.00    +0.000 C 
BRANCH  30  31
ATOM     31  C   UNL     1     -11.809   6.199 129.162  0.00  0.00    +0.000 C 
BRANCH  31  32
ATOM     32  C   UNL     1     -10.865   7.023 128.273  0.00  0.00    +0.000 C 
ATOM     33  C   UNL     1     -11.561   7.430 126.977  0.00  0.00    +0.000 C 
ATOM     34  C   UNL     1     -10.371   8.275 128.987  0.00  0.00    +0.000 C 
BRANCH  32  35
ATOM     35  O   UNL     1      -9.719   6.232 127.974  0.00  0.00    +0.000 OA
ATOM     36  H   UNL     1      -9.126   6.261 128.742  0.00  0.00    +0.000 HD
ENDBRANCH  32  35
ENDBRANCH  31  32
ENDBRANCH  30  31
ENDBRANCH  29  30
ENDBRANCH  26  29
BRANCH  26  37
ATOM     37  C   UNL     1      -8.596   4.516 131.273  0.00  0.00    +0.000 C 
BRANCH  37  38
ATOM     38  C   UNL     1      -7.436   5.061 130.490  0.00  0.00    +0.000 C 
ATOM     39  O   UNL     1      -6.481   4.412 130.085  0.00  0.00    +0.000 OA
BRANCH  38  40
ATOM     40  O   UNL     1      -7.588   6.391 130.248  0.00  0.00    +0.000 OA
ATOM     41  C   UNL     1      -6.618   7.169 130.955  0.00  0.00    +0.000 C 
ENDBRANCH  38  40
ENDBRANCH  37  38
ENDBRANCH  26  37
ENDBRANCH  24  26
ENDBRANCH  23  24
ENDBRANCH   1  23
TORSDOF 13
ENDMDL
