MODEL 1
REMARK VINA RESULT:      -7.7      0.000      0.000
REMARK  Name = Omadacycline
REMARK  18 active torsions:
REMARK  status: ('A' for Active; 'I' for Inactive)
REMARK    1  A    between atoms: C_5  and  N_40
REMARK    2  A    between atoms: C_7  and  C_8
REMARK    3  A    between atoms: C_8  and  N_9
REMARK    4  A    between atoms: N_9  and  C_10
REMARK    5  A    between atoms: C_10  and  C_11
REMARK    6  A    between atoms: C_11  and  C_12
REMARK    7  A    between atoms: C_11  and  C_13
REMARK    8  A    between atoms: C_11  and  C_14
REMARK    9  A    between atoms: C_15  and  O_16
REMARK   10  A    between atoms: C_21  and  O_22
REMARK   11  A    between atoms: C_23  and  O_24
REMARK   12  A    between atoms: C_27  and  C_28
REMARK   13  A    between atoms: C_31  and  O_32
REMARK   14  A    between atoms: C_33  and  N_34
REMARK   15  A    between atoms: N_34  and  C_35
REMARK   16  A    between atoms: N_34  and  C_36
REMARK   17  A    between atoms: N_40  and  C_41
REMARK   18  A    between atoms: N_40  and  C_42
REMARK                            x       y       z     vdW  Elec       q    Type
REMARK                         _______ _______ _______ _____ _____    ______ ____
ROOT
ATOM      1  C   UNL     1      -6.822   1.605 129.471  0.00  0.00    +0.000 C 
ATOM      2  C   UNL     1      -6.530   0.155 129.382  0.00  0.00    +0.000 C 
ATOM      3  C   UNL     1      -7.241  -0.681 128.409  0.00  0.00    +0.000 A 
ATOM      4  C   UNL     1      -7.365  -2.070 128.664  0.00  0.00    +0.000 A 
ATOM      5  C   UNL     1      -8.044  -2.757 127.642  0.00  0.00    +0.000 A 
ATOM      6  C   UNL     1      -8.521  -2.146 126.456  0.00  0.00    +0.000 A 
ATOM      7  C   UNL     1      -8.330  -0.772 126.270  0.00  0.00    +0.000 A 
ATOM      8  C   UNL     1      -7.687  -0.031 127.236  0.00  0.00    +0.000 A 
ATOM      9  C   UNL     1      -7.452   1.432 127.012  0.00  0.00    +0.000 C 
ATOM     10  O   UNL     1      -7.626   1.991 125.932  0.00  0.00    +0.000 OA
ATOM     11  C   UNL     1      -6.933   2.242 128.145  0.00  0.00    +0.000 C 
ATOM     12  C   UNL     1      -6.578   3.526 127.963  0.00  0.00    +0.000 C 
ATOM     13  C   UNL     1      -6.059   4.402 129.085  0.00  0.00    +0.000 C 
ATOM     14  C   UNL     1      -4.734   5.061 128.762  0.00  0.00    +0.000 C 
ATOM     15  O   UNL     1      -3.971   4.592 127.906  0.00  0.00    +0.000 OA
ATOM     16  C   UNL     1      -4.198   6.078 129.733  0.00  0.00    +0.000 C 
ATOM     17  C   UNL     1      -3.651   5.260 130.635  0.00  0.00    +0.000 C 
ATOM     18  C   UNL     1      -4.797   4.301 131.459  0.00  0.00    +0.000 C 
ATOM     19  C   UNL     1      -5.790   3.644 130.405  0.00  0.00    +0.000 C 
ATOM     20  C   UNL     1      -5.656   2.152 130.318  0.00  0.00    +0.000 C 
ENDROOT
BRANCH  16  21
ATOM     21  C   UNL     1      -4.880   6.958 130.747  0.00  0.00    +0.000 C 
ATOM     22  N   UNL     1      -4.210   7.194 131.946  0.00  0.00    +0.000 N 
ATOM     23  O   UNL     1      -6.040   7.363 130.628  0.00  0.00    +0.000 OA
ATOM     24  H   UNL     1      -3.369   6.666 132.176  0.00  0.00    +0.000 HD
ATOM     25  H   UNL     1      -4.812   7.268 132.759  0.00  0.00    +0.000 HD
ENDBRANCH  16  21
BRANCH  18  26
ATOM     26  N   UNL     1      -5.777   4.603 132.588  0.00  0.00    +0.000 NA
ATOM     27  C   UNL     1      -5.480   4.582 134.059  0.00  0.00    +0.000 C 
ATOM     28  C   UNL     1      -7.182   4.350 132.416  0.00  0.00    +0.000 C 
ENDBRANCH  18  26
BRANCH   4  29
ATOM     29  N   UNL     1      -6.846  -2.720 129.790  0.00  0.00    +0.000 N 
ATOM     30  C   UNL     1      -7.452  -2.904 131.131  0.00  0.00    +0.000 C 
ATOM     31  C   UNL     1      -5.577  -3.454 129.739  0.00  0.00    +0.000 C 
ENDBRANCH   4  29
BRANCH   7  32
ATOM     32  O   UNL     1      -8.767  -0.121 125.151  0.00  0.00    +0.000 OA
ATOM     33  H   UNL     1      -9.086  -0.793 124.518  0.00  0.00    +0.000 HD
ENDBRANCH   7  32
BRANCH  12  34
ATOM     34  O   UNL     1      -6.743   4.182 126.751  0.00  0.00    +0.000 OA
ATOM     35  H   UNL     1      -7.469   3.716 126.267  0.00  0.00    +0.000 HD
ENDBRANCH  12  34
BRANCH  13  36
ATOM     36  O   UNL     1      -7.083   5.376 129.233  0.00  0.00    +0.000 OA
ATOM     37  H   UNL     1      -7.914   4.871 129.331  0.00  0.00    +0.000 HD
ENDBRANCH  13  36
BRANCH  17  38
ATOM     38  O   UNL     1      -2.377   5.734 131.119  0.00  0.00    +0.000 OA
ATOM     39  H   UNL     1      -2.123   5.165 131.911  0.00  0.00    +0.000 HD
ENDBRANCH  17  38
BRANCH   6  40
ATOM     40  C   UNL     1      -9.201  -3.037 125.441  0.00  0.00    +0.000 C 
BRANCH  40  41
ATOM     41  N   UNL     1      -8.408  -3.101 124.226  0.00  0.00    +0.000 NA
ATOM     42  H   UNL     1      -8.260  -2.126 123.933  0.00  0.00    +0.000 HD
BRANCH  41  43
ATOM     43  C   UNL     1      -7.113  -3.716 124.402  0.00  0.00    +0.000 C 
BRANCH  43  44
ATOM     44  C   UNL     1      -6.031  -2.775 123.822  0.00  0.00    +0.000 C 
ATOM     45  C   UNL     1      -6.609  -1.900 122.693  0.00  0.00    +0.000 C 
ATOM     46  C   UNL     1      -5.443  -1.860 124.917  0.00  0.00    +0.000 C 
ATOM     47  C   UNL     1      -4.914  -3.654 123.254  0.00  0.00    +0.000 C 
ENDBRANCH  43  44
ENDBRANCH  41  43
ENDBRANCH  40  41
ENDBRANCH   6  40
TORSDOF 11
ENDMDL
MODEL 2
REMARK VINA RESULT:      -7.6      2.785      4.299
REMARK  Name = Omadacycline
REMARK  18 active torsions:
REMARK  status: ('A' for Active; 'I' for Inactive)
REMARK    1  A    between atoms: C_5  and  N_40
REMARK    2  A    between atoms: C_7  and  C_8
REMARK    3  A    between atoms: C_8  and  N_9
REMARK    4  A    between atoms: N_9  and  C_10
REMARK    5  A    between atoms: C_10  and  C_11
REMARK    6  A    between atoms: C_11  and  C_12
REMARK    7  A    between atoms: C_11  and  C_13
REMARK    8  A    between atoms: C_11  and  C_14
REMARK    9  A    between atoms: C_15  and  O_16
REMARK   10  A    between atoms: C_21  and  O_22
REMARK   11  A    between atoms: C_23  and  O_24
REMARK   12  A    between atoms: C_27  and  C_28
REMARK   13  A    between atoms: C_31  and  O_32
REMARK   14  A    between atoms: C_33  and  N_34
REMARK   15  A    between atoms: N_34  and  C_35
REMARK   16  A    between atoms: N_34  and  C_36
REMARK   17  A    between atoms: N_40  and  C_41
REMARK   18  A    between atoms: N_40  and  C_42
REMARK                            x       y       z     vdW  Elec       q    Type
REMARK                         _______ _______ _______ _____ _____    ______ ____
ROOT
ATOM      1  C   UNL     1      -7.442   1.814 129.256  0.00  0.00    +0.000 C 
ATOM      2  C   UNL     1      -8.155   1.649 127.969  0.00  0.00    +0.000 C 
ATOM      3  C   UNL     1      -8.204   0.337 127.315  0.00  0.00    +0.000 A 
ATOM      4  C   UNL     1      -8.399   0.281 125.912  0.00  0.00    +0.000 A 
ATOM      5  C   UNL     1      -8.451  -1.035 125.418  0.00  0.00    +0.000 A 
ATOM      6  C   UNL     1      -8.364  -2.192 126.231  0.00  0.00    +0.000 A 
ATOM      7  C   UNL     1      -8.202  -2.046 127.614  0.00  0.00    +0.000 A 
ATOM      8  C   UNL     1      -8.126  -0.788 128.167  0.00  0.00    +0.000 A 
ATOM      9  C   UNL     1      -7.992  -0.639 129.652  0.00  0.00    +0.000 C 
ATOM     10  O   UNL     1      -8.135  -1.567 130.444  0.00  0.00    +0.000 OA
ATOM     11  C   UNL     1      -7.720   0.714 130.201  0.00  0.00    +0.000 C 
ATOM     12  C   UNL     1      -7.723   0.929 131.529  0.00  0.00    +0.000 C 
ATOM     13  C   UNL     1      -7.435   2.284 132.143  0.00  0.00    +0.000 C 
ATOM     14  C   UNL     1      -8.513   2.743 133.103  0.00  0.00    +0.000 C 
ATOM     15  O   UNL     1      -9.667   2.297 133.039  0.00  0.00    +0.000 OA
ATOM     16  C   UNL     1      -8.263   3.999 133.894  0.00  0.00    +0.000 C 
ATOM     17  C   UNL     1      -8.591   4.911 132.978  0.00  0.00    +0.000 C 
ATOM     18  C   UNL     1      -7.543   4.923 131.632  0.00  0.00    +0.000 C 
ATOM     19  C   UNL     1      -7.331   3.433 131.116  0.00  0.00    +0.000 C 
ATOM     20  C   UNL     1      -7.921   3.189 129.758  0.00  0.00    +0.000 C 
ENDROOT
BRANCH  16  21
ATOM     21  C   UNL     1      -6.991   4.684 134.317  0.00  0.00    +0.000 C 
ATOM     22  N   UNL     1      -5.960   3.882 134.802  0.00  0.00    +0.000 N 
ATOM     23  O   UNL     1      -6.867   5.911 134.382  0.00  0.00    +0.000 OA
ATOM     24  H   UNL     1      -6.128   2.896 135.000  0.00  0.00    +0.000 HD
ATOM     25  H   UNL     1      -5.411   4.301 135.544  0.00  0.00    +0.000 HD
ENDBRANCH  16  21
BRANCH  18  26
ATOM     26  N   UNL     1      -6.136   5.475 131.421  0.00  0.00    +0.000 NA
ATOM     27  C   UNL     1      -5.774   6.891 131.081  0.00  0.00    +0.000 C 
ATOM     28  C   UNL     1      -5.086   4.620 130.937  0.00  0.00    +0.000 C 
ENDBRANCH  18  26
BRANCH   4  29
ATOM     29  N   UNL     1      -8.559   1.401 125.087  0.00  0.00    +0.000 N 
ATOM     30  C   UNL     1      -7.535   2.340 124.570  0.00  0.00    +0.000 C 
ATOM     31  C   UNL     1      -9.856   1.741 124.495  0.00  0.00    +0.000 C 
ENDBRANCH   4  29
BRANCH   7  32
ATOM     32  O   UNL     1      -8.109  -3.119 128.453  0.00  0.00    +0.000 OA
ATOM     33  H   UNL     1      -8.614  -3.856 128.056  0.00  0.00    +0.000 HD
ENDBRANCH   7  32
BRANCH  12  34
ATOM     34  O   UNL     1      -7.901  -0.094 132.450  0.00  0.00    +0.000 OA
ATOM     35  H   UNL     1      -8.398   0.290 133.215  0.00  0.00    +0.000 HD
ENDBRANCH  12  34
BRANCH  13  36
ATOM     36  O   UNL     1      -6.208   2.073 132.828  0.00  0.00    +0.000 OA
ATOM     37  H   UNL     1      -6.303   1.209 133.276  0.00  0.00    +0.000 HD
ENDBRANCH  13  36
BRANCH  17  38
ATOM     38  O   UNL     1      -9.339   6.014 133.530  0.00  0.00    +0.000 OA
ATOM     39  H   UNL     1     -10.179   5.638 133.939  0.00  0.00    +0.000 HD
ENDBRANCH  17  38
BRANCH   6  40
ATOM     40  C   UNL     1      -8.473  -3.534 125.543  0.00  0.00    +0.000 C 
BRANCH  40  41
ATOM     41  N   UNL     1      -7.762  -3.502 124.277  0.00  0.00    +0.000 NA
ATOM     42  H   UNL     1      -7.775  -2.520 123.970  0.00  0.00    +0.000 HD
BRANCH  41  43
ATOM     43  C   UNL     1      -6.383  -3.923 124.367  0.00  0.00    +0.000 C 
BRANCH  43  44
ATOM     44  C   UNL     1      -5.482  -2.808 123.787  0.00  0.00    +0.000 C 
ATOM     45  C   UNL     1      -6.175  -2.096 122.609  0.00  0.00    +0.000 C 
ATOM     46  C   UNL     1      -5.122  -1.765 124.864  0.00  0.00    +0.000 C 
ATOM     47  C   UNL     1      -4.196  -3.472 123.286  0.00  0.00    +0.000 C 
ENDBRANCH  43  44
ENDBRANCH  41  43
ENDBRANCH  40  41
ENDBRANCH   6  40
TORSDOF 11
ENDMDL
MODEL 3
REMARK VINA RESULT:      -7.6      2.727      8.796
REMARK  Name = Omadacycline
REMARK  18 active torsions:
REMARK  status: ('A' for Active; 'I' for Inactive)
REMARK    1  A    between atoms: C_5  and  N_40
REMARK    2  A    between atoms: C_7  and  C_8
REMARK    3  A    between atoms: C_8  and  N_9
REMARK    4  A    between atoms: N_9  and  C_10
REMARK    5  A    between atoms: C_10  and  C_11
REMARK    6  A    between atoms: C_11  and  C_12
REMARK    7  A    between atoms: C_11  and  C_13
REMARK    8  A    between atoms: C_11  and  C_14
REMARK    9  A    between atoms: C_15  and  O_16
REMARK   10  A    between atoms: C_21  and  O_22
REMARK   11  A    between atoms: C_23  and  O_24
REMARK   12  A    between atoms: C_27  and  C_28
REMARK   13  A    between atoms: C_31  and  O_32
REMARK   14  A    between atoms: C_33  and  N_34
REMARK   15  A    between atoms: N_34  and  C_35
REMARK   16  A    between atoms: N_34  and  C_36
REMARK   17  A    between atoms: N_40  and  C_41
REMARK   18  A    between atoms: N_40  and  C_42
REMARK                            x       y       z     vdW  Elec       q    Type
REMARK                         _______ _______ _______ _____ _____    ______ ____
ROOT
ATOM      1  C   UNL     1      -7.432   0.896 127.954  0.00  0.00    +0.000 C 
ATOM      2  C   UNL     1      -7.894   0.897 129.361  0.00  0.00    +0.000 C 
ATOM      3  C   UNL     1      -7.867   2.136 130.145  0.00  0.00    +0.000 A 
ATOM      4  C   UNL     1      -7.792   2.048 131.559  0.00  0.00    +0.000 A 
ATOM      5  C   UNL     1      -7.800   3.306 132.187  0.00  0.00    +0.000 A 
ATOM      6  C   UNL     1      -7.913   4.538 131.497  0.00  0.00    +0.000 A 
ATOM      7  C   UNL     1      -8.012   4.533 130.101  0.00  0.00    +0.000 A 
ATOM      8  C   UNL     1      -7.995   3.339 129.415  0.00  0.00    +0.000 A 
ATOM      9  C   UNL     1      -8.140   3.340 127.924  0.00  0.00    +0.000 C 
ATOM     10  O   UNL     1      -8.467   4.330 127.273  0.00  0.00    +0.000 OA
ATOM     11  C   UNL     1      -7.927   2.062 127.196  0.00  0.00    +0.000 C 
ATOM     12  C   UNL     1      -8.174   1.975 125.877  0.00  0.00    +0.000 C 
ATOM     13  C   UNL     1      -7.957   0.703 125.083  0.00  0.00    +0.000 C 
ATOM     14  C   UNL     1      -9.181   0.276 124.298  0.00  0.00    +0.000 C 
ATOM     15  O   UNL     1     -10.317   0.648 124.620  0.00  0.00    +0.000 OA
ATOM     16  C   UNL     1      -9.038  -0.882 123.347  0.00  0.00    +0.000 C 
ATOM     17  C   UNL     1      -9.151  -1.895 124.209  0.00  0.00    +0.000 C 
ATOM     18  C   UNL     1      -7.866  -1.975 125.329  0.00  0.00    +0.000 C 
ATOM     19  C   UNL     1      -7.617  -0.531 125.948  0.00  0.00    +0.000 C 
ATOM     20  C   UNL     1      -7.946  -0.451 127.410  0.00  0.00    +0.000 C 
ENDROOT
BRANCH  16  21
ATOM     21  C   UNL     1      -7.845  -1.451 122.627  0.00  0.00    +0.000 C 
ATOM     22  N   UNL     1      -6.686  -0.677 122.593  0.00  0.00    +0.000 N 
ATOM     23  O   UNL     1      -7.881  -2.490 121.961  0.00  0.00    +0.000 OA
ATOM     24  H   UNL     1      -6.708   0.292 122.911  0.00  0.00    +0.000 HD
ATOM     25  H   UNL     1      -6.152  -0.754 121.734  0.00  0.00    +0.000 HD
ENDBRANCH  16  21
BRANCH  18  26
ATOM     26  N   UNL     1      -6.425  -2.463 125.216  0.00  0.00    +0.000 NA
ATOM     27  C   UNL     1      -5.952  -3.692 124.495  0.00  0.00    +0.000 C 
ATOM     28  C   UNL     1      -5.474  -2.163 126.252  0.00  0.00    +0.000 C 
ENDBRANCH  18  26
BRANCH   4  29
ATOM     29  N   UNL     1      -7.750   0.848 132.278  0.00  0.00    +0.000 N 
ATOM     30  C   UNL     1      -8.676  -0.309 132.229  0.00  0.00    +0.000 C 
ATOM     31  C   UNL     1      -6.626   0.519 133.161  0.00  0.00    +0.000 C 
ENDBRANCH   4  29
BRANCH   7  32
ATOM     32  O   UNL     1      -8.121   5.685 129.374  0.00  0.00    +0.000 OA
ATOM     33  H   UNL     1      -7.786   6.420 129.925  0.00  0.00    +0.000 HD
ENDBRANCH   7  32
BRANCH  12  34
ATOM     34  O   UNL     1      -8.563   3.069 125.116  0.00  0.00    +0.000 OA
ATOM     35  H   UNL     1      -8.056   3.849 125.453  0.00  0.00    +0.000 HD
ENDBRANCH  12  34
BRANCH  13  36
ATOM     36  O   UNL     1      -6.893   1.047 124.208  0.00  0.00    +0.000 OA
ATOM     37  H   UNL     1      -6.198   0.376 124.363  0.00  0.00    +0.000 HD
ENDBRANCH  13  36
BRANCH  17  38
ATOM     38  O   UNL     1      -9.948  -2.981 123.694  0.00  0.00    +0.000 OA
ATOM     39  H   UNL     1     -10.866  -2.906 124.103  0.00  0.00    +0.000 HD
ENDBRANCH  17  38
BRANCH   6  40
ATOM     40  C   UNL     1      -7.940   5.800 132.329  0.00  0.00    +0.000 C 
BRANCH  40  41
ATOM     41  N   UNL     1      -9.009   6.672 131.876  0.00  0.00    +0.000 NA
ATOM     42  H   UNL     1      -8.926   6.715 130.852  0.00  0.00    +0.000 HD
BRANCH  41  43
ATOM     43  C   UNL     1     -10.334   6.190 132.195  0.00  0.00    +0.000 C 
BRANCH  43  44
ATOM     44  C   UNL     1     -11.275   6.492 131.006  0.00  0.00    +0.000 C 
ATOM     45  C   UNL     1     -12.604   7.101 131.495  0.00  0.00    +0.000 C 
ATOM     46  C   UNL     1     -10.614   7.462 130.005  0.00  0.00    +0.000 C 
ATOM     47  C   UNL     1     -11.561   5.164 130.299  0.00  0.00    +0.000 C 
ENDBRANCH  43  44
ENDBRANCH  41  43
ENDBRANCH  40  41
ENDBRANCH   6  40
TORSDOF 11
ENDMDL
MODEL 4
REMARK VINA RESULT:      -7.5      3.495      4.956
REMARK  Name = Omadacycline
REMARK  18 active torsions:
REMARK  status: ('A' for Active; 'I' for Inactive)
REMARK    1  A    between atoms: C_5  and  N_40
REMARK    2  A    between atoms: C_7  and  C_8
REMARK    3  A    between atoms: C_8  and  N_9
REMARK    4  A    between atoms: N_9  and  C_10
REMARK    5  A    between atoms: C_10  and  C_11
REMARK    6  A    between atoms: C_11  and  C_12
REMARK    7  A    between atoms: C_11  and  C_13
REMARK    8  A    between atoms: C_11  and  C_14
REMARK    9  A    between atoms: C_15  and  O_16
REMARK   10  A    between atoms: C_21  and  O_22
REMARK   11  A    between atoms: C_23  and  O_24
REMARK   12  A    between atoms: C_27  and  C_28
REMARK   13  A    between atoms: C_31  and  O_32
REMARK   14  A    between atoms: C_33  and  N_34
REMARK   15  A    between atoms: N_34  and  C_35
REMARK   16  A    between atoms: N_34  and  C_36
REMARK   17  A    between atoms: N_40  and  C_41
REMARK   18  A    between atoms: N_40  and  C_42
REMARK                            x       y       z     vdW  Elec       q    Type
REMARK                         _______ _______ _______ _____ _____    ______ ____
ROOT
ATOM      1  C   UNL     1      -7.616   0.959 128.413  0.00  0.00    +0.000 C 
ATOM      2  C   UNL     1      -7.212   0.346 127.127  0.00  0.00    +0.000 C 
ATOM      3  C   UNL     1      -7.715   0.891 125.861  0.00  0.00    +0.000 A 
ATOM      4  C   UNL     1      -7.775   0.040 124.728  0.00  0.00    +0.000 A 
ATOM      5  C   UNL     1      -8.250   0.693 123.577  0.00  0.00    +0.000 A 
ATOM      6  C   UNL     1      -8.596   2.066 123.529  0.00  0.00    +0.000 A 
ATOM      7  C   UNL     1      -8.479   2.842 124.688  0.00  0.00    +0.000 A 
ATOM      8  C   UNL     1      -8.035   2.267 125.857  0.00  0.00    +0.000 A 
ATOM      9  C   UNL     1      -7.876   3.112 127.083  0.00  0.00    +0.000 C 
ATOM     10  O   UNL     1      -7.934   4.340 127.076  0.00  0.00    +0.000 OA
ATOM     11  C   UNL     1      -7.582   2.434 128.372  0.00  0.00    +0.000 C 
ATOM     12  C   UNL     1      -7.298   3.150 129.475  0.00  0.00    +0.000 C 
ATOM     13  C   UNL     1      -7.008   2.510 130.818  0.00  0.00    +0.000 C 
ATOM     14  C   UNL     1      -5.701   2.973 131.428  0.00  0.00    +0.000 C 
ATOM     15  O   UNL     1      -4.793   3.442 130.728  0.00  0.00    +0.000 OA
ATOM     16  C   UNL     1      -5.382   2.530 132.830  0.00  0.00    +0.000 C 
ATOM     17  C   UNL     1      -4.912   1.307 132.577  0.00  0.00    +0.000 C 
ATOM     18  C   UNL     1      -6.092   0.247 131.948  0.00  0.00    +0.000 C 
ATOM     19  C   UNL     1      -6.875   0.971 130.768  0.00  0.00    +0.000 C 
ATOM     20  C   UNL     1      -6.625   0.351 129.425  0.00  0.00    +0.000 C 
ENDROOT
BRANCH  16  21
ATOM     21  C   UNL     1      -6.263   2.101 133.974  0.00  0.00    +0.000 C 
ATOM     22  N   UNL     1      -5.754   1.148 134.854  0.00  0.00    +0.000 N 
ATOM     23  O   UNL     1      -7.443   2.444 134.092  0.00  0.00    +0.000 OA
ATOM     24  H   UNL     1      -4.885   0.660 134.634  0.00  0.00    +0.000 HD
ATOM     25  H   UNL     1      -6.441   0.497 135.217  0.00  0.00    +0.000 HD
ENDBRANCH  16  21
BRANCH  18  26
ATOM     26  N   UNL     1      -7.242  -0.520 132.593  0.00  0.00    +0.000 NA
ATOM     27  C   UNL     1      -7.147  -1.833 133.313  0.00  0.00    +0.000 C 
ATOM     28  C   UNL     1      -8.578  -0.394 132.077  0.00  0.00    +0.000 C 
ENDBRANCH  18  26
BRANCH   4  29
ATOM     29  N   UNL     1      -7.376  -1.302 124.721  0.00  0.00    +0.000 N 
ATOM     30  C   UNL     1      -8.114  -2.503 125.179  0.00  0.00    +0.000 C 
ATOM     31  C   UNL     1      -6.115  -1.727 124.104  0.00  0.00    +0.000 C 
ENDBRANCH   4  29
BRANCH   7  32
ATOM     32  O   UNL     1      -8.798   4.170 124.710  0.00  0.00    +0.000 OA
ATOM     33  H   UNL     1      -9.365   4.330 125.490  0.00  0.00    +0.000 HD
ENDBRANCH   7  32
BRANCH  12  34
ATOM     34  O   UNL     1      -7.335   4.537 129.495  0.00  0.00    +0.000 OA
ATOM     35  H   UNL     1      -6.407   4.853 129.359  0.00  0.00    +0.000 HD
ENDBRANCH  12  34
BRANCH  13  36
ATOM     36  O   UNL     1      -8.109   2.922 131.615  0.00  0.00    +0.000 OA
ATOM     37  H   UNL     1      -7.755   3.022 132.521  0.00  0.00    +0.000 HD
ENDBRANCH  13  36
BRANCH  17  38
ATOM     38  O   UNL     1      -3.758   0.976 133.376  0.00  0.00    +0.000 OA
ATOM     39  H   UNL     1      -3.212   1.816 133.485  0.00  0.00    +0.000 HD
ENDBRANCH  17  38
BRANCH   6  40
ATOM     40  C   UNL     1      -9.059   2.619 122.199  0.00  0.00    +0.000 C 
BRANCH  40  41
ATOM     41  N   UNL     1      -8.331   3.835 121.886  0.00  0.00    +0.000 NA
ATOM     42  H   UNL     1      -7.688   3.991 122.673  0.00  0.00    +0.000 HD
BRANCH  41  43
ATOM     43  C   UNL     1      -7.544   3.753 120.677  0.00  0.00    +0.000 C 
BRANCH  43  44
ATOM     44  C   UNL     1      -6.049   3.893 121.044  0.00  0.00    +0.000 C 
ATOM     45  C   UNL     1      -5.364   4.960 120.168  0.00  0.00    +0.000 C 
ATOM     46  C   UNL     1      -5.873   4.272 122.529  0.00  0.00    +0.000 C 
ATOM     47  C   UNL     1      -5.386   2.536 120.793  0.00  0.00    +0.000 C 
ENDBRANCH  43  44
ENDBRANCH  41  43
ENDBRANCH  40  41
ENDBRANCH   6  40
TORSDOF 11
ENDMDL
MODEL 5
REMARK VINA RESULT:      -7.3      2.204      8.846
REMARK  Name = Omadacycline
REMARK  18 active torsions:
REMARK  status: ('A' for Active; 'I' for Inactive)
REMARK    1  A    between atoms: C_5  and  N_40
REMARK    2  A    between atoms: C_7  and  C_8
REMARK    3  A    between atoms: C_8  and  N_9
REMARK    4  A    between atoms: N_9  and  C_10
REMARK    5  A    between atoms: C_10  and  C_11
REMARK    6  A    between atoms: C_11  and  C_12
REMARK    7  A    between atoms: C_11  and  C_13
REMARK    8  A    between atoms: C_11  and  C_14
REMARK    9  A    between atoms: C_15  and  O_16
REMARK   10  A    between atoms: C_21  and  O_22
REMARK   11  A    between atoms: C_23  and  O_24
REMARK   12  A    between atoms: C_27  and  C_28
REMARK   13  A    between atoms: C_31  and  O_32
REMARK   14  A    between atoms: C_33  and  N_34
REMARK   15  A    between atoms: N_34  and  C_35
REMARK   16  A    between atoms: N_34  and  C_36
REMARK   17  A    between atoms: N_40  and  C_41
REMARK   18  A    between atoms: N_40  and  C_42
REMARK                            x       y       z     vdW  Elec       q    Type
REMARK                         _______ _______ _______ _____ _____    ______ ____
ROOT
ATOM      1  C   UNL     1      -7.539   1.645 127.917  0.00  0.00    +0.000 C 
ATOM      2  C   UNL     1      -8.309   2.484 128.865  0.00  0.00    +0.000 C 
ATOM      3  C   UNL     1      -7.637   3.541 129.628  0.00  0.00    +0.000 A 
ATOM      4  C   UNL     1      -8.206   3.961 130.858  0.00  0.00    +0.000 A 
ATOM      5  C   UNL     1      -7.477   4.995 131.473  0.00  0.00    +0.000 A 
ATOM      6  C   UNL     1      -6.321   5.593 130.914  0.00  0.00    +0.000 A 
ATOM      7  C   UNL     1      -5.843   5.137 129.681  0.00  0.00    +0.000 A 
ATOM      8  C   UNL     1      -6.495   4.115 129.027  0.00  0.00    +0.000 A 
ATOM      9  C   UNL     1      -6.001   3.659 127.688  0.00  0.00    +0.000 C 
ATOM     10  O   UNL     1      -5.154   4.263 127.033  0.00  0.00    +0.000 OA
ATOM     11  C   UNL     1      -6.601   2.436 127.096  0.00  0.00    +0.000 C 
ATOM     12  C   UNL     1      -6.292   2.058 125.843  0.00  0.00    +0.000 C 
ATOM     13  C   UNL     1      -6.862   0.811 125.197  0.00  0.00    +0.000 C 
ATOM     14  C   UNL     1      -7.514   1.080 123.857  0.00  0.00    +0.000 C 
ATOM     15  O   UNL     1      -7.928   2.208 123.555  0.00  0.00    +0.000 OA
ATOM     16  C   UNL     1      -7.975  -0.102 123.047  0.00  0.00    +0.000 C 
ATOM     17  C   UNL     1      -9.142  -0.344 123.646  0.00  0.00    +0.000 C 
ATOM     18  C   UNL     1      -8.977  -0.851 125.267  0.00  0.00    +0.000 C 
ATOM     19  C   UNL     1      -7.971   0.122 126.024  0.00  0.00    +0.000 C 
ATOM     20  C   UNL     1      -8.633   0.942 127.092  0.00  0.00    +0.000 C 
ENDROOT
BRANCH  16  21
ATOM     21  C   UNL     1      -7.533  -1.541 123.029  0.00  0.00    +0.000 C 
ATOM     22  N   UNL     1      -6.162  -1.792 123.005  0.00  0.00    +0.000 N 
ATOM     23  O   UNL     1      -8.310  -2.492 122.899  0.00  0.00    +0.000 OA
ATOM     24  H   UNL     1      -5.504  -1.028 122.852  0.00  0.00    +0.000 HD
ATOM     25  H   UNL     1      -5.890  -2.604 122.462  0.00  0.00    +0.000 HD
ENDBRANCH  16  21
BRANCH  18  26
ATOM     26  N   UNL     1      -8.578  -2.181 125.899  0.00  0.00    +0.000 NA
ATOM     27  C   UNL     1      -9.502  -3.300 126.281  0.00  0.00    +0.000 C 
ATOM     28  C   UNL     1      -7.409  -2.268 126.731  0.00  0.00    +0.000 C 
ENDBRANCH  18  26
BRANCH   4  29
ATOM     29  N   UNL     1      -9.385   3.443 131.405  0.00  0.00    +0.000 N 
ATOM     30  C   UNL     1     -10.783   3.589 130.934  0.00  0.00    +0.000 C 
ATOM     31  C   UNL     1      -9.364   2.521 132.546  0.00  0.00    +0.000 C 
ENDBRANCH   4  29
BRANCH   7  32
ATOM     32  O   UNL     1      -4.732   5.667 129.089  0.00  0.00    +0.000 OA
ATOM     33  H   UNL     1      -4.566   6.543 129.491  0.00  0.00    +0.000 HD
ENDBRANCH   7  32
BRANCH  12  34
ATOM     34  O   UNL     1      -5.355   2.729 125.070  0.00  0.00    +0.000 OA
ATOM     35  H   UNL     1      -5.531   2.484 124.127  0.00  0.00    +0.000 HD
ENDBRANCH  12  34
BRANCH  13  36
ATOM     36  O   UNL     1      -5.721  -0.022 125.043  0.00  0.00    +0.000 OA
ATOM     37  H   UNL     1      -5.855  -0.497 124.199  0.00  0.00    +0.000 HD
ENDBRANCH  13  36
BRANCH  17  38
ATOM     38  O   UNL     1     -10.190  -0.680 122.714  0.00  0.00    +0.000 OA
ATOM     39  H   UNL     1     -10.346   0.125 122.129  0.00  0.00    +0.000 HD
ENDBRANCH  17  38
BRANCH   6  40
ATOM     40  C   UNL     1      -5.676   6.718 131.693  0.00  0.00    +0.000 C 
BRANCH  40  41
ATOM     41  N   UNL     1      -4.426   6.266 132.277  0.00  0.00    +0.000 NA
ATOM     42  H   UNL     1      -4.258   5.327 131.893  0.00  0.00    +0.000 HD
BRANCH  41  43
ATOM     43  C   UNL     1      -3.290   7.094 131.944  0.00  0.00    +0.000 C 
BRANCH  43  44
ATOM     44  C   UNL     1      -2.106   6.181 131.548  0.00  0.00    +0.000 C 
ATOM     45  C   UNL     1      -1.720   6.389 130.070  0.00  0.00    +0.000 C 
ATOM     46  C   UNL     1      -0.872   6.452 132.434  0.00  0.00    +0.000 C 
ATOM     47  C   UNL     1      -2.557   4.732 131.750  0.00  0.00    +0.000 C 
ENDBRANCH  43  44
ENDBRANCH  41  43
ENDBRANCH  40  41
ENDBRANCH   6  40
TORSDOF 11
ENDMDL
MODEL 6
REMARK VINA RESULT:      -7.3      1.154      1.486
REMARK  Name = Omadacycline
REMARK  18 active torsions:
REMARK  status: ('A' for Active; 'I' for Inactive)
REMARK    1  A    between atoms: C_5  and  N_40
REMARK    2  A    between atoms: C_7  and  C_8
REMARK    3  A    between atoms: C_8  and  N_9
REMARK    4  A    between atoms: N_9  and  C_10
REMARK    5  A    between atoms: C_10  and  C_11
REMARK    6  A    between atoms: C_11  and  C_12
REMARK    7  A    between atoms: C_11  and  C_13
REMARK    8  A    between atoms: C_11  and  C_14
REMARK    9  A    between atoms: C_15  and  O_16
REMARK   10  A    between atoms: C_21  and  O_22
REMARK   11  A    between atoms: C_23  and  O_24
REMARK   12  A    between atoms: C_27  and  C_28
REMARK   13  A    between atoms: C_31  and  O_32
REMARK   14  A    between atoms: C_33  and  N_34
REMARK   15  A    between atoms: N_34  and  C_35
REMARK   16  A    between atoms: N_34  and  C_36
REMARK   17  A    between atoms: N_40  and  C_41
REMARK   18  A    between atoms: N_40  and  C_42
REMARK                            x       y       z     vdW  Elec       q    Type
REMARK                         _______ _______ _______ _____ _____    ______ ____
ROOT
ATOM      1  C   UNL     1      -5.957   2.374 129.951  0.00  0.00    +0.000 C 
ATOM      2  C   UNL     1      -5.895   0.895 129.905  0.00  0.00    +0.000 C 
ATOM      3  C   UNL     1      -6.687   0.155 128.916  0.00  0.00    +0.000 A 
ATOM      4  C   UNL     1      -7.040  -1.190 129.194  0.00  0.00    +0.000 A 
ATOM      5  C   UNL     1      -7.775  -1.789 128.155  0.00  0.00    +0.000 A 
ATOM      6  C   UNL     1      -8.097  -1.143 126.935  0.00  0.00    +0.000 A 
ATOM      7  C   UNL     1      -7.683   0.179 126.731  0.00  0.00    +0.000 A 
ATOM      8  C   UNL     1      -6.974   0.835 127.711  0.00  0.00    +0.000 A 
ATOM      9  C   UNL     1      -6.501   2.236 127.470  0.00  0.00    +0.000 C 
ATOM     10  O   UNL     1      -6.537   2.786 126.371  0.00  0.00    +0.000 OA
ATOM     11  C   UNL     1      -5.909   2.984 128.608  0.00  0.00    +0.000 C 
ATOM     12  C   UNL     1      -5.347   4.192 128.417  0.00  0.00    +0.000 C 
ATOM     13  C   UNL     1      -4.745   5.005 129.545  0.00  0.00    +0.000 C 
ATOM     14  C   UNL     1      -3.320   5.439 129.271  0.00  0.00    +0.000 C 
ATOM     15  O   UNL     1      -2.605   4.832 128.462  0.00  0.00    +0.000 OA
ATOM     16  C   UNL     1      -2.671   6.384 130.246  0.00  0.00    +0.000 C 
ATOM     17  C   UNL     1      -2.300   5.516 131.188  0.00  0.00    +0.000 C 
ATOM     18  C   UNL     1      -3.618   4.772 131.977  0.00  0.00    +0.000 C 
ATOM     19  C   UNL     1      -4.656   4.250 130.891  0.00  0.00    +0.000 C 
ATOM     20  C   UNL     1      -4.757   2.754 130.841  0.00  0.00    +0.000 C 
ENDROOT
BRANCH  16  21
ATOM     21  C   UNL     1      -3.248   7.388 131.209  0.00  0.00    +0.000 C 
ATOM     22  N   UNL     1      -2.583   7.573 132.419  0.00  0.00    +0.000 N 
ATOM     23  O   UNL     1      -4.337   7.946 131.042  0.00  0.00    +0.000 OA
ATOM     24  H   UNL     1      -1.829   6.941 132.691  0.00  0.00    +0.000 HD
ATOM     25  H   UNL     1      -3.188   7.760 133.211  0.00  0.00    +0.000 HD
ENDBRANCH  16  21
BRANCH  18  26
ATOM     26  N   UNL     1      -4.585   5.255 133.053  0.00  0.00    +0.000 NA
ATOM     27  C   UNL     1      -4.370   5.200 134.537  0.00  0.00    +0.000 C 
ATOM     28  C   UNL     1      -6.002   5.248 132.810  0.00  0.00    +0.000 C 
ENDBRANCH  18  26
BRANCH   4  29
ATOM     29  N   UNL     1      -6.679  -1.882 130.355  0.00  0.00    +0.000 N 
ATOM     30  C   UNL     1      -7.406  -2.001 131.642  0.00  0.00    +0.000 C 
ATOM     31  C   UNL     1      -5.488  -2.737 130.403  0.00  0.00    +0.000 C 
ENDBRANCH   4  29
BRANCH   7  32
ATOM     32  O   UNL     1      -7.963   0.860 125.581  0.00  0.00    +0.000 OA
ATOM     33  H   UNL     1      -8.810   1.332 125.710  0.00  0.00    +0.000 HD
ENDBRANCH   7  32
BRANCH  12  34
ATOM     34  O   UNL     1      -5.354   4.833 127.186  0.00  0.00    +0.000 OA
ATOM     35  H   UNL     1      -6.295   5.070 126.990  0.00  0.00    +0.000 HD
ENDBRANCH  12  34
BRANCH  13  36
ATOM     36  O   UNL     1      -5.607   6.132 129.626  0.00  0.00    +0.000 OA
ATOM     37  H   UNL     1      -6.396   5.897 129.099  0.00  0.00    +0.000 HD
ENDBRANCH  13  36
BRANCH  17  38
ATOM     38  O   UNL     1      -0.989   5.796 131.722  0.00  0.00    +0.000 OA
ATOM     39  H   UNL     1      -1.104   6.054 132.689  0.00  0.00    +0.000 HD
ENDBRANCH  17  38
BRANCH   6  40
ATOM     40  C   UNL     1      -8.866  -1.943 125.908  0.00  0.00    +0.000 C 
BRANCH  40  41
ATOM     41  N   UNL     1      -8.111  -2.017 124.670  0.00  0.00    +0.000 NA
ATOM     42  H   UNL     1      -7.538  -1.164 124.636  0.00  0.00    +0.000 HD
BRANCH  41  43
ATOM     43  C   UNL     1      -7.223  -3.154 124.591  0.00  0.00    +0.000 C 
BRANCH  43  44
ATOM     44  C   UNL     1      -5.897  -2.707 123.932  0.00  0.00    +0.000 C 
ATOM     45  C   UNL     1      -4.925  -3.894 123.788  0.00  0.00    +0.000 C 
ATOM     46  C   UNL     1      -6.147  -2.088 122.541  0.00  0.00    +0.000 C 
ATOM     47  C   UNL     1      -5.266  -1.650 124.842  0.00  0.00    +0.000 C 
ENDBRANCH  43  44
ENDBRANCH  41  43
ENDBRANCH  40  41
ENDBRANCH   6  40
TORSDOF 11
ENDMDL
MODEL 7
REMARK VINA RESULT:      -7.2      2.121      2.937
REMARK  Name = Omadacycline
REMARK  18 active torsions:
REMARK  status: ('A' for Active; 'I' for Inactive)
REMARK    1  A    between atoms: C_5  and  N_40
REMARK    2  A    between atoms: C_7  and  C_8
REMARK    3  A    between atoms: C_8  and  N_9
REMARK    4  A    between atoms: N_9  and  C_10
REMARK    5  A    between atoms: C_10  and  C_11
REMARK    6  A    between atoms: C_11  and  C_12
REMARK    7  A    between atoms: C_11  and  C_13
REMARK    8  A    between atoms: C_11  and  C_14
REMARK    9  A    between atoms: C_15  and  O_16
REMARK   10  A    between atoms: C_21  and  O_22
REMARK   11  A    between atoms: C_23  and  O_24
REMARK   12  A    between atoms: C_27  and  C_28
REMARK   13  A    between atoms: C_31  and  O_32
REMARK   14  A    between atoms: C_33  and  N_34
REMARK   15  A    between atoms: N_34  and  C_35
REMARK   16  A    between atoms: N_34  and  C_36
REMARK   17  A    between atoms: N_40  and  C_41
REMARK   18  A    between atoms: N_40  and  C_42
REMARK                            x       y       z     vdW  Elec       q    Type
REMARK                         _______ _______ _______ _____ _____    ______ ____
ROOT
ATOM      1  C   UNL     1      -7.122   1.305 129.158  0.00  0.00    +0.000 C 
ATOM      2  C   UNL     1      -6.122   0.221 129.016  0.00  0.00    +0.000 C 
ATOM      3  C   UNL     1      -5.943  -0.453 127.725  0.00  0.00    +0.000 A 
ATOM      4  C   UNL     1      -5.417  -1.770 127.710  0.00  0.00    +0.000 A 
ATOM      5  C   UNL     1      -5.274  -2.287 126.410  0.00  0.00    +0.000 A 
ATOM      6  C   UNL     1      -5.577  -1.565 125.230  0.00  0.00    +0.000 A 
ATOM      7  C   UNL     1      -6.065  -0.257 125.334  0.00  0.00    +0.000 A 
ATOM      8  C   UNL     1      -6.247   0.311 126.575  0.00  0.00    +0.000 A 
ATOM      9  C   UNL     1      -6.732   1.724 126.678  0.00  0.00    +0.000 C 
ATOM     10  O   UNL     1      -6.803   2.491 125.720  0.00  0.00    +0.000 OA
ATOM     11  C   UNL     1      -7.102   2.245 128.020  0.00  0.00    +0.000 C 
ATOM     12  C   UNL     1      -7.415   3.542 128.190  0.00  0.00    +0.000 C 
ATOM     13  C   UNL     1      -7.815   4.122 129.532  0.00  0.00    +0.000 C 
ATOM     14  C   UNL     1      -6.991   5.329 129.928  0.00  0.00    +0.000 C 
ATOM     15  O   UNL     1      -5.865   5.527 129.451  0.00  0.00    +0.000 OA
ATOM     16  C   UNL     1      -7.399   6.086 131.163  0.00  0.00    +0.000 C 
ATOM     17  C   UNL     1      -6.842   5.312 132.095  0.00  0.00    +0.000 C 
ATOM     18  C   UNL     1      -7.534   3.755 132.182  0.00  0.00    +0.000 C 
ATOM     19  C   UNL     1      -7.645   3.145 130.717  0.00  0.00    +0.000 C 
ATOM     20  C   UNL     1      -6.750   1.960 130.502  0.00  0.00    +0.000 C 
ENDROOT
BRANCH  16  21
ATOM     21  C   UNL     1      -8.722   6.217 131.870  0.00  0.00    +0.000 C 
ATOM     22  N   UNL     1      -9.868   6.297 131.081  0.00  0.00    +0.000 N 
ATOM     23  O   UNL     1      -8.830   6.392 133.088  0.00  0.00    +0.000 OA
ATOM     24  H   UNL     1      -9.787   6.415 130.071  0.00  0.00    +0.000 HD
ATOM     25  H   UNL     1     -10.593   6.902 131.448  0.00  0.00    +0.000 HD
ENDBRANCH  16  21
BRANCH  18  26
ATOM     26  N   UNL     1      -8.837   3.235 132.781  0.00  0.00    +0.000 NA
ATOM     27  C   UNL     1     -10.046   2.770 132.022  0.00  0.00    +0.000 C 
ATOM     28  C   UNL     1      -9.273   3.686 134.075  0.00  0.00    +0.000 C 
ENDBRANCH  18  26
BRANCH   4  29
ATOM     29  N   UNL     1      -5.040  -2.487 128.851  0.00  0.00    +0.000 N 
ATOM     30  C   UNL     1      -3.741  -2.501 129.565  0.00  0.00    +0.000 C 
ATOM     31  C   UNL     1      -6.004  -3.296 129.605  0.00  0.00    +0.000 C 
ENDBRANCH   4  29
BRANCH   7  32
ATOM     32  O   UNL     1      -6.379   0.493 124.237  0.00  0.00    +0.000 OA
ATOM     33  H   UNL     1      -5.716   1.207 124.160  0.00  0.00    +0.000 HD
ENDBRANCH   7  32
BRANCH  12  34
ATOM     34  O   UNL     1      -7.485   4.438 127.132  0.00  0.00    +0.000 OA
ATOM     35  H   UNL     1      -6.953   5.232 127.391  0.00  0.00    +0.000 HD
ENDBRANCH  12  34
BRANCH  13  36
ATOM     36  O   UNL     1      -9.175   4.483 129.334  0.00  0.00    +0.000 OA
ATOM     37  H   UNL     1      -9.699   3.780 129.766  0.00  0.00    +0.000 HD
ENDBRANCH  13  36
BRANCH  17  38
ATOM     38  O   UNL     1      -6.228   6.071 133.157  0.00  0.00    +0.000 OA
ATOM     39  H   UNL     1      -5.270   6.242 132.894  0.00  0.00    +0.000 HD
ENDBRANCH  17  38
BRANCH   6  40
ATOM     40  C   UNL     1      -5.333  -2.259 123.909  0.00  0.00    +0.000 C 
BRANCH  40  41
ATOM     41  N   UNL     1      -6.590  -2.455 123.210  0.00  0.00    +0.000 NA
ATOM     42  H   UNL     1      -6.348  -2.877 122.304  0.00  0.00    +0.000 HD
BRANCH  41  43
ATOM     43  C   UNL     1      -7.505  -3.345 123.887  0.00  0.00    +0.000 C 
BRANCH  43  44
ATOM     44  C   UNL     1      -8.887  -2.659 123.986  0.00  0.00    +0.000 C 
ATOM     45  C   UNL     1      -9.241  -2.342 125.453  0.00  0.00    +0.000 C 
ATOM     46  C   UNL     1      -8.921  -1.353 123.166  0.00  0.00    +0.000 C 
ATOM     47  C   UNL     1      -9.924  -3.632 123.419  0.00  0.00    +0.000 C 
ENDBRANCH  43  44
ENDBRANCH  41  43
ENDBRANCH  40  41
ENDBRANCH   6  40
TORSDOF 11
ENDMDL
MODEL 8
REMARK VINA RESULT:      -7.2      5.849      9.288
REMARK  Name = Omadacycline
REMARK  18 active torsions:
REMARK  status: ('A' for Active; 'I' for Inactive)
REMARK    1  A    between atoms: C_5  and  N_40
REMARK    2  A    between atoms: C_7  and  C_8
REMARK    3  A    between atoms: C_8  and  N_9
REMARK    4  A    between atoms: N_9  and  C_10
REMARK    5  A    between atoms: C_10  and  C_11
REMARK    6  A    between atoms: C_11  and  C_12
REMARK    7  A    between atoms: C_11  and  C_13
REMARK    8  A    between atoms: C_11  and  C_14
REMARK    9  A    between atoms: C_15  and  O_16
REMARK   10  A    between atoms: C_21  and  O_22
REMARK   11  A    between atoms: C_23  and  O_24
REMARK   12  A    between atoms: C_27  and  C_28
REMARK   13  A    between atoms: C_31  and  O_32
REMARK   14  A    between atoms: C_33  and  N_34
REMARK   15  A    between atoms: N_34  and  C_35
REMARK   16  A    between atoms: N_34  and  C_36
REMARK   17  A    between atoms: N_40  and  C_41
REMARK   18  A    between atoms: N_40  and  C_42
REMARK                            x       y       z     vdW  Elec       q    Type
REMARK                         _______ _______ _______ _____ _____    ______ ____
ROOT
ATOM      1  C   UNL     1      -6.514   1.611 133.401  0.00  0.00    +0.000 C 
ATOM      2  C   UNL     1      -6.937   2.812 134.158  0.00  0.00    +0.000 C 
ATOM      3  C   UNL     1      -7.886   3.760 133.565  0.00  0.00    +0.000 A 
ATOM      4  C   UNL     1      -7.881   5.104 134.019  0.00  0.00    +0.000 A 
ATOM      5  C   UNL     1      -8.854   5.899 133.388  0.00  0.00    +0.000 A 
ATOM      6  C   UNL     1      -9.778   5.412 132.429  0.00  0.00    +0.000 A 
ATOM      7  C   UNL     1      -9.732   4.064 132.059  0.00  0.00    +0.000 A 
ATOM      8  C   UNL     1      -8.795   3.228 132.623  0.00  0.00    +0.000 A 
ATOM      9  C   UNL     1      -8.778   1.777 132.251  0.00  0.00    +0.000 C 
ATOM     10  O   UNL     1      -9.671   1.228 131.610  0.00  0.00    +0.000 OA
ATOM     11  C   UNL     1      -7.643   0.943 132.724  0.00  0.00    +0.000 C 
ATOM     12  C   UNL     1      -7.644  -0.389 132.533  0.00  0.00    +0.000 C 
ATOM     13  C   UNL     1      -6.505  -1.284 132.980  0.00  0.00    +0.000 C 
ATOM     14  C   UNL     1      -6.962  -2.440 133.845  0.00  0.00    +0.000 C 
ATOM     15  O   UNL     1      -8.030  -2.396 134.471  0.00  0.00    +0.000 OA
ATOM     16  C   UNL     1      -5.945  -3.485 134.217  0.00  0.00    +0.000 C 
ATOM     17  C   UNL     1      -5.349  -2.866 135.237  0.00  0.00    +0.000 C 
ATOM     18  C   UNL     1      -4.506  -1.457 134.772  0.00  0.00    +0.000 C 
ATOM     19  C   UNL     1      -5.440  -0.568 133.841  0.00  0.00    +0.000 C 
ATOM     20  C   UNL     1      -5.836   0.734 134.472  0.00  0.00    +0.000 C 
ENDROOT
BRANCH  16  21
ATOM     21  C   UNL     1      -4.664  -3.921 133.558  0.00  0.00    +0.000 C 
ATOM     22  N   UNL     1      -4.568  -3.769 132.176  0.00  0.00    +0.000 N 
ATOM     23  O   UNL     1      -3.762  -4.522 134.150  0.00  0.00    +0.000 OA
ATOM     24  H   UNL     1      -5.392  -3.515 131.630  0.00  0.00    +0.000 HD
ATOM     25  H   UNL     1      -4.045  -4.498 131.705  0.00  0.00    +0.000 HD
ENDBRANCH  16  21
BRANCH  18  26
ATOM     26  N   UNL     1      -3.163  -1.236 134.083  0.00  0.00    +0.000 NA
ATOM     27  C   UNL     1      -1.808  -1.555 134.644  0.00  0.00    +0.000 C 
ATOM     28  C   UNL     1      -3.007  -0.178 133.121  0.00  0.00    +0.000 C 
ENDBRANCH  18  26
BRANCH   4  29
ATOM     29  N   UNL     1      -7.032   5.603 135.014  0.00  0.00    +0.000 N 
ATOM     30  C   UNL     1      -5.604   5.990 134.921  0.00  0.00    +0.000 C 
ATOM     31  C   UNL     1      -7.527   5.935 136.354  0.00  0.00    +0.000 C 
ENDBRANCH   4  29
BRANCH   7  32
ATOM     32  O   UNL     1     -10.591   3.532 131.139  0.00  0.00    +0.000 OA
ATOM     33  H   UNL     1     -10.936   4.264 130.591  0.00  0.00    +0.000 HD
ENDBRANCH   7  32
BRANCH  12  34
ATOM     34  O   UNL     1      -8.647  -1.042 131.831  0.00  0.00    +0.000 OA
ATOM     35  H   UNL     1      -9.435  -0.442 131.828  0.00  0.00    +0.000 HD
ENDBRANCH  12  34
BRANCH  13  36
ATOM     36  O   UNL     1      -5.966  -1.755 131.753  0.00  0.00    +0.000 OA
ATOM     37  H   UNL     1      -6.707  -1.737 131.116  0.00  0.00    +0.000 HD
ENDBRANCH  13  36
BRANCH  17  38
ATOM     38  O   UNL     1      -5.055  -3.753 136.336  0.00  0.00    +0.000 OA
ATOM     39  H   UNL     1      -5.917  -4.202 136.603  0.00  0.00    +0.000 HD
ENDBRANCH  17  38
BRANCH   6  40
ATOM     40  C   UNL     1     -10.783   6.396 131.872  0.00  0.00    +0.000 C 
BRANCH  40  41
ATOM     41  N   UNL     1     -10.662   6.464 130.427  0.00  0.00    +0.000 NA
ATOM     42  H   UNL     1     -10.167   5.609 130.143  0.00  0.00    +0.000 HD
BRANCH  41  43
ATOM     43  C   UNL     1     -11.929   6.497 129.733  0.00  0.00    +0.000 C 
BRANCH  43  44
ATOM     44  C   UNL     1     -11.961   7.735 128.808  0.00  0.00    +0.000 C 
ATOM     45  C   UNL     1     -10.533   8.183 128.438  0.00  0.00    +0.000 C 
ATOM     46  C   UNL     1     -12.748   7.444 127.514  0.00  0.00    +0.000 C 
ATOM     47  C   UNL     1     -12.658   8.863 129.574  0.00  0.00    +0.000 C 
ENDBRANCH  43  44
ENDBRANCH  41  43
ENDBRANCH  40  41
ENDBRANCH   6  40
TORSDOF 11
ENDMDL
MODEL 9
REMARK VINA RESULT:      -7.0      2.587      9.158
REMARK  Name = Omadacycline
REMARK  18 active torsions:
REMARK  status: ('A' for Active; 'I' for Inactive)
REMARK    1  A    between atoms: C_5  and  N_40
REMARK    2  A    between atoms: C_7  and  C_8
REMARK    3  A    between atoms: C_8  and  N_9
REMARK    4  A    between atoms: N_9  and  C_10
REMARK    5  A    between atoms: C_10  and  C_11
REMARK    6  A    between atoms: C_11  and  C_12
REMARK    7  A    between atoms: C_11  and  C_13
REMARK    8  A    between atoms: C_11  and  C_14
REMARK    9  A    between atoms: C_15  and  O_16
REMARK   10  A    between atoms: C_21  and  O_22
REMARK   11  A    between atoms: C_23  and  O_24
REMARK   12  A    between atoms: C_27  and  C_28
REMARK   13  A    between atoms: C_31  and  O_32
REMARK   14  A    between atoms: C_33  and  N_34
REMARK   15  A    between atoms: N_34  and  C_35
REMARK   16  A    between atoms: N_34  and  C_36
REMARK   17  A    between atoms: N_40  and  C_41
REMARK   18  A    between atoms: N_40  and  C_42
REMARK                            x       y       z     vdW  Elec       q    Type
REMARK                         _______ _______ _______ _____ _____    ______ ____
ROOT
ATOM      1  C   UNL     1      -6.987   2.410 128.720  0.00  0.00    +0.000 C 
ATOM      2  C   UNL     1      -7.444   2.794 130.075  0.00  0.00    +0.000 C 
ATOM      3  C   UNL     1      -6.615   3.667 130.914  0.00  0.00    +0.000 A 
ATOM      4  C   UNL     1      -6.767   3.605 132.322  0.00  0.00    +0.000 A 
ATOM      5  C   UNL     1      -5.933   4.509 133.003  0.00  0.00    +0.000 A 
ATOM      6  C   UNL     1      -5.059   5.421 132.362  0.00  0.00    +0.000 A 
ATOM      7  C   UNL     1      -4.992   5.436 130.964  0.00  0.00    +0.000 A 
ATOM      8  C   UNL     1      -5.768   4.568 130.230  0.00  0.00    +0.000 A 
ATOM      9  C   UNL     1      -5.719   4.616 128.733  0.00  0.00    +0.000 C 
ATOM     10  O   UNL     1      -5.170   5.514 128.099  0.00  0.00    +0.000 OA
ATOM     11  C   UNL     1      -6.416   3.547 127.972  0.00  0.00    +0.000 C 
ATOM     12  C   UNL     1      -6.518   3.614 126.633  0.00  0.00    +0.000 C 
ATOM     13  C   UNL     1      -7.202   2.544 125.806  0.00  0.00    +0.000 C 
ATOM     14  C   UNL     1      -8.274   3.095 124.888  0.00  0.00    +0.000 C 
ATOM     15  O   UNL     1      -8.824   4.181 125.117  0.00  0.00    +0.000 OA
ATOM     16  C   UNL     1      -8.912   2.152 123.905  0.00  0.00    +0.000 C 
ATOM     17  C   UNL     1      -9.801   1.561 124.705  0.00  0.00    +0.000 C 
ATOM     18  C   UNL     1      -9.083   0.625 125.938  0.00  0.00    +0.000 C 
ATOM     19  C   UNL     1      -7.938   1.473 126.644  0.00  0.00    +0.000 C 
ATOM     20  C   UNL     1      -8.253   1.821 128.069  0.00  0.00    +0.000 C 
ENDROOT
BRANCH  16  21
ATOM     21  C   UNL     1      -8.425   0.872 123.278  0.00  0.00    +0.000 C 
ATOM     22  N   UNL     1      -9.376  -0.106 122.993  0.00  0.00    +0.000 N 
ATOM     23  O   UNL     1      -7.231   0.596 123.130  0.00  0.00    +0.000 OA
ATOM     24  H   UNL     1     -10.331  -0.009 123.340  0.00  0.00    +0.000 HD
ATOM     25  H   UNL     1      -9.053  -1.059 123.117  0.00  0.00    +0.000 HD
ENDBRANCH  16  21
BRANCH  18  26
ATOM     26  N   UNL     1      -8.429  -0.753 125.942  0.00  0.00    +0.000 NA
ATOM     27  C   UNL     1      -9.134  -2.077 125.939  0.00  0.00    +0.000 C 
ATOM     28  C   UNL     1      -7.137  -0.940 126.545  0.00  0.00    +0.000 C 
ENDBRANCH  18  26
BRANCH   4  29
ATOM     29  N   UNL     1      -7.670   2.767 132.987  0.00  0.00    +0.000 N 
ATOM     30  C   UNL     1      -9.092   3.005 133.333  0.00  0.00    +0.000 C 
ATOM     31  C   UNL     1      -7.317   1.392 133.354  0.00  0.00    +0.000 C 
ENDBRANCH   4  29
BRANCH   7  32
ATOM     32  O   UNL     1      -4.169   6.288 130.283  0.00  0.00    +0.000 OA
ATOM     33  H   UNL     1      -4.392   6.227 129.333  0.00  0.00    +0.000 HD
ENDBRANCH   7  32
BRANCH  12  34
ATOM     34  O   UNL     1      -5.926   4.625 125.888  0.00  0.00    +0.000 OA
ATOM     35  H   UNL     1      -5.223   5.028 126.457  0.00  0.00    +0.000 HD
ENDBRANCH  12  34
BRANCH  13  36
ATOM     36  O   UNL     1      -6.134   1.986 125.054  0.00  0.00    +0.000 OA
ATOM     37  H   UNL     1      -5.319   2.380 125.423  0.00  0.00    +0.000 HD
ENDBRANCH  13  36
BRANCH  17  38
ATOM     38  O   UNL     1     -11.079   1.357 124.066  0.00  0.00    +0.000 OA
ATOM     39  H   UNL     1     -11.742   1.111 124.785  0.00  0.00    +0.000 HD
ENDBRANCH  17  38
BRANCH   6  40
ATOM     40  C   UNL     1      -4.255   6.349 133.244  0.00  0.00    +0.000 C 
BRANCH  40  41
ATOM     41  N   UNL     1      -2.868   6.369 132.812  0.00  0.00    +0.000 NA
ATOM     42  H   UNL     1      -2.727   7.279 132.355  0.00  0.00    +0.000 HD
BRANCH  41  43
ATOM     43  C   UNL     1      -1.916   6.260 133.893  0.00  0.00    +0.000 C 
BRANCH  43  44
ATOM     44  C   UNL     1      -1.250   7.638 134.112  0.00  0.00    +0.000 C 
ATOM     45  C   UNL     1       0.276   7.494 134.274  0.00  0.00    +0.000 C 
ATOM     46  C   UNL     1      -1.544   8.592 132.936  0.00  0.00    +0.000 C 
ATOM     47  C   UNL     1      -1.837   8.232 135.395  0.00  0.00    +0.000 C 
ENDBRANCH  43  44
ENDBRANCH  41  43
ENDBRANCH  40  41
ENDBRANCH   6  40
TORSDOF 11
ENDMDL
