MODEL 1
REMARK VINA RESULT:      -7.8      0.000      0.000
REMARK  Name = Omeprazole
REMARK  9 active torsions:
REMARK  status: ('A' for Active; 'I' for Inactive)
REMARK    1  A    between atoms: C_1  and  O_2
REMARK    2  A    between atoms: O_2  and  C_3
REMARK    3  A    between atoms: C_10  and  S_12
REMARK    4  A    between atoms: S_12  and  C_14
REMARK    5  A    between atoms: C_14  and  C_15
REMARK    6  A    between atoms: C_18  and  C_19
REMARK    7  A    between atoms: C_20  and  O_21
REMARK    8  A    between atoms: O_21  and  C_22
REMARK    9  A    between atoms: C_23  and  C_24
REMARK                            x       y       z     vdW  Elec       q    Type
REMARK                         _______ _______ _______ _____ _____    ______ ____
ROOT
ATOM      1  S   UNL     1      -9.641   0.670 122.635  0.00  0.00    +0.000 S 
ATOM      2  O   UNL     1     -11.113   0.414 122.796  0.00  0.00    +0.000 OA
ENDROOT
BRANCH   1  10
ATOM      3  C   UNL     1      -7.963  -2.227 127.859  0.00  0.00    +0.000 A 
ATOM      4  C   UNL     1      -7.857  -0.962 127.265  0.00  0.00    +0.000 A 
ATOM      5  C   UNL     1      -8.409  -0.821 126.000  0.00  0.00    +0.000 A 
ATOM      6  C   UNL     1      -9.066  -1.860 125.351  0.00  0.00    +0.000 A 
ATOM      7  C   UNL     1      -9.228  -3.099 125.975  0.00  0.00    +0.000 A 
ATOM      8  C   UNL     1      -8.657  -3.272 127.237  0.00  0.00    +0.000 A 
ATOM      9  N   UNL     1      -9.463  -1.474 124.118  0.00  0.00    +0.000 NA
ATOM     10  C   UNL     1      -9.087  -0.212 123.997  0.00  0.00    +0.000 A 
ATOM     11  N   UNL     1      -8.479   0.233 125.125  0.00  0.00    +0.000 N 
ATOM     12  H   UNL     1      -8.190   1.185 125.321  0.00  0.00    +0.000 HD
BRANCH   3  14
ATOM     13  C   UNL     1      -7.132  -1.071 129.724  0.00  0.00    +0.000 C 
ATOM     14  O   UNL     1      -7.407  -2.324 129.106  0.00  0.00    +0.000 OA
ENDBRANCH   3  14
ENDBRANCH   1  10
BRANCH   1  15
ATOM     15  C   UNL     1      -9.271   2.434 122.942  0.00  0.00    +0.000 C 
BRANCH  15  16
ATOM     16  C   UNL     1      -8.389   3.097 121.870  0.00  0.00    +0.000 A 
ATOM     17  N   UNL     1      -9.036   3.551 120.764  0.00  0.00    +0.000 NA
ATOM     18  C   UNL     1      -8.292   4.160 119.797  0.00  0.00    +0.000 A 
ATOM     19  C   UNL     1      -6.912   4.358 119.832  0.00  0.00    +0.000 A 
ATOM     20  C   UNL     1      -6.259   5.104 118.714  0.00  0.00    +0.000 C 
ATOM     21  C   UNL     1      -6.247   3.857 120.944  0.00  0.00    +0.000 A 
ATOM     22  C   UNL     1      -6.987   3.209 121.958  0.00  0.00    +0.000 A 
ATOM     23  C   UNL     1      -6.234   2.763 123.173  0.00  0.00    +0.000 C 
BRANCH  21  24
ATOM     24  O   UNL     1      -4.913   3.920 121.238  0.00  0.00    +0.000 OA
ATOM     25  C   UNL     1      -4.299   5.081 121.742  0.00  0.00    +0.000 C 
ENDBRANCH  21  24
ENDBRANCH  15  16
ENDBRANCH   1  15
TORSDOF 5
ENDMDL
MODEL 2
REMARK VINA RESULT:      -7.6      8.233     10.347
REMARK  Name = Omeprazole
REMARK  9 active torsions:
REMARK  status: ('A' for Active; 'I' for Inactive)
REMARK    1  A    between atoms: C_1  and  O_2
REMARK    2  A    between atoms: O_2  and  C_3
REMARK    3  A    between atoms: C_10  and  S_12
REMARK    4  A    between atoms: S_12  and  C_14
REMARK    5  A    between atoms: C_14  and  C_15
REMARK    6  A    between atoms: C_18  and  C_19
REMARK    7  A    between atoms: C_20  and  O_21
REMARK    8  A    between atoms: O_21  and  C_22
REMARK    9  A    between atoms: C_23  and  C_24
REMARK                            x       y       z     vdW  Elec       q    Type
REMARK                         _______ _______ _______ _____ _____    ______ ____
ROOT
ATOM      1  S   UNL     1     -10.130   3.499 130.821  0.00  0.00    +0.000 S 
ATOM      2  O   UNL     1      -9.580   3.254 129.444  0.00  0.00    +0.000 OA
ENDROOT
BRANCH   1  10
ATOM      3  C   UNL     1     -12.794   9.041 129.995  0.00  0.00    +0.000 A 
ATOM      4  C   UNL     1     -12.654   8.069 130.995  0.00  0.00    +0.000 A 
ATOM      5  C   UNL     1     -11.942   6.926 130.655  0.00  0.00    +0.000 A 
ATOM      6  C   UNL     1     -11.364   6.751 129.403  0.00  0.00    +0.000 A 
ATOM      7  C   UNL     1     -11.451   7.752 128.433  0.00  0.00    +0.000 A 
ATOM      8  C   UNL     1     -12.184   8.898 128.743  0.00  0.00    +0.000 A 
ATOM      9  N   UNL     1     -10.777   5.537 129.319  0.00  0.00    +0.000 NA
ATOM     10  C   UNL     1     -10.957   4.965 130.498  0.00  0.00    +0.000 A 
ATOM     11  N   UNL     1     -11.625   5.786 131.347  0.00  0.00    +0.000 N 
ATOM     12  H   UNL     1     -11.800   5.623 132.332  0.00  0.00    +0.000 HD
BRANCH   3  14
ATOM     13  C   UNL     1     -13.760  11.067 129.312  0.00  0.00    +0.000 C 
ATOM     14  O   UNL     1     -13.500  10.152 130.371  0.00  0.00    +0.000 OA
ENDBRANCH   3  14
ENDBRANCH   1  10
BRANCH   1  15
ATOM     15  C   UNL     1      -8.773   3.885 131.983  0.00  0.00    +0.000 C 
BRANCH  15  16
ATOM     16  C   UNL     1      -7.409   4.133 131.313  0.00  0.00    +0.000 A 
ATOM     17  N   UNL     1      -6.632   3.035 131.120  0.00  0.00    +0.000 NA
ATOM     18  C   UNL     1      -5.424   3.209 130.515  0.00  0.00    +0.000 A 
ATOM     19  C   UNL     1      -4.899   4.425 130.075  0.00  0.00    +0.000 A 
ATOM     20  C   UNL     1      -3.581   4.432 129.370  0.00  0.00    +0.000 C 
ATOM     21  C   UNL     1      -5.677   5.551 130.310  0.00  0.00    +0.000 A 
ATOM     22  C   UNL     1      -6.929   5.406 130.947  0.00  0.00    +0.000 A 
ATOM     23  C   UNL     1      -7.764   6.639 131.101  0.00  0.00    +0.000 C 
BRANCH  21  24
ATOM     24  O   UNL     1      -5.414   6.851 129.978  0.00  0.00    +0.000 OA
ATOM     25  C   UNL     1      -4.376   7.594 130.570  0.00  0.00    +0.000 C 
ENDBRANCH  21  24
ENDBRANCH  15  16
ENDBRANCH   1  15
TORSDOF 5
ENDMDL
MODEL 3
REMARK VINA RESULT:      -7.1      2.236      8.222
REMARK  Name = Omeprazole
REMARK  9 active torsions:
REMARK  status: ('A' for Active; 'I' for Inactive)
REMARK    1  A    between atoms: C_1  and  O_2
REMARK    2  A    between atoms: O_2  and  C_3
REMARK    3  A    between atoms: C_10  and  S_12
REMARK    4  A    between atoms: S_12  and  C_14
REMARK    5  A    between atoms: C_14  and  C_15
REMARK    6  A    between atoms: C_18  and  C_19
REMARK    7  A    between atoms: C_20  and  O_21
REMARK    8  A    between atoms: O_21  and  C_22
REMARK    9  A    between atoms: C_23  and  C_24
REMARK                            x       y       z     vdW  Elec       q    Type
REMARK                         _______ _______ _______ _____ _____    ______ ____
ROOT
ATOM      1  S   UNL     1      -8.011   2.379 126.199  0.00  0.00    +0.000 S 
ATOM      2  O   UNL     1      -9.269   1.659 125.804  0.00  0.00    +0.000 OA
ENDROOT
BRANCH   1  10
ATOM      3  C   UNL     1      -6.224   4.279 120.570  0.00  0.00    +0.000 A 
ATOM      4  C   UNL     1      -5.679   4.080 121.846  0.00  0.00    +0.000 A 
ATOM      5  C   UNL     1      -6.551   3.640 122.832  0.00  0.00    +0.000 A 
ATOM      6  C   UNL     1      -7.892   3.374 122.580  0.00  0.00    +0.000 A 
ATOM      7  C   UNL     1      -8.414   3.510 121.291  0.00  0.00    +0.000 A 
ATOM      8  C   UNL     1      -7.562   3.977 120.289  0.00  0.00    +0.000 A 
ATOM      9  N   UNL     1      -8.525   3.010 123.716  0.00  0.00    +0.000 NA
ATOM     10  C   UNL     1      -7.602   3.021 124.664  0.00  0.00    +0.000 A 
ATOM     11  N   UNL     1      -6.388   3.361 124.165  0.00  0.00    +0.000 N 
ATOM     12  H   UNL     1      -5.504   3.346 124.662  0.00  0.00    +0.000 HD
BRANCH   3  14
ATOM     13  C   UNL     1      -5.887   5.590 118.653  0.00  0.00    +0.000 C 
ATOM     14  O   UNL     1      -5.331   4.712 119.627  0.00  0.00    +0.000 OA
ENDBRANCH   3  14
ENDBRANCH   1  10
BRANCH   1  15
ATOM     15  C   UNL     1      -6.711   1.174 126.648  0.00  0.00    +0.000 C 
BRANCH  15  16
ATOM     16  C   UNL     1      -7.220  -0.260 126.880  0.00  0.00    +0.000 A 
ATOM     17  N   UNL     1      -7.506  -0.590 128.167  0.00  0.00    +0.000 NA
ATOM     18  C   UNL     1      -7.975  -1.846 128.412  0.00  0.00    +0.000 A 
ATOM     19  C   UNL     1      -8.187  -2.839 127.456  0.00  0.00    +0.000 A 
ATOM     20  C   UNL     1      -8.770  -4.146 127.887  0.00  0.00    +0.000 C 
ATOM     21  C   UNL     1      -7.855  -2.513 126.147  0.00  0.00    +0.000 A 
ATOM     22  C   UNL     1      -7.354  -1.224 125.861  0.00  0.00    +0.000 A 
ATOM     23  C   UNL     1      -7.092  -0.897 124.424  0.00  0.00    +0.000 C 
BRANCH  21  24
ATOM     24  O   UNL     1      -7.971  -3.284 125.023  0.00  0.00    +0.000 OA
ATOM     25  C   UNL     1      -9.193  -3.475 124.352  0.00  0.00    +0.000 C 
ENDBRANCH  21  24
ENDBRANCH  15  16
ENDBRANCH   1  15
TORSDOF 5
ENDMDL
MODEL 4
REMARK VINA RESULT:      -7.1      8.102     10.066
REMARK  Name = Omeprazole
REMARK  9 active torsions:
REMARK  status: ('A' for Active; 'I' for Inactive)
REMARK    1  A    between atoms: C_1  and  O_2
REMARK    2  A    between atoms: O_2  and  C_3
REMARK    3  A    between atoms: C_10  and  S_12
REMARK    4  A    between atoms: S_12  and  C_14
REMARK    5  A    between atoms: C_14  and  C_15
REMARK    6  A    between atoms: C_18  and  C_19
REMARK    7  A    between atoms: C_20  and  O_21
REMARK    8  A    between atoms: O_21  and  C_22
REMARK    9  A    between atoms: C_23  and  C_24
REMARK                            x       y       z     vdW  Elec       q    Type
REMARK                         _______ _______ _______ _____ _____    ______ ____
ROOT
ATOM      1  S   UNL     1      -6.989   5.561 132.736  0.00  0.00    +0.000 S 
ATOM      2  O   UNL     1      -7.739   4.849 133.826  0.00  0.00    +0.000 OA
ENDROOT
BRANCH   1  10
ATOM      3  C   UNL     1     -11.775   7.793 129.479  0.00  0.00    +0.000 A 
ATOM      4  C   UNL     1     -10.380   7.699 129.386  0.00  0.00    +0.000 A 
ATOM      5  C   UNL     1      -9.726   7.094 130.451  0.00  0.00    +0.000 A 
ATOM      6  C   UNL     1     -10.405   6.574 131.547  0.00  0.00    +0.000 A 
ATOM      7  C   UNL     1     -11.801   6.610 131.602  0.00  0.00    +0.000 A 
ATOM      8  C   UNL     1     -12.478   7.238 130.555  0.00  0.00    +0.000 A 
ATOM      9  N   UNL     1      -9.533   6.089 132.458  0.00  0.00    +0.000 NA
ATOM     10  C   UNL     1      -8.330   6.276 131.942  0.00  0.00    +0.000 A 
ATOM     11  N   UNL     1      -8.403   6.847 130.714  0.00  0.00    +0.000 N 
ATOM     12  H   UNL     1      -7.633   7.003 130.073  0.00  0.00    +0.000 HD
BRANCH   3  14
ATOM     13  C   UNL     1     -13.566   7.742 127.963  0.00  0.00    +0.000 C 
ATOM     14  O   UNL     1     -12.381   8.394 128.409  0.00  0.00    +0.000 OA
ENDBRANCH   3  14
ENDBRANCH   1  10
BRANCH   1  15
ATOM     15  C   UNL     1      -6.257   4.349 131.579  0.00  0.00    +0.000 C 
BRANCH  15  16
ATOM     16  C   UNL     1      -5.190   4.931 130.635  0.00  0.00    +0.000 A 
ATOM     17  N   UNL     1      -5.120   6.287 130.580  0.00  0.00    +0.000 NA
ATOM     18  C   UNL     1      -4.178   6.842 129.766  0.00  0.00    +0.000 A 
ATOM     19  C   UNL     1      -3.271   6.142 128.970  0.00  0.00    +0.000 A 
ATOM     20  C   UNL     1      -2.257   6.908 128.183  0.00  0.00    +0.000 C 
ATOM     21  C   UNL     1      -3.372   4.757 128.997  0.00  0.00    +0.000 A 
ATOM     22  C   UNL     1      -4.347   4.150 129.819  0.00  0.00    +0.000 A 
ATOM     23  C   UNL     1      -4.358   2.654 129.874  0.00  0.00    +0.000 C 
BRANCH  21  24
ATOM     24  O   UNL     1      -2.613   3.836 128.330  0.00  0.00    +0.000 OA
ATOM     25  C   UNL     1      -2.645   3.690 126.931  0.00  0.00    +0.000 C 
ENDBRANCH  21  24
ENDBRANCH  15  16
ENDBRANCH   1  15
TORSDOF 5
ENDMDL
MODEL 5
REMARK VINA RESULT:      -7.1      8.396     10.211
REMARK  Name = Omeprazole
REMARK  9 active torsions:
REMARK  status: ('A' for Active; 'I' for Inactive)
REMARK    1  A    between atoms: C_1  and  O_2
REMARK    2  A    between atoms: O_2  and  C_3
REMARK    3  A    between atoms: C_10  and  S_12
REMARK    4  A    between atoms: S_12  and  C_14
REMARK    5  A    between atoms: C_14  and  C_15
REMARK    6  A    between atoms: C_18  and  C_19
REMARK    7  A    between atoms: C_20  and  O_21
REMARK    8  A    between atoms: O_21  and  C_22
REMARK    9  A    between atoms: C_23  and  C_24
REMARK                            x       y       z     vdW  Elec       q    Type
REMARK                         _______ _______ _______ _____ _____    ______ ____
ROOT
ATOM      1  S   UNL     1      -9.314   4.984 132.665  0.00  0.00    +0.000 S 
ATOM      2  O   UNL     1      -9.482   6.352 133.263  0.00  0.00    +0.000 OA
ENDROOT
BRANCH   1  10
ATOM      3  C   UNL     1      -4.183   5.905 129.300  0.00  0.00    +0.000 A 
ATOM      4  C   UNL     1      -5.108   4.888 129.567  0.00  0.00    +0.000 A 
ATOM      5  C   UNL     1      -6.125   5.191 130.463  0.00  0.00    +0.000 A 
ATOM      6  C   UNL     1      -6.253   6.445 131.050  0.00  0.00    +0.000 A 
ATOM      7  C   UNL     1      -5.367   7.476 130.729  0.00  0.00    +0.000 A 
ATOM      8  C   UNL     1      -4.321   7.185 129.851  0.00  0.00    +0.000 A 
ATOM      9  N   UNL     1      -7.291   6.458 131.916  0.00  0.00    +0.000 NA
ATOM     10  C   UNL     1      -7.823   5.249 131.861  0.00  0.00    +0.000 A 
ATOM     11  N   UNL     1      -7.171   4.463 130.968  0.00  0.00    +0.000 N 
ATOM     12  H   UNL     1      -7.442   3.532 130.671  0.00  0.00    +0.000 HD
BRANCH   3  14
ATOM     13  C   UNL     1      -2.133   6.506 128.330  0.00  0.00    +0.000 C 
ATOM     14  O   UNL     1      -3.199   5.566 128.411  0.00  0.00    +0.000 OA
ENDBRANCH   3  14
ENDBRANCH   1  10
BRANCH   1  15
ATOM     15  C   UNL     1     -10.581   4.699 131.378  0.00  0.00    +0.000 C 
BRANCH  15  16
ATOM     16  C   UNL     1     -11.179   5.982 130.774  0.00  0.00    +0.000 A 
ATOM     17  N   UNL     1     -12.255   6.500 131.422  0.00  0.00    +0.000 NA
ATOM     18  C   UNL     1     -12.804   7.646 130.928  0.00  0.00    +0.000 A 
ATOM     19  C   UNL     1     -12.365   8.342 129.803  0.00  0.00    +0.000 A 
ATOM     20  C   UNL     1     -13.042   9.622 129.433  0.00  0.00    +0.000 C 
ATOM     21  C   UNL     1     -11.290   7.789 129.118  0.00  0.00    +0.000 A 
ATOM     22  C   UNL     1     -10.706   6.595 129.596  0.00  0.00    +0.000 A 
ATOM     23  C   UNL     1      -9.499   6.087 128.871  0.00  0.00    +0.000 C 
BRANCH  21  24
ATOM     24  O   UNL     1     -10.656   8.263 128.003  0.00  0.00    +0.000 OA
ATOM     25  C   UNL     1     -11.083   7.958 126.697  0.00  0.00    +0.000 C 
ENDBRANCH  21  24
ENDBRANCH  15  16
ENDBRANCH   1  15
TORSDOF 5
ENDMDL
MODEL 6
REMARK VINA RESULT:      -7.0      8.889     11.176
REMARK  Name = Omeprazole
REMARK  9 active torsions:
REMARK  status: ('A' for Active; 'I' for Inactive)
REMARK    1  A    between atoms: C_1  and  O_2
REMARK    2  A    between atoms: O_2  and  C_3
REMARK    3  A    between atoms: C_10  and  S_12
REMARK    4  A    between atoms: S_12  and  C_14
REMARK    5  A    between atoms: C_14  and  C_15
REMARK    6  A    between atoms: C_18  and  C_19
REMARK    7  A    between atoms: C_20  and  O_21
REMARK    8  A    between atoms: O_21  and  C_22
REMARK    9  A    between atoms: C_23  and  C_24
REMARK                            x       y       z     vdW  Elec       q    Type
REMARK                         _______ _______ _______ _____ _____    ______ ____
ROOT
ATOM      1  S   UNL     1      -8.230   5.217 133.608  0.00  0.00    +0.000 S 
ATOM      2  O   UNL     1      -9.225   4.140 133.936  0.00  0.00    +0.000 OA
ENDROOT
BRANCH   1  10
ATOM      3  C   UNL     1     -11.531   7.922 129.105  0.00  0.00    +0.000 A 
ATOM      4  C   UNL     1     -10.202   7.579 129.387  0.00  0.00    +0.000 A 
ATOM      5  C   UNL     1      -9.963   6.975 130.613  0.00  0.00    +0.000 A 
ATOM      6  C   UNL     1     -10.981   6.689 131.516  0.00  0.00    +0.000 A 
ATOM      7  C   UNL     1     -12.312   6.973 131.201  0.00  0.00    +0.000 A 
ATOM      8  C   UNL     1     -12.573   7.605 129.984  0.00  0.00    +0.000 A 
ATOM      9  N   UNL     1     -10.473   6.150 132.647  0.00  0.00    +0.000 NA
ATOM     10  C   UNL     1      -9.167   6.074 132.457  0.00  0.00    +0.000 A 
ATOM     11  N   UNL     1      -8.821   6.528 131.226  0.00  0.00    +0.000 N 
ATOM     12  H   UNL     1      -7.900   6.485 130.803  0.00  0.00    +0.000 HD
BRANCH   3  14
ATOM     13  C   UNL     1     -10.985   7.922 126.822  0.00  0.00    +0.000 C 
ATOM     14  O   UNL     1     -11.724   8.514 127.885  0.00  0.00    +0.000 OA
ENDBRANCH   3  14
ENDBRANCH   1  10
BRANCH   1  15
ATOM     15  C   UNL     1      -6.799   4.503 132.721  0.00  0.00    +0.000 C 
BRANCH  15  16
ATOM     16  C   UNL     1      -5.595   5.452 132.583  0.00  0.00    +0.000 A 
ATOM     17  N   UNL     1      -5.052   5.899 133.746  0.00  0.00    +0.000 NA
ATOM     18  C   UNL     1      -3.975   6.729 133.668  0.00  0.00    +0.000 A 
ATOM     19  C   UNL     1      -3.372   7.175 132.492  0.00  0.00    +0.000 A 
ATOM     20  C   UNL     1      -2.152   8.034 132.584  0.00  0.00    +0.000 C 
ATOM     21  C   UNL     1      -3.953   6.751 131.303  0.00  0.00    +0.000 A 
ATOM     22  C   UNL     1      -5.080   5.900 131.350  0.00  0.00    +0.000 A 
ATOM     23  C   UNL     1      -5.616   5.406 130.043  0.00  0.00    +0.000 C 
BRANCH  21  24
ATOM     24  O   UNL     1      -3.565   7.025 130.021  0.00  0.00    +0.000 OA
ATOM     25  C   UNL     1      -3.804   8.265 129.401  0.00  0.00    +0.000 C 
ENDBRANCH  21  24
ENDBRANCH  15  16
ENDBRANCH   1  15
TORSDOF 5
ENDMDL
MODEL 7
REMARK VINA RESULT:      -7.0      8.107     10.229
REMARK  Name = Omeprazole
REMARK  9 active torsions:
REMARK  status: ('A' for Active; 'I' for Inactive)
REMARK    1  A    between atoms: C_1  and  O_2
REMARK    2  A    between atoms: O_2  and  C_3
REMARK    3  A    between atoms: C_10  and  S_12
REMARK    4  A    between atoms: S_12  and  C_14
REMARK    5  A    between atoms: C_14  and  C_15
REMARK    6  A    between atoms: C_18  and  C_19
REMARK    7  A    between atoms: C_20  and  O_21
REMARK    8  A    between atoms: O_21  and  C_22
REMARK    9  A    between atoms: C_23  and  C_24
REMARK                            x       y       z     vdW  Elec       q    Type
REMARK                         _______ _______ _______ _____ _____    ______ ____
ROOT
ATOM      1  S   UNL     1      -8.300   3.766 129.890  0.00  0.00    +0.000 S 
ATOM      2  O   UNL     1      -9.025   2.692 129.128  0.00  0.00    +0.000 OA
ENDROOT
BRANCH   1  10
ATOM      3  C   UNL     1     -12.222   8.565 129.613  0.00  0.00    +0.000 A 
ATOM      4  C   UNL     1     -11.849   7.549 130.503  0.00  0.00    +0.000 A 
ATOM      5  C   UNL     1     -10.885   6.655 130.057  0.00  0.00    +0.000 A 
ATOM      6  C   UNL     1     -10.285   6.765 128.808  0.00  0.00    +0.000 A 
ATOM      7  C   UNL     1     -10.614   7.818 127.951  0.00  0.00    +0.000 A 
ATOM      8  C   UNL     1     -11.600   8.713 128.367  0.00  0.00    +0.000 A 
ATOM      9  N   UNL     1      -9.423   5.744 128.605  0.00  0.00    +0.000 NA
ATOM     10  C   UNL     1      -9.456   5.018 129.710  0.00  0.00    +0.000 A 
ATOM     11  N   UNL     1     -10.299   5.554 130.627  0.00  0.00    +0.000 N 
ATOM     12  H   UNL     1     -10.427   5.245 131.585  0.00  0.00    +0.000 HD
BRANCH   3  14
ATOM     13  C   UNL     1     -13.460  10.521 129.228  0.00  0.00    +0.000 C 
ATOM     14  O   UNL     1     -13.174   9.425 130.090  0.00  0.00    +0.000 OA
ENDBRANCH   3  14
ENDBRANCH   1  10
BRANCH   1  15
ATOM     15  C   UNL     1      -6.798   4.277 128.982  0.00  0.00    +0.000 C 
BRANCH  15  16
ATOM     16  C   UNL     1      -5.786   5.078 129.821  0.00  0.00    +0.000 A 
ATOM     17  N   UNL     1      -6.175   6.327 130.191  0.00  0.00    +0.000 NA
ATOM     18  C   UNL     1      -5.314   7.063 130.949  0.00  0.00    +0.000 A 
ATOM     19  C   UNL     1      -4.052   6.654 131.380  0.00  0.00    +0.000 A 
ATOM     20  C   UNL     1      -3.258   7.563 132.262  0.00  0.00    +0.000 C 
ATOM     21  C   UNL     1      -3.639   5.393 130.966  0.00  0.00    +0.000 A 
ATOM     22  C   UNL     1      -4.503   4.610 130.169  0.00  0.00    +0.000 A 
ATOM     23  C   UNL     1      -4.045   3.228 129.820  0.00  0.00    +0.000 C 
BRANCH  21  24
ATOM     24  O   UNL     1      -2.468   4.746 131.248  0.00  0.00    +0.000 OA
ATOM     25  C   UNL     1      -2.111   4.351 132.551  0.00  0.00    +0.000 C 
ENDBRANCH  21  24
ENDBRANCH  15  16
ENDBRANCH   1  15
TORSDOF 5
ENDMDL
MODEL 8
REMARK VINA RESULT:      -6.9      9.133     10.815
REMARK  Name = Omeprazole
REMARK  9 active torsions:
REMARK  status: ('A' for Active; 'I' for Inactive)
REMARK    1  A    between atoms: C_1  and  O_2
REMARK    2  A    between atoms: O_2  and  C_3
REMARK    3  A    between atoms: C_10  and  S_12
REMARK    4  A    between atoms: S_12  and  C_14
REMARK    5  A    between atoms: C_14  and  C_15
REMARK    6  A    between atoms: C_18  and  C_19
REMARK    7  A    between atoms: C_20  and  O_21
REMARK    8  A    between atoms: O_21  and  C_22
REMARK    9  A    between atoms: C_23  and  C_24
REMARK                            x       y       z     vdW  Elec       q    Type
REMARK                         _______ _______ _______ _____ _____    ______ ____
ROOT
ATOM      1  S   UNL     1      -7.361   5.095 133.299  0.00  0.00    +0.000 S 
ATOM      2  O   UNL     1      -8.316   4.347 134.185  0.00  0.00    +0.000 OA
ENDROOT
BRANCH   1  10
ATOM      3  C   UNL     1     -11.468   7.835 129.541  0.00  0.00    +0.000 A 
ATOM      4  C   UNL     1     -10.092   7.576 129.601  0.00  0.00    +0.000 A 
ATOM      5  C   UNL     1      -9.633   6.911 130.730  0.00  0.00    +0.000 A 
ATOM      6  C   UNL     1     -10.484   6.488 131.745  0.00  0.00    +0.000 A 
ATOM      7  C   UNL     1     -11.863   6.690 131.648  0.00  0.00    +0.000 A 
ATOM      8  C   UNL     1     -12.344   7.380 130.534  0.00  0.00    +0.000 A 
ATOM      9  N   UNL     1      -9.779   5.916 132.746  0.00  0.00    +0.000 NA
ATOM     10  C   UNL     1      -8.514   5.953 132.364  0.00  0.00    +0.000 A 
ATOM     11  N   UNL     1      -8.386   6.514 131.136  0.00  0.00    +0.000 N 
ATOM     12  H   UNL     1      -7.537   6.570 130.582  0.00  0.00    +0.000 HD
BRANCH   3  14
ATOM     13  C   UNL     1     -13.163   9.096 128.520  0.00  0.00    +0.000 C 
ATOM     14  O   UNL     1     -11.879   8.490 128.412  0.00  0.00    +0.000 OA
ENDBRANCH   3  14
ENDBRANCH   1  10
BRANCH   1  15
ATOM     15  C   UNL     1      -6.505   3.935 132.174  0.00  0.00    +0.000 C 
BRANCH  15  16
ATOM     16  C   UNL     1      -5.281   4.530 131.454  0.00  0.00    +0.000 A 
ATOM     17  N   UNL     1      -5.528   5.140 130.265  0.00  0.00    +0.000 NA
ATOM     18  C   UNL     1      -4.473   5.694 129.604  0.00  0.00    +0.000 A 
ATOM     19  C   UNL     1      -3.146   5.688 130.033  0.00  0.00    +0.000 A 
ATOM     20  C   UNL     1      -2.116   6.399 129.215  0.00  0.00    +0.000 C 
ATOM     21  C   UNL     1      -2.889   5.028 131.229  0.00  0.00    +0.000 A 
ATOM     22  C   UNL     1      -3.959   4.432 131.933  0.00  0.00    +0.000 A 
ATOM     23  C   UNL     1      -3.641   3.807 133.255  0.00  0.00    +0.000 C 
BRANCH  21  24
ATOM     24  O   UNL     1      -1.696   4.880 131.879  0.00  0.00    +0.000 OA
ATOM     25  C   UNL     1      -1.004   5.960 132.457  0.00  0.00    +0.000 C 
ENDBRANCH  21  24
ENDBRANCH  15  16
ENDBRANCH   1  15
TORSDOF 5
ENDMDL
MODEL 9
REMARK VINA RESULT:      -6.9      2.023      3.047
REMARK  Name = Omeprazole
REMARK  9 active torsions:
REMARK  status: ('A' for Active; 'I' for Inactive)
REMARK    1  A    between atoms: C_1  and  O_2
REMARK    2  A    between atoms: O_2  and  C_3
REMARK    3  A    between atoms: C_10  and  S_12
REMARK    4  A    between atoms: S_12  and  C_14
REMARK    5  A    between atoms: C_14  and  C_15
REMARK    6  A    between atoms: C_18  and  C_19
REMARK    7  A    between atoms: C_20  and  O_21
REMARK    8  A    between atoms: O_21  and  C_22
REMARK    9  A    between atoms: C_23  and  C_24
REMARK                            x       y       z     vdW  Elec       q    Type
REMARK                         _______ _______ _______ _____ _____    ______ ____
ROOT
ATOM      1  S   UNL     1      -8.628  -0.728 123.341  0.00  0.00    +0.000 S 
ATOM      2  O   UNL     1      -9.871  -1.461 122.920  0.00  0.00    +0.000 OA
ENDROOT
BRANCH   1  10
ATOM      3  C   UNL     1      -7.634  -3.344 128.878  0.00  0.00    +0.000 A 
ATOM      4  C   UNL     1      -7.056  -2.381 128.040  0.00  0.00    +0.000 A 
ATOM      5  C   UNL     1      -7.683  -2.161 126.821  0.00  0.00    +0.000 A 
ATOM      6  C   UNL     1      -8.843  -2.831 126.446  0.00  0.00    +0.000 A 
ATOM      7  C   UNL     1      -9.451  -3.741 127.313  0.00  0.00    +0.000 A 
ATOM      8  C   UNL     1      -8.823  -3.997 128.534  0.00  0.00    +0.000 A 
ATOM      9  N   UNL     1      -9.215  -2.470 125.198  0.00  0.00    +0.000 NA
ATOM     10  C   UNL     1      -8.326  -1.576 124.800  0.00  0.00    +0.000 A 
ATOM     11  N   UNL     1      -7.404  -1.333 125.765  0.00  0.00    +0.000 N 
ATOM     12  H   UNL     1      -6.680  -0.623 125.745  0.00  0.00    +0.000 HD
BRANCH   3  14
ATOM     13  C   UNL     1      -6.806  -2.339 130.831  0.00  0.00    +0.000 C 
ATOM     14  O   UNL     1      -6.987  -3.529 130.070  0.00  0.00    +0.000 OA
ENDBRANCH   3  14
ENDBRANCH   1  10
BRANCH   1  15
ATOM     15  C   UNL     1      -9.035   0.997 123.789  0.00  0.00    +0.000 C 
BRANCH  15  16
ATOM     16  C   UNL     1      -7.822   1.856 124.188  0.00  0.00    +0.000 A 
ATOM     17  N   UNL     1      -7.250   1.560 125.385  0.00  0.00    +0.000 NA
ATOM     18  C   UNL     1      -6.164   2.288 125.768  0.00  0.00    +0.000 A 
ATOM     19  C   UNL     1      -5.578   3.325 125.042  0.00  0.00    +0.000 A 
ATOM     20  C   UNL     1      -4.346   3.979 125.578  0.00  0.00    +0.000 C 
ATOM     21  C   UNL     1      -6.188   3.652 123.837  0.00  0.00    +0.000 A 
ATOM     22  C   UNL     1      -7.324   2.926 123.417  0.00  0.00    +0.000 A 
ATOM     23  C   UNL     1      -7.892   3.264 122.074  0.00  0.00    +0.000 C 
BRANCH  21  24
ATOM     24  O   UNL     1      -5.821   4.608 122.931  0.00  0.00    +0.000 OA
ATOM     25  C   UNL     1      -4.693   4.477 122.100  0.00  0.00    +0.000 C 
ENDBRANCH  21  24
ENDBRANCH  15  16
ENDBRANCH   1  15
TORSDOF 5
ENDMDL
