MODEL 1
REMARK VINA RESULT:      -8.2      0.000      0.000
REMARK  Name = Omidenepag isopropyl
REMARK  14 active torsions:
REMARK  status: ('A' for Active; 'I' for Inactive)
REMARK    1  A    between atoms: C_1  and  C_2
REMARK    2  A    between atoms: C_2  and  C_3
REMARK    3  A    between atoms: C_2  and  O_4
REMARK    4  A    between atoms: O_4  and  C_5
REMARK    5  A    between atoms: C_5  and  C_7
REMARK    6  A    between atoms: C_7  and  N_8
REMARK    7  A    between atoms: N_8  and  C_9
REMARK    8  A    between atoms: C_13  and  C_14
REMARK    9  A    between atoms: C_14  and  N_15
REMARK   10  A    between atoms: N_15  and  C_16
REMARK   11  A    between atoms: N_15  and  S_28
REMARK   12  A    between atoms: C_16  and  C_17
REMARK   13  A    between atoms: C_20  and  N_23
REMARK   14  A    between atoms: S_28  and  C_31
REMARK                            x       y       z     vdW  Elec       q    Type
REMARK                         _______ _______ _______ _____ _____    ______ ____
ROOT
ATOM      1  N   UNL     1      -6.916   3.424 124.513  0.00  0.00    +0.000 NA
ENDROOT
BRANCH   1   2
ATOM      2  S   UNL     1      -7.376   2.773 122.939  0.00  0.00    +0.000 S 
ATOM      3  O   UNL     1      -6.833   1.418 122.869  0.00  0.00    +0.000 OA
ATOM      4  O   UNL     1      -8.784   3.002 122.779  0.00  0.00    +0.000 OA
BRANCH   2   5
ATOM      5  C   UNL     1      -6.532   3.731 121.711  0.00  0.00    +0.000 A 
ATOM      6  C   UNL     1      -5.255   4.258 121.909  0.00  0.00    +0.000 A 
ATOM      7  C   UNL     1      -4.686   5.068 120.930  0.00  0.00    +0.000 A 
ATOM      8  C   UNL     1      -5.369   5.227 119.738  0.00  0.00    +0.000 A 
ATOM      9  N   UNL     1      -6.561   4.646 119.479  0.00  0.00    +0.000 NA
ATOM     10  C   UNL     1      -7.122   3.907 120.472  0.00  0.00    +0.000 A 
ENDBRANCH   2   5
ENDBRANCH   1   2
BRANCH   1  11
ATOM     11  C   UNL     1      -8.157   3.274 125.453  0.00  0.00    +0.000 C 
BRANCH  11  16
ATOM     12  C   UNL     1      -8.216  -0.182 126.908  0.00  0.00    +0.000 A 
ATOM     13  C   UNL     1      -7.648   0.070 128.119  0.00  0.00    +0.000 A 
ATOM     14  C   UNL     1      -7.748   1.328 128.615  0.00  0.00    +0.000 A 
ATOM     15  C   UNL     1      -8.031   2.354 127.744  0.00  0.00    +0.000 A 
ATOM     16  C   UNL     1      -8.182   2.075 126.404  0.00  0.00    +0.000 A 
ATOM     17  N   UNL     1      -8.414   0.793 125.989  0.00  0.00    +0.000 NA
BRANCH  12  18
ATOM     18  N   UNL     1      -8.639  -1.503 126.778  0.00  0.00    +0.000 N 
ATOM     19  H   UNL     1      -9.053  -1.862 127.632  0.00  0.00    +0.000 HD
BRANCH  18  20
ATOM     20  C   UNL     1      -7.615  -2.422 126.176  0.00  0.00    +0.000 C 
BRANCH  20  21
ATOM     21  C   UNL     1      -8.224  -2.966 124.909  0.00  0.00    +0.000 C 
ATOM     22  O   UNL     1      -9.409  -2.789 124.644  0.00  0.00    +0.000 OA
BRANCH  21  23
ATOM     23  O   UNL     1      -7.344  -3.652 124.127  0.00  0.00    +0.000 OA
BRANCH  23  25
ATOM     24  C   UNL     1      -4.965  -3.999 123.816  0.00  0.00    +0.000 C 
ATOM     25  C   UNL     1      -6.080  -2.970 123.974  0.00  0.00    +0.000 C 
ATOM     26  C   UNL     1      -6.093  -2.072 122.735  0.00  0.00    +0.000 C 
ENDBRANCH  23  25
ENDBRANCH  21  23
ENDBRANCH  20  21
ENDBRANCH  18  20
ENDBRANCH  12  18
ENDBRANCH  11  16
ENDBRANCH   1  11
BRANCH   1  27
ATOM     27  C   UNL     1      -5.644   2.788 125.041  0.00  0.00    +0.000 C 
BRANCH  27  28
ATOM     28  C   UNL     1      -4.734   3.566 125.986  0.00  0.00    +0.000 A 
ATOM     29  C   UNL     1      -3.693   2.890 126.633  0.00  0.00    +0.000 A 
ATOM     30  C   UNL     1      -3.065   3.447 127.762  0.00  0.00    +0.000 A 
ATOM     31  C   UNL     1      -3.396   4.737 128.212  0.00  0.00    +0.000 A 
ATOM     32  C   UNL     1      -4.328   5.485 127.472  0.00  0.00    +0.000 A 
ATOM     33  C   UNL     1      -4.975   4.910 126.347  0.00  0.00    +0.000 A 
BRANCH  31  34
ATOM     34  N   UNL     1      -2.825   5.209 129.439  0.00  0.00    +0.000 N 
ATOM     35  C   UNL     1      -2.039   6.317 129.743  0.00  0.00    +0.000 A 
ATOM     36  C   UNL     1      -1.750   6.273 131.088  0.00  0.00    +0.000 A 
ATOM     37  C   UNL     1      -2.286   5.051 131.495  0.00  0.00    +0.000 A 
ATOM     38  N   UNL     1      -3.008   4.455 130.547  0.00  0.00    +0.000 NA
ENDBRANCH  31  34
ENDBRANCH  27  28
ENDBRANCH   1  27
TORSDOF 12
ENDMDL
MODEL 2
REMARK VINA RESULT:      -8.2      4.821      8.893
REMARK  Name = Omidenepag isopropyl
REMARK  14 active torsions:
REMARK  status: ('A' for Active; 'I' for Inactive)
REMARK    1  A    between atoms: C_1  and  C_2
REMARK    2  A    between atoms: C_2  and  C_3
REMARK    3  A    between atoms: C_2  and  O_4
REMARK    4  A    between atoms: O_4  and  C_5
REMARK    5  A    between atoms: C_5  and  C_7
REMARK    6  A    between atoms: C_7  and  N_8
REMARK    7  A    between atoms: N_8  and  C_9
REMARK    8  A    between atoms: C_13  and  C_14
REMARK    9  A    between atoms: C_14  and  N_15
REMARK   10  A    between atoms: N_15  and  C_16
REMARK   11  A    between atoms: N_15  and  S_28
REMARK   12  A    between atoms: C_16  and  C_17
REMARK   13  A    between atoms: C_20  and  N_23
REMARK   14  A    between atoms: S_28  and  C_31
REMARK                            x       y       z     vdW  Elec       q    Type
REMARK                         _______ _______ _______ _____ _____    ______ ____
ROOT
ATOM      1  N   UNL     1      -8.627   5.585 130.863  0.00  0.00    +0.000 NA
ENDROOT
BRANCH   1   2
ATOM      2  S   UNL     1     -10.320   5.804 131.305  0.00  0.00    +0.000 S 
ATOM      3  O   UNL     1     -10.989   4.528 131.057  0.00  0.00    +0.000 OA
ATOM      4  O   UNL     1     -10.346   6.396 132.612  0.00  0.00    +0.000 OA
BRANCH   2   5
ATOM      5  C   UNL     1     -11.009   6.976 130.170  0.00  0.00    +0.000 A 
ATOM      6  C   UNL     1     -12.350   7.363 130.202  0.00  0.00    +0.000 A 
ATOM      7  C   UNL     1     -12.839   8.228 129.227  0.00  0.00    +0.000 A 
ATOM      8  C   UNL     1     -11.941   8.767 128.323  0.00  0.00    +0.000 A 
ATOM      9  N   UNL     1     -10.619   8.489 128.331  0.00  0.00    +0.000 NA
ATOM     10  C   UNL     1     -10.176   7.597 129.256  0.00  0.00    +0.000 A 
ENDBRANCH   2   5
ENDBRANCH   1   2
BRANCH   1  11
ATOM     11  C   UNL     1      -7.779   6.466 131.838  0.00  0.00    +0.000 C 
BRANCH  11  16
ATOM     12  C   UNL     1      -4.590   7.612 130.231  0.00  0.00    +0.000 A 
ATOM     13  C   UNL     1      -3.747   7.504 131.295  0.00  0.00    +0.000 A 
ATOM     14  C   UNL     1      -4.073   6.624 132.274  0.00  0.00    +0.000 A 
ATOM     15  C   UNL     1      -5.379   6.203 132.366  0.00  0.00    +0.000 A 
ATOM     16  C   UNL     1      -6.310   6.700 131.482  0.00  0.00    +0.000 A 
ATOM     17  N   UNL     1      -5.905   7.301 130.321  0.00  0.00    +0.000 NA
BRANCH  12  18
ATOM     18  N   UNL     1      -3.932   7.978 129.060  0.00  0.00    +0.000 N 
ATOM     19  H   UNL     1      -4.573   8.153 128.294  0.00  0.00    +0.000 HD
BRANCH  18  20
ATOM     20  C   UNL     1      -2.787   7.079 128.689  0.00  0.00    +0.000 C 
BRANCH  20  21
ATOM     21  C   UNL     1      -3.360   6.003 127.802  0.00  0.00    +0.000 C 
ATOM     22  O   UNL     1      -4.488   6.101 127.329  0.00  0.00    +0.000 OA
BRANCH  21  23
ATOM     23  O   UNL     1      -2.518   4.953 127.597  0.00  0.00    +0.000 OA
BRANCH  23  25
ATOM     24  C   UNL     1      -3.787   4.120 129.488  0.00  0.00    +0.000 C 
ATOM     25  C   UNL     1      -2.949   3.748 128.268  0.00  0.00    +0.000 C 
ATOM     26  C   UNL     1      -3.802   2.883 127.337  0.00  0.00    +0.000 C 
ENDBRANCH  23  25
ENDBRANCH  21  23
ENDBRANCH  20  21
ENDBRANCH  18  20
ENDBRANCH  12  18
ENDBRANCH  11  16
ENDBRANCH   1  11
BRANCH   1  27
ATOM     27  C   UNL     1      -8.232   4.120 130.831  0.00  0.00    +0.000 C 
BRANCH  27  28
ATOM     28  C   UNL     1      -7.968   3.427 129.498  0.00  0.00    +0.000 A 
ATOM     29  C   UNL     1      -7.400   4.166 128.453  0.00  0.00    +0.000 A 
ATOM     30  C   UNL     1      -7.466   3.702 127.126  0.00  0.00    +0.000 A 
ATOM     31  C   UNL     1      -8.014   2.443 126.825  0.00  0.00    +0.000 A 
ATOM     32  C   UNL     1      -8.441   1.628 127.888  0.00  0.00    +0.000 A 
ATOM     33  C   UNL     1      -8.394   2.110 129.223  0.00  0.00    +0.000 A 
BRANCH  31  34
ATOM     34  N   UNL     1      -8.177   2.070 125.451  0.00  0.00    +0.000 N 
ATOM     35  C   UNL     1      -7.465   1.209 124.621  0.00  0.00    +0.000 A 
ATOM     36  C   UNL     1      -8.050   1.244 123.375  0.00  0.00    +0.000 A 
ATOM     37  C   UNL     1      -9.020   2.238 123.500  0.00  0.00    +0.000 A 
ATOM     38  N   UNL     1      -9.169   2.669 124.753  0.00  0.00    +0.000 NA
ENDBRANCH  31  34
ENDBRANCH  27  28
ENDBRANCH   1  27
TORSDOF 12
ENDMDL
MODEL 3
REMARK VINA RESULT:      -8.0      7.253     10.839
REMARK  Name = Omidenepag isopropyl
REMARK  14 active torsions:
REMARK  status: ('A' for Active; 'I' for Inactive)
REMARK    1  A    between atoms: C_1  and  C_2
REMARK    2  A    between atoms: C_2  and  C_3
REMARK    3  A    between atoms: C_2  and  O_4
REMARK    4  A    between atoms: O_4  and  C_5
REMARK    5  A    between atoms: C_5  and  C_7
REMARK    6  A    between atoms: C_7  and  N_8
REMARK    7  A    between atoms: N_8  and  C_9
REMARK    8  A    between atoms: C_13  and  C_14
REMARK    9  A    between atoms: C_14  and  N_15
REMARK   10  A    between atoms: N_15  and  C_16
REMARK   11  A    between atoms: N_15  and  S_28
REMARK   12  A    between atoms: C_16  and  C_17
REMARK   13  A    between atoms: C_20  and  N_23
REMARK   14  A    between atoms: S_28  and  C_31
REMARK                            x       y       z     vdW  Elec       q    Type
REMARK                         _______ _______ _______ _____ _____    ______ ____
ROOT
ATOM      1  N   UNL     1      -9.096   5.241 130.059  0.00  0.00    +0.000 NA
ENDROOT
BRANCH   1   2
ATOM      2  S   UNL     1      -9.785   6.864 130.100  0.00  0.00    +0.000 S 
ATOM      3  O   UNL     1     -10.608   6.942 131.305  0.00  0.00    +0.000 OA
ATOM      4  O   UNL     1      -8.708   7.789 129.893  0.00  0.00    +0.000 OA
BRANCH   2   5
ATOM      5  C   UNL     1     -10.884   6.999 128.717  0.00  0.00    +0.000 A 
ATOM      6  C   UNL     1     -12.253   7.231 128.858  0.00  0.00    +0.000 A 
ATOM      7  C   UNL     1     -13.068   7.246 127.729  0.00  0.00    +0.000 A 
ATOM      8  C   UNL     1     -12.465   7.143 126.488  0.00  0.00    +0.000 A 
ATOM      9  N   UNL     1     -11.131   7.018 126.316  0.00  0.00    +0.000 NA
ATOM     10  C   UNL     1     -10.363   6.949 127.436  0.00  0.00    +0.000 A 
ENDBRANCH   2   5
ENDBRANCH   1   2
BRANCH   1  11
ATOM     11  C   UNL     1      -7.686   5.324 130.730  0.00  0.00    +0.000 C 
BRANCH  11  16
ATOM     12  C   UNL     1      -8.123   5.476 134.452  0.00  0.00    +0.000 A 
ATOM     13  C   UNL     1      -7.851   4.179 134.767  0.00  0.00    +0.000 A 
ATOM     14  C   UNL     1      -7.069   3.471 133.915  0.00  0.00    +0.000 A 
ATOM     15  C   UNL     1      -6.931   3.925 132.624  0.00  0.00    +0.000 A 
ATOM     16  C   UNL     1      -7.604   5.062 132.236  0.00  0.00    +0.000 A 
ATOM     17  N   UNL     1      -8.094   5.927 133.176  0.00  0.00    +0.000 NA
BRANCH  12  18
ATOM     18  N   UNL     1      -8.331   6.269 135.577  0.00  0.00    +0.000 N 
ATOM     19  H   UNL     1      -8.477   7.244 135.342  0.00  0.00    +0.000 HD
BRANCH  18  20
ATOM     20  C   UNL     1      -7.324   6.062 136.673  0.00  0.00    +0.000 C 
BRANCH  20  21
ATOM     21  C   UNL     1      -7.798   6.879 137.847  0.00  0.00    +0.000 C 
ATOM     22  O   UNL     1      -7.815   6.413 138.983  0.00  0.00    +0.000 OA
BRANCH  21  23
ATOM     23  O   UNL     1      -8.191   8.140 137.517  0.00  0.00    +0.000 OA
BRANCH  23  25
ATOM     24  C   UNL     1      -8.494  10.040 138.993  0.00  0.00    +0.000 C 
ATOM     25  C   UNL     1      -9.082   8.724 138.492  0.00  0.00    +0.000 C 
ATOM     26  C   UNL     1     -10.454   9.008 137.873  0.00  0.00    +0.000 C 
ENDBRANCH  23  25
ENDBRANCH  21  23
ENDBRANCH  20  21
ENDBRANCH  18  20
ENDBRANCH  12  18
ENDBRANCH  11  16
ENDBRANCH   1  11
BRANCH   1  27
ATOM     27  C   UNL     1     -10.027   4.212 130.672  0.00  0.00    +0.000 C 
BRANCH  27  28
ATOM     28  C   UNL     1      -9.644   2.735 130.671  0.00  0.00    +0.000 A 
ATOM     29  C   UNL     1      -9.948   1.957 131.794  0.00  0.00    +0.000 A 
ATOM     30  C   UNL     1      -9.316   0.717 132.003  0.00  0.00    +0.000 A 
ATOM     31  C   UNL     1      -8.439   0.181 131.043  0.00  0.00    +0.000 A 
ATOM     32  C   UNL     1      -8.252   0.884 129.841  0.00  0.00    +0.000 A 
ATOM     33  C   UNL     1      -8.874   2.146 129.645  0.00  0.00    +0.000 A 
BRANCH  31  34
ATOM     34  N   UNL     1      -7.721  -1.019 131.357  0.00  0.00    +0.000 N 
ATOM     35  C   UNL     1      -7.564  -2.224 130.678  0.00  0.00    +0.000 A 
ATOM     36  C   UNL     1      -6.782  -3.048 131.454  0.00  0.00    +0.000 A 
ATOM     37  C   UNL     1      -6.616  -2.321 132.633  0.00  0.00    +0.000 A 
ATOM     38  N   UNL     1      -7.089  -1.078 132.551  0.00  0.00    +0.000 NA
ENDBRANCH  31  34
ENDBRANCH  27  28
ENDBRANCH   1  27
TORSDOF 12
ENDMDL
MODEL 4
REMARK VINA RESULT:      -8.0      5.350      8.813
REMARK  Name = Omidenepag isopropyl
REMARK  14 active torsions:
REMARK  status: ('A' for Active; 'I' for Inactive)
REMARK    1  A    between atoms: C_1  and  C_2
REMARK    2  A    between atoms: C_2  and  C_3
REMARK    3  A    between atoms: C_2  and  O_4
REMARK    4  A    between atoms: O_4  and  C_5
REMARK    5  A    between atoms: C_5  and  C_7
REMARK    6  A    between atoms: C_7  and  N_8
REMARK    7  A    between atoms: N_8  and  C_9
REMARK    8  A    between atoms: C_13  and  C_14
REMARK    9  A    between atoms: C_14  and  N_15
REMARK   10  A    between atoms: N_15  and  C_16
REMARK   11  A    between atoms: N_15  and  S_28
REMARK   12  A    between atoms: C_16  and  C_17
REMARK   13  A    between atoms: C_20  and  N_23
REMARK   14  A    between atoms: S_28  and  C_31
REMARK                            x       y       z     vdW  Elec       q    Type
REMARK                         _______ _______ _______ _____ _____    ______ ____
ROOT
ATOM      1  N   UNL     1      -8.516   4.984 130.507  0.00  0.00    +0.000 NA
ENDROOT
BRANCH   1   2
ATOM      2  S   UNL     1      -9.146   6.601 130.824  0.00  0.00    +0.000 S 
ATOM      3  O   UNL     1      -9.584   6.616 132.219  0.00  0.00    +0.000 OA
ATOM      4  O   UNL     1      -8.165   7.539 130.359  0.00  0.00    +0.000 OA
BRANCH   2   5
ATOM      5  C   UNL     1     -10.597   6.800 129.827  0.00  0.00    +0.000 A 
ATOM      6  C   UNL     1     -11.877   6.921 130.370  0.00  0.00    +0.000 A 
ATOM      7  C   UNL     1     -12.979   6.994 129.522  0.00  0.00    +0.000 A 
ATOM      8  C   UNL     1     -12.750   7.061 128.160  0.00  0.00    +0.000 A 
ATOM      9  N   UNL     1     -11.516   7.047 127.610  0.00  0.00    +0.000 NA
ATOM     10  C   UNL     1     -10.460   6.917 128.455  0.00  0.00    +0.000 A 
ENDBRANCH   2   5
ENDBRANCH   1   2
BRANCH   1  11
ATOM     11  C   UNL     1      -7.546   4.631 131.682  0.00  0.00    +0.000 C 
BRANCH  11  16
ATOM     12  C   UNL     1      -3.894   5.115 130.979  0.00  0.00    +0.000 A 
ATOM     13  C   UNL     1      -3.433   3.875 131.301  0.00  0.00    +0.000 A 
ATOM     14  C   UNL     1      -4.302   2.836 131.222  0.00  0.00    +0.000 A 
ATOM     15  C   UNL     1      -5.650   3.110 131.231  0.00  0.00    +0.000 A 
ATOM     16  C   UNL     1      -6.070   4.417 131.340  0.00  0.00    +0.000 A 
ATOM     17  N   UNL     1      -5.204   5.443 131.076  0.00  0.00    +0.000 NA
BRANCH  12  18
ATOM     18  N   UNL     1      -2.897   5.941 130.466  0.00  0.00    +0.000 N 
ATOM     19  H   UNL     1      -3.009   6.907 130.754  0.00  0.00    +0.000 HD
BRANCH  18  20
ATOM     20  C   UNL     1      -2.661   5.779 128.991  0.00  0.00    +0.000 C 
BRANCH  20  21
ATOM     21  C   UNL     1      -3.701   6.622 128.298  0.00  0.00    +0.000 C 
ATOM     22  O   UNL     1      -3.964   7.756 128.686  0.00  0.00    +0.000 OA
BRANCH  21  23
ATOM     23  O   UNL     1      -4.292   6.004 127.238  0.00  0.00    +0.000 OA
BRANCH  23  25
ATOM     24  C   UNL     1      -5.857   4.205 127.677  0.00  0.00    +0.000 C 
ATOM     25  C   UNL     1      -4.401   4.574 127.411  0.00  0.00    +0.000 C 
ATOM     26  C   UNL     1      -3.934   3.838 126.152  0.00  0.00    +0.000 C 
ENDBRANCH  23  25
ENDBRANCH  21  23
ENDBRANCH  20  21
ENDBRANCH  18  20
ENDBRANCH  12  18
ENDBRANCH  11  16
ENDBRANCH   1  11
BRANCH   1  27
ATOM     27  C   UNL     1      -9.626   3.976 130.280  0.00  0.00    +0.000 C 
BRANCH  27  28
ATOM     28  C   UNL     1      -9.362   2.487 130.482  0.00  0.00    +0.000 A 
ATOM     29  C   UNL     1      -9.846   1.865 131.639  0.00  0.00    +0.000 A 
ATOM     30  C   UNL     1      -9.340   0.619 132.052  0.00  0.00    +0.000 A 
ATOM     31  C   UNL     1      -8.408  -0.080 131.265  0.00  0.00    +0.000 A 
ATOM     32  C   UNL     1      -8.036   0.465 130.025  0.00  0.00    +0.000 A 
ATOM     33  C   UNL     1      -8.533   1.734 129.623  0.00  0.00    +0.000 A 
BRANCH  31  34
ATOM     34  N   UNL     1      -7.824  -1.281 131.788  0.00  0.00    +0.000 N 
ATOM     35  C   UNL     1      -7.264  -2.397 131.173  0.00  0.00    +0.000 A 
ATOM     36  C   UNL     1      -6.874  -3.272 132.162  0.00  0.00    +0.000 A 
ATOM     37  C   UNL     1      -7.345  -2.673 133.330  0.00  0.00    +0.000 A 
ATOM     38  N   UNL     1      -7.827  -1.446 133.131  0.00  0.00    +0.000 NA
ENDBRANCH  31  34
ENDBRANCH  27  28
ENDBRANCH   1  27
TORSDOF 12
ENDMDL
MODEL 5
REMARK VINA RESULT:      -7.9      4.288      7.574
REMARK  Name = Omidenepag isopropyl
REMARK  14 active torsions:
REMARK  status: ('A' for Active; 'I' for Inactive)
REMARK    1  A    between atoms: C_1  and  C_2
REMARK    2  A    between atoms: C_2  and  C_3
REMARK    3  A    between atoms: C_2  and  O_4
REMARK    4  A    between atoms: O_4  and  C_5
REMARK    5  A    between atoms: C_5  and  C_7
REMARK    6  A    between atoms: C_7  and  N_8
REMARK    7  A    between atoms: N_8  and  C_9
REMARK    8  A    between atoms: C_13  and  C_14
REMARK    9  A    between atoms: C_14  and  N_15
REMARK   10  A    between atoms: N_15  and  C_16
REMARK   11  A    between atoms: N_15  and  S_28
REMARK   12  A    between atoms: C_16  and  C_17
REMARK   13  A    between atoms: C_20  and  N_23
REMARK   14  A    between atoms: S_28  and  C_31
REMARK                            x       y       z     vdW  Elec       q    Type
REMARK                         _______ _______ _______ _____ _____    ______ ____
ROOT
ATOM      1  N   UNL     1      -8.719   5.020 129.846  0.00  0.00    +0.000 NA
ENDROOT
BRANCH   1   2
ATOM      2  S   UNL     1      -9.560   6.496 130.319  0.00  0.00    +0.000 S 
ATOM      3  O   UNL     1     -10.194   6.224 131.608  0.00  0.00    +0.000 OA
ATOM      4  O   UNL     1      -8.631   7.579 130.179  0.00  0.00    +0.000 OA
BRANCH   2   5
ATOM      5  C   UNL     1     -10.865   6.750 129.148  0.00  0.00    +0.000 A 
ATOM      6  C   UNL     1     -12.212   6.563 129.463  0.00  0.00    +0.000 A 
ATOM      7  C   UNL     1     -13.176   6.705 128.469  0.00  0.00    +0.000 A 
ATOM      8  C   UNL     1     -12.768   7.142 127.222  0.00  0.00    +0.000 A 
ATOM      9  N   UNL     1     -11.483   7.429 126.917  0.00  0.00    +0.000 NA
ATOM     10  C   UNL     1     -10.554   7.228 127.887  0.00  0.00    +0.000 A 
ENDBRANCH   2   5
ENDBRANCH   1   2
BRANCH   1  11
ATOM     11  C   UNL     1      -7.297   5.073 130.496  0.00  0.00    +0.000 C 
BRANCH  11  16
ATOM     12  C   UNL     1      -4.654   4.629 127.873  0.00  0.00    +0.000 A 
ATOM     13  C   UNL     1      -3.724   3.950 128.598  0.00  0.00    +0.000 A 
ATOM     14  C   UNL     1      -4.153   3.233 129.667  0.00  0.00    +0.000 A 
ATOM     15  C   UNL     1      -5.382   3.537 130.206  0.00  0.00    +0.000 A 
ATOM     16  C   UNL     1      -6.119   4.565 129.662  0.00  0.00    +0.000 A 
ATOM     17  N   UNL     1      -5.831   5.030 128.408  0.00  0.00    +0.000 NA
BRANCH  12  18
ATOM     18  N   UNL     1      -4.294   4.767 126.535  0.00  0.00    +0.000 N 
ATOM     19  H   UNL     1      -4.311   5.733 126.227  0.00  0.00    +0.000 HD
BRANCH  18  20
ATOM     20  C   UNL     1      -5.009   3.830 125.603  0.00  0.00    +0.000 C 
BRANCH  20  21
ATOM     21  C   UNL     1      -5.969   4.673 124.805  0.00  0.00    +0.000 C 
ATOM     22  O   UNL     1      -6.143   5.860 125.064  0.00  0.00    +0.000 OA
BRANCH  21  23
ATOM     23  O   UNL     1      -6.598   3.993 123.805  0.00  0.00    +0.000 OA
BRANCH  23  25
ATOM     24  C   UNL     1      -8.648   2.988 124.620  0.00  0.00    +0.000 C 
ATOM     25  C   UNL     1      -7.186   2.753 124.254  0.00  0.00    +0.000 C 
ATOM     26  C   UNL     1      -7.125   1.692 123.151  0.00  0.00    +0.000 C 
ENDBRANCH  23  25
ENDBRANCH  21  23
ENDBRANCH  20  21
ENDBRANCH  18  20
ENDBRANCH  12  18
ENDBRANCH  11  16
ENDBRANCH   1  11
BRANCH   1  27
ATOM     27  C   UNL     1      -9.520   3.776 130.182  0.00  0.00    +0.000 C 
BRANCH  27  28
ATOM     28  C   UNL     1      -8.997   2.398 129.785  0.00  0.00    +0.000 A 
ATOM     29  C   UNL     1      -8.753   1.453 130.789  0.00  0.00    +0.000 A 
ATOM     30  C   UNL     1      -7.951   0.326 130.536  0.00  0.00    +0.000 A 
ATOM     31  C   UNL     1      -7.453   0.066 129.247  0.00  0.00    +0.000 A 
ATOM     32  C   UNL     1      -7.825   0.927 128.200  0.00  0.00    +0.000 A 
ATOM     33  C   UNL     1      -8.617   2.075 128.465  0.00  0.00    +0.000 A 
BRANCH  31  34
ATOM     34  N   UNL     1      -6.535  -1.020 129.066  0.00  0.00    +0.000 N 
ATOM     35  C   UNL     1      -5.458  -1.204 128.204  0.00  0.00    +0.000 A 
ATOM     36  C   UNL     1      -4.934  -2.455 128.444  0.00  0.00    +0.000 A 
ATOM     37  C   UNL     1      -5.823  -3.007 129.366  0.00  0.00    +0.000 A 
ATOM     38  N   UNL     1      -6.722  -2.131 129.814  0.00  0.00    +0.000 NA
ENDBRANCH  31  34
ENDBRANCH  27  28
ENDBRANCH   1  27
TORSDOF 12
ENDMDL
MODEL 6
REMARK VINA RESULT:      -7.9      5.205      8.429
REMARK  Name = Omidenepag isopropyl
REMARK  14 active torsions:
REMARK  status: ('A' for Active; 'I' for Inactive)
REMARK    1  A    between atoms: C_1  and  C_2
REMARK    2  A    between atoms: C_2  and  C_3
REMARK    3  A    between atoms: C_2  and  O_4
REMARK    4  A    between atoms: O_4  and  C_5
REMARK    5  A    between atoms: C_5  and  C_7
REMARK    6  A    between atoms: C_7  and  N_8
REMARK    7  A    between atoms: N_8  and  C_9
REMARK    8  A    between atoms: C_13  and  C_14
REMARK    9  A    between atoms: C_14  and  N_15
REMARK   10  A    between atoms: N_15  and  C_16
REMARK   11  A    between atoms: N_15  and  S_28
REMARK   12  A    between atoms: C_16  and  C_17
REMARK   13  A    between atoms: C_20  and  N_23
REMARK   14  A    between atoms: S_28  and  C_31
REMARK                            x       y       z     vdW  Elec       q    Type
REMARK                         _______ _______ _______ _____ _____    ______ ____
ROOT
ATOM      1  N   UNL     1      -9.175   4.805 131.003  0.00  0.00    +0.000 NA
ENDROOT
BRANCH   1   2
ATOM      2  S   UNL     1      -9.814   6.444 131.137  0.00  0.00    +0.000 S 
ATOM      3  O   UNL     1     -10.584   6.495 132.378  0.00  0.00    +0.000 OA
ATOM      4  O   UNL     1      -8.720   7.346 130.921  0.00  0.00    +0.000 OA
BRANCH   2   5
ATOM      5  C   UNL     1     -10.964   6.665 129.808  0.00  0.00    +0.000 A 
ATOM      6  C   UNL     1     -12.344   6.739 130.005  0.00  0.00    +0.000 A 
ATOM      7  C   UNL     1     -13.192   6.833 128.905  0.00  0.00    +0.000 A 
ATOM      8  C   UNL     1     -12.622   6.968 127.652  0.00  0.00    +0.000 A 
ATOM      9  N   UNL     1     -11.288   7.002 127.440  0.00  0.00    +0.000 NA
ATOM     10  C   UNL     1     -10.482   6.850 128.524  0.00  0.00    +0.000 A 
ENDBRANCH   2   5
ENDBRANCH   1   2
BRANCH   1  11
ATOM     11  C   UNL     1      -7.800   4.907 130.266  0.00  0.00    +0.000 C 
BRANCH  11  16
ATOM     12  C   UNL     1      -5.734   2.174 128.737  0.00  0.00    +0.000 A 
ATOM     13  C   UNL     1      -6.696   1.224 128.576  0.00  0.00    +0.000 A 
ATOM     14  C   UNL     1      -7.983   1.638 128.466  0.00  0.00    +0.000 A 
ATOM     15  C   UNL     1      -8.306   2.896 128.919  0.00  0.00    +0.000 A 
ATOM     16  C   UNL     1      -7.325   3.679 129.485  0.00  0.00    +0.000 A 
ATOM     17  N   UNL     1      -6.005   3.387 129.276  0.00  0.00    +0.000 NA
BRANCH  12  18
ATOM     18  N   UNL     1      -4.505   1.788 128.209  0.00  0.00    +0.000 N 
ATOM     19  H   UNL     1      -3.756   1.842 128.891  0.00  0.00    +0.000 HD
BRANCH  18  20
ATOM     20  C   UNL     1      -4.167   2.437 126.897  0.00  0.00    +0.000 C 
BRANCH  20  21
ATOM     21  C   UNL     1      -2.989   3.339 127.158  0.00  0.00    +0.000 C 
ATOM     22  O   UNL     1      -1.837   2.920 127.093  0.00  0.00    +0.000 OA
BRANCH  21  23
ATOM     23  O   UNL     1      -3.336   4.621 127.466  0.00  0.00    +0.000 OA
BRANCH  23  25
ATOM     24  C   UNL     1      -2.374   6.734 128.165  0.00  0.00    +0.000 C 
ATOM     25  C   UNL     1      -2.439   5.231 128.420  0.00  0.00    +0.000 C 
ATOM     26  C   UNL     1      -2.931   5.000 129.852  0.00  0.00    +0.000 C 
ENDBRANCH  23  25
ENDBRANCH  21  23
ENDBRANCH  20  21
ENDBRANCH  18  20
ENDBRANCH  12  18
ENDBRANCH  11  16
ENDBRANCH   1  11
BRANCH   1  27
ATOM     27  C   UNL     1      -9.120   4.105 132.347  0.00  0.00    +0.000 C 
BRANCH  27  28
ATOM     28  C   UNL     1      -8.846   2.606 132.419  0.00  0.00    +0.000 A 
ATOM     29  C   UNL     1      -7.572   2.169 132.801  0.00  0.00    +0.000 A 
ATOM     30  C   UNL     1      -7.156   0.850 132.542  0.00  0.00    +0.000 A 
ATOM     31  C   UNL     1      -8.039  -0.092 131.985  0.00  0.00    +0.000 A 
ATOM     32  C   UNL     1      -9.369   0.298 131.746  0.00  0.00    +0.000 A 
ATOM     33  C   UNL     1      -9.777   1.636 131.988  0.00  0.00    +0.000 A 
BRANCH  31  34
ATOM     34  N   UNL     1      -7.534  -1.382 131.620  0.00  0.00    +0.000 N 
ATOM     35  C   UNL     1      -7.481  -2.060 130.405  0.00  0.00    +0.000 A 
ATOM     36  C   UNL     1      -6.905  -3.290 130.633  0.00  0.00    +0.000 A 
ATOM     37  C   UNL     1      -6.758  -3.327 132.019  0.00  0.00    +0.000 A 
ATOM     38  N   UNL     1      -7.039  -2.164 132.606  0.00  0.00    +0.000 NA
ENDBRANCH  31  34
ENDBRANCH  27  28
ENDBRANCH   1  27
TORSDOF 12
ENDMDL
MODEL 7
REMARK VINA RESULT:      -7.9      4.761      7.329
REMARK  Name = Omidenepag isopropyl
REMARK  14 active torsions:
REMARK  status: ('A' for Active; 'I' for Inactive)
REMARK    1  A    between atoms: C_1  and  C_2
REMARK    2  A    between atoms: C_2  and  C_3
REMARK    3  A    between atoms: C_2  and  O_4
REMARK    4  A    between atoms: O_4  and  C_5
REMARK    5  A    between atoms: C_5  and  C_7
REMARK    6  A    between atoms: C_7  and  N_8
REMARK    7  A    between atoms: N_8  and  C_9
REMARK    8  A    between atoms: C_13  and  C_14
REMARK    9  A    between atoms: C_14  and  N_15
REMARK   10  A    between atoms: N_15  and  C_16
REMARK   11  A    between atoms: N_15  and  S_28
REMARK   12  A    between atoms: C_16  and  C_17
REMARK   13  A    between atoms: C_20  and  N_23
REMARK   14  A    between atoms: S_28  and  C_31
REMARK                            x       y       z     vdW  Elec       q    Type
REMARK                         _______ _______ _______ _____ _____    ______ ____
ROOT
ATOM      1  N   UNL     1      -9.284   4.846 130.718  0.00  0.00    +0.000 NA
ENDROOT
BRANCH   1   2
ATOM      2  S   UNL     1      -9.770   6.541 130.697  0.00  0.00    +0.000 S 
ATOM      3  O   UNL     1     -10.487   6.789 131.946  0.00  0.00    +0.000 OA
ATOM      4  O   UNL     1      -8.609   7.313 130.359  0.00  0.00    +0.000 OA
BRANCH   2   5
ATOM      5  C   UNL     1     -10.943   6.731 129.383  0.00  0.00    +0.000 A 
ATOM      6  C   UNL     1     -12.323   6.732 129.594  0.00  0.00    +0.000 A 
ATOM      7  C   UNL     1     -13.185   6.805 128.504  0.00  0.00    +0.000 A 
ATOM      8  C   UNL     1     -12.636   6.992 127.249  0.00  0.00    +0.000 A 
ATOM      9  N   UNL     1     -11.307   7.097 127.026  0.00  0.00    +0.000 NA
ATOM     10  C   UNL     1     -10.484   6.964 128.098  0.00  0.00    +0.000 A 
ENDBRANCH   2   5
ENDBRANCH   1   2
BRANCH   1  11
ATOM     11  C   UNL     1      -7.919   4.750 129.960  0.00  0.00    +0.000 C 
BRANCH  11  16
ATOM     12  C   UNL     1      -7.895   2.541 126.928  0.00  0.00    +0.000 A 
ATOM     13  C   UNL     1      -6.850   1.729 127.246  0.00  0.00    +0.000 A 
ATOM     14  C   UNL     1      -6.548   1.570 128.559  0.00  0.00    +0.000 A 
ATOM     15  C   UNL     1      -7.006   2.509 129.453  0.00  0.00    +0.000 A 
ATOM     16  C   UNL     1      -7.732   3.582 128.988  0.00  0.00    +0.000 A 
ATOM     17  N   UNL     1      -8.304   3.541 127.746  0.00  0.00    +0.000 NA
BRANCH  12  18
ATOM     18  N   UNL     1      -8.527   2.165 125.746  0.00  0.00    +0.000 N 
ATOM     19  H   UNL     1      -9.027   2.934 125.312  0.00  0.00    +0.000 HD
BRANCH  18  20
ATOM     20  C   UNL     1      -9.342   0.907 125.855  0.00  0.00    +0.000 C 
BRANCH  20  21
ATOM     21  C   UNL     1      -8.954   0.045 124.682  0.00  0.00    +0.000 C 
ATOM     22  O   UNL     1      -9.304   0.328 123.539  0.00  0.00    +0.000 OA
BRANCH  21  23
ATOM     23  O   UNL     1      -8.205  -1.041 125.021  0.00  0.00    +0.000 OA
BRANCH  23  25
ATOM     24  C   UNL     1      -9.404  -2.951 125.910  0.00  0.00    +0.000 C 
ATOM     25  C   UNL     1      -8.648  -1.669 126.244  0.00  0.00    +0.000 C 
ATOM     26  C   UNL     1      -7.456  -2.025 127.135  0.00  0.00    +0.000 C 
ENDBRANCH  23  25
ENDBRANCH  21  23
ENDBRANCH  20  21
ENDBRANCH  18  20
ENDBRANCH  12  18
ENDBRANCH  11  16
ENDBRANCH   1  11
BRANCH   1  27
ATOM     27  C   UNL     1      -9.266   4.278 132.125  0.00  0.00    +0.000 C 
BRANCH  27  28
ATOM     28  C   UNL     1      -9.026   2.787 132.345  0.00  0.00    +0.000 A 
ATOM     29  C   UNL     1      -7.859   2.379 133.002  0.00  0.00    +0.000 A 
ATOM     30  C   UNL     1      -7.413   1.048 132.917  0.00  0.00    +0.000 A 
ATOM     31  C   UNL     1      -8.176   0.070 132.254  0.00  0.00    +0.000 A 
ATOM     32  C   UNL     1      -9.426   0.439 131.728  0.00  0.00    +0.000 A 
ATOM     33  C   UNL     1      -9.861   1.789 131.797  0.00  0.00    +0.000 A 
BRANCH  31  34
ATOM     34  N   UNL     1      -7.620  -1.240 132.080  0.00  0.00    +0.000 N 
ATOM     35  C   UNL     1      -7.319  -1.989 130.946  0.00  0.00    +0.000 A 
ATOM     36  C   UNL     1      -6.820  -3.203 131.362  0.00  0.00    +0.000 A 
ATOM     37  C   UNL     1      -6.972  -3.157 132.748  0.00  0.00    +0.000 A 
ATOM     38  N   UNL     1      -7.357  -1.962 133.193  0.00  0.00    +0.000 NA
ENDBRANCH  31  34
ENDBRANCH  27  28
ENDBRANCH   1  27
TORSDOF 12
ENDMDL
MODEL 8
REMARK VINA RESULT:      -7.9      3.961      8.331
REMARK  Name = Omidenepag isopropyl
REMARK  14 active torsions:
REMARK  status: ('A' for Active; 'I' for Inactive)
REMARK    1  A    between atoms: C_1  and  C_2
REMARK    2  A    between atoms: C_2  and  C_3
REMARK    3  A    between atoms: C_2  and  O_4
REMARK    4  A    between atoms: O_4  and  C_5
REMARK    5  A    between atoms: C_5  and  C_7
REMARK    6  A    between atoms: C_7  and  N_8
REMARK    7  A    between atoms: N_8  and  C_9
REMARK    8  A    between atoms: C_13  and  C_14
REMARK    9  A    between atoms: C_14  and  N_15
REMARK   10  A    between atoms: N_15  and  C_16
REMARK   11  A    between atoms: N_15  and  S_28
REMARK   12  A    between atoms: C_16  and  C_17
REMARK   13  A    between atoms: C_20  and  N_23
REMARK   14  A    between atoms: S_28  and  C_31
REMARK                            x       y       z     vdW  Elec       q    Type
REMARK                         _______ _______ _______ _____ _____    ______ ____
ROOT
ATOM      1  N   UNL     1      -6.828   0.891 127.044  0.00  0.00    +0.000 NA
ENDROOT
BRANCH   1   2
ATOM      2  S   UNL     1      -6.717  -0.863 126.896  0.00  0.00    +0.000 S 
ATOM      3  O   UNL     1      -5.294  -1.191 126.830  0.00  0.00    +0.000 OA
ATOM      4  O   UNL     1      -7.548  -1.430 127.919  0.00  0.00    +0.000 OA
BRANCH   2   5
ATOM      5  C   UNL     1      -7.419  -1.300 125.329  0.00  0.00    +0.000 A 
ATOM      6  C   UNL     1      -6.645  -1.521 124.188  0.00  0.00    +0.000 A 
ATOM      7  C   UNL     1      -7.271  -1.783 122.973  0.00  0.00    +0.000 A 
ATOM      8  C   UNL     1      -8.647  -1.928 122.966  0.00  0.00    +0.000 A 
ATOM      9  N   UNL     1      -9.413  -1.819 124.073  0.00  0.00    +0.000 NA
ATOM     10  C   UNL     1      -8.784  -1.507 125.237  0.00  0.00    +0.000 A 
ENDBRANCH   2   5
ENDBRANCH   1   2
BRANCH   1  11
ATOM     11  C   UNL     1      -6.605   1.240 128.552  0.00  0.00    +0.000 C 
BRANCH  11  16
ATOM     12  C   UNL     1      -8.534   4.243 129.703  0.00  0.00    +0.000 A 
ATOM     13  C   UNL     1      -7.550   4.904 130.373  0.00  0.00    +0.000 A 
ATOM     14  C   UNL     1      -6.265   4.662 130.011  0.00  0.00    +0.000 A 
ATOM     15  C   UNL     1      -5.989   3.510 129.312  0.00  0.00    +0.000 A 
ATOM     16  C   UNL     1      -7.014   2.638 129.022  0.00  0.00    +0.000 A 
ATOM     17  N   UNL     1      -8.315   3.056 129.090  0.00  0.00    +0.000 NA
BRANCH  12  18
ATOM     18  N   UNL     1      -9.724   4.965 129.649  0.00  0.00    +0.000 N 
ATOM     19  H   UNL     1      -9.599   5.887 129.246  0.00  0.00    +0.000 HD
BRANCH  18  20
ATOM     20  C   UNL     1     -10.499   4.973 130.936  0.00  0.00    +0.000 C 
BRANCH  20  21
ATOM     21  C   UNL     1     -11.696   5.859 130.707  0.00  0.00    +0.000 C 
ATOM     22  O   UNL     1     -12.277   6.401 131.642  0.00  0.00    +0.000 OA
BRANCH  21  23
ATOM     23  O   UNL     1     -12.047   5.982 129.396  0.00  0.00    +0.000 OA
BRANCH  23  25
ATOM     24  C   UNL     1     -11.639   8.247 128.634  0.00  0.00    +0.000 C 
ATOM     25  C   UNL     1     -12.688   7.243 129.102  0.00  0.00    +0.000 C 
ATOM     26  C   UNL     1     -13.731   7.076 127.994  0.00  0.00    +0.000 C 
ENDBRANCH  23  25
ENDBRANCH  21  23
ENDBRANCH  20  21
ENDBRANCH  18  20
ENDBRANCH  12  18
ENDBRANCH  11  16
ENDBRANCH   1  11
BRANCH   1  27
ATOM     27  C   UNL     1      -5.892   1.603 126.086  0.00  0.00    +0.000 C 
BRANCH  27  28
ATOM     28  C   UNL     1      -6.458   2.425 124.932  0.00  0.00    +0.000 A 
ATOM     29  C   UNL     1      -7.703   2.073 124.397  0.00  0.00    +0.000 A 
ATOM     30  C   UNL     1      -8.103   2.546 123.134  0.00  0.00    +0.000 A 
ATOM     31  C   UNL     1      -7.310   3.461 122.419  0.00  0.00    +0.000 A 
ATOM     32  C   UNL     1      -6.135   3.941 123.021  0.00  0.00    +0.000 A 
ATOM     33  C   UNL     1      -5.724   3.443 124.286  0.00  0.00    +0.000 A 
BRANCH  31  34
ATOM     34  N   UNL     1      -7.694   3.813 121.083  0.00  0.00    +0.000 N 
ATOM     35  C   UNL     1      -8.926   3.829 120.435  0.00  0.00    +0.000 A 
ATOM     36  C   UNL     1      -8.714   4.233 119.136  0.00  0.00    +0.000 A 
ATOM     37  C   UNL     1      -7.324   4.317 119.046  0.00  0.00    +0.000 A 
ATOM     38  N   UNL     1      -6.714   4.162 120.220  0.00  0.00    +0.000 NA
ENDBRANCH  31  34
ENDBRANCH  27  28
ENDBRANCH   1  27
TORSDOF 12
ENDMDL
MODEL 9
REMARK VINA RESULT:      -7.8      4.899      8.318
REMARK  Name = Omidenepag isopropyl
REMARK  14 active torsions:
REMARK  status: ('A' for Active; 'I' for Inactive)
REMARK    1  A    between atoms: C_1  and  C_2
REMARK    2  A    between atoms: C_2  and  C_3
REMARK    3  A    between atoms: C_2  and  O_4
REMARK    4  A    between atoms: O_4  and  C_5
REMARK    5  A    between atoms: C_5  and  C_7
REMARK    6  A    between atoms: C_7  and  N_8
REMARK    7  A    between atoms: N_8  and  C_9
REMARK    8  A    between atoms: C_13  and  C_14
REMARK    9  A    between atoms: C_14  and  N_15
REMARK   10  A    between atoms: N_15  and  C_16
REMARK   11  A    between atoms: N_15  and  S_28
REMARK   12  A    between atoms: C_16  and  C_17
REMARK   13  A    between atoms: C_20  and  N_23
REMARK   14  A    between atoms: S_28  and  C_31
REMARK                            x       y       z     vdW  Elec       q    Type
REMARK                         _______ _______ _______ _____ _____    ______ ____
ROOT
ATOM      1  N   UNL     1      -7.291   0.455 127.394  0.00  0.00    +0.000 NA
ENDROOT
BRANCH   1   2
ATOM      2  S   UNL     1      -6.601   0.655 125.783  0.00  0.00    +0.000 S 
ATOM      3  O   UNL     1      -6.990   1.986 125.320  0.00  0.00    +0.000 OA
ATOM      4  O   UNL     1      -5.216   0.288 125.864  0.00  0.00    +0.000 OA
BRANCH   2   5
ATOM      5  C   UNL     1      -7.406  -0.514 124.723  0.00  0.00    +0.000 A 
ATOM      6  C   UNL     1      -6.874  -1.774 124.443  0.00  0.00    +0.000 A 
ATOM      7  C   UNL     1      -7.522  -2.609 123.537  0.00  0.00    +0.000 A 
ATOM      8  C   UNL     1      -8.743  -2.199 123.032  0.00  0.00    +0.000 A 
ATOM      9  N   UNL     1      -9.331  -1.029 123.362  0.00  0.00    +0.000 NA
ATOM     10  C   UNL     1      -8.651  -0.206 124.203  0.00  0.00    +0.000 A 
ENDBRANCH   2   5
ENDBRANCH   1   2
BRANCH   1  11
ATOM     11  C   UNL     1      -8.258   1.661 127.632  0.00  0.00    +0.000 C 
BRANCH  11  16
ATOM     12  C   UNL     1      -9.897   3.035 130.714  0.00  0.00    +0.000 A 
ATOM     13  C   UNL     1      -9.625   2.026 131.586  0.00  0.00    +0.000 A 
ATOM     14  C   UNL     1      -8.545   1.245 131.334  0.00  0.00    +0.000 A 
ATOM     15  C   UNL     1      -8.037   1.226 130.056  0.00  0.00    +0.000 A 
ATOM     16  C   UNL     1      -8.648   1.978 129.078  0.00  0.00    +0.000 A 
ATOM     17  N   UNL     1      -9.496   2.996 129.421  0.00  0.00    +0.000 NA
BRANCH  12  18
ATOM     18  N   UNL     1     -10.533   4.113 131.322  0.00  0.00    +0.000 N 
ATOM     19  H   UNL     1     -11.477   3.889 131.619  0.00  0.00    +0.000 HD
BRANCH  18  20
ATOM     20  C   UNL     1     -10.437   5.400 130.553  0.00  0.00    +0.000 C 
BRANCH  20  21
ATOM     21  C   UNL     1     -11.827   5.982 130.520  0.00  0.00    +0.000 C 
ATOM     22  O   UNL     1     -12.387   6.355 131.547  0.00  0.00    +0.000 OA
BRANCH  21  23
ATOM     23  O   UNL     1     -12.369   6.042 129.272  0.00  0.00    +0.000 OA
BRANCH  23  25
ATOM     24  C   UNL     1     -11.923   8.365 128.741  0.00  0.00    +0.000 C 
ATOM     25  C   UNL     1     -12.998   7.312 128.993  0.00  0.00    +0.000 C 
ATOM     26  C   UNL     1     -13.887   7.217 127.751  0.00  0.00    +0.000 C 
ENDBRANCH  23  25
ENDBRANCH  21  23
ENDBRANCH  20  21
ENDBRANCH  18  20
ENDBRANCH  12  18
ENDBRANCH  11  16
ENDBRANCH   1  11
BRANCH   1  27
ATOM     27  C   UNL     1      -7.927  -0.910 127.575  0.00  0.00    +0.000 C 
BRANCH  27  28
ATOM     28  C   UNL     1      -7.211  -1.987 128.383  0.00  0.00    +0.000 A 
ATOM     29  C   UNL     1      -7.882  -2.588 129.455  0.00  0.00    +0.000 A 
ATOM     30  C   UNL     1      -7.175  -3.303 130.438  0.00  0.00    +0.000 A 
ATOM     31  C   UNL     1      -5.791  -3.519 130.321  0.00  0.00    +0.000 A 
ATOM     32  C   UNL     1      -5.137  -3.054 129.167  0.00  0.00    +0.000 A 
ATOM     33  C   UNL     1      -5.851  -2.313 128.189  0.00  0.00    +0.000 A 
BRANCH  31  34
ATOM     34  N   UNL     1      -5.093  -4.139 131.409  0.00  0.00    +0.000 N 
ATOM     35  C   UNL     1      -5.431  -5.179 132.269  0.00  0.00    +0.000 A 
ATOM     36  C   UNL     1      -4.389  -5.353 133.152  0.00  0.00    +0.000 A 
ATOM     37  C   UNL     1      -3.524  -4.303 132.842  0.00  0.00    +0.000 A 
ATOM     38  N   UNL     1      -3.885  -3.634 131.748  0.00  0.00    +0.000 NA
ENDBRANCH  31  34
ENDBRANCH  27  28
ENDBRANCH   1  27
TORSDOF 12
ENDMDL
