MODEL 1
REMARK VINA RESULT:      -7.8      0.000      0.000
REMARK  Name = Ondansetron
REMARK  4 active torsions:
REMARK  status: ('A' for Active; 'I' for Inactive)
REMARK    1  A    between atoms: C_1  and  N_2
REMARK    2  A    between atoms: C_13  and  C_14
REMARK    3  A    between atoms: C_14  and  N_15
REMARK    4  A    between atoms: C_19  and  C_20
REMARK                            x       y       z     vdW  Elec       q    Type
REMARK                         _______ _______ _______ _____ _____    ______ ____
ROOT
ATOM      1  C   UNL     1      -9.574  -3.548 123.989  0.00  0.00    +0.000 C 
ATOM      2  N   UNL     1      -9.075  -2.425 124.763  0.00  0.00    +0.000 N 
ATOM      3  C   UNL     1      -8.903  -1.149 124.308  0.00  0.00    +0.000 A 
ATOM      4  C   UNL     1      -8.414  -0.345 125.320  0.00  0.00    +0.000 A 
ATOM      5  C   UNL     1      -8.275  -1.169 126.443  0.00  0.00    +0.000 A 
ATOM      6  C   UNL     1      -7.802  -0.902 127.732  0.00  0.00    +0.000 A 
ATOM      7  C   UNL     1      -7.733  -1.939 128.648  0.00  0.00    +0.000 A 
ATOM      8  C   UNL     1      -8.132  -3.225 128.287  0.00  0.00    +0.000 A 
ATOM      9  C   UNL     1      -8.610  -3.520 127.002  0.00  0.00    +0.000 A 
ATOM     10  C   UNL     1      -8.672  -2.466 126.085  0.00  0.00    +0.000 A 
ATOM     11  C   UNL     1      -8.098   1.090 125.150  0.00  0.00    +0.000 C 
ATOM     12  O   UNL     1      -7.933   1.859 126.077  0.00  0.00    +0.000 OA
ATOM     13  C   UNL     1      -7.947   1.504 123.688  0.00  0.00    +0.000 C 
ATOM     14  C   UNL     1      -9.086   0.811 122.977  0.00  0.00    +0.000 C 
ATOM     15  C   UNL     1      -9.178  -0.691 122.953  0.00  0.00    +0.000 C 
ENDROOT
BRANCH  13  16
ATOM     16  C   UNL     1      -8.006   3.026 123.378  0.00  0.00    +0.000 C 
BRANCH  16  17
ATOM     17  N   UNL     1      -7.191   3.478 122.222  0.00  0.00    +0.000 N 
ATOM     18  C   UNL     1      -5.834   3.749 122.257  0.00  0.00    +0.000 A 
ATOM     19  C   UNL     1      -5.489   4.131 120.981  0.00  0.00    +0.000 A 
ATOM     20  N   UNL     1      -6.572   4.108 120.165  0.00  0.00    +0.000 NA
ATOM     21  C   UNL     1      -7.605   3.793 120.918  0.00  0.00    +0.000 A 
ATOM     22  C   UNL     1      -8.987   3.817 120.337  0.00  0.00    +0.000 C 
ENDBRANCH  16  17
ENDBRANCH  13  16
TORSDOF 2
ENDMDL
MODEL 2
REMARK VINA RESULT:      -7.0      3.566      8.184
REMARK  Name = Ondansetron
REMARK  4 active torsions:
REMARK  status: ('A' for Active; 'I' for Inactive)
REMARK    1  A    between atoms: C_1  and  N_2
REMARK    2  A    between atoms: C_13  and  C_14
REMARK    3  A    between atoms: C_14  and  N_15
REMARK    4  A    between atoms: C_19  and  C_20
REMARK                            x       y       z     vdW  Elec       q    Type
REMARK                         _______ _______ _______ _____ _____    ______ ____
ROOT
ATOM      1  C   UNL     1      -7.612   1.358 125.316  0.00  0.00    +0.000 C 
ATOM      2  N   UNL     1      -7.943  -0.000 125.708  0.00  0.00    +0.000 N 
ATOM      3  C   UNL     1      -7.826  -0.525 126.963  0.00  0.00    +0.000 A 
ATOM      4  C   UNL     1      -8.234  -1.845 126.967  0.00  0.00    +0.000 A 
ATOM      5  C   UNL     1      -8.611  -2.143 125.652  0.00  0.00    +0.000 A 
ATOM      6  C   UNL     1      -9.077  -3.326 125.070  0.00  0.00    +0.000 A 
ATOM      7  C   UNL     1      -9.337  -3.345 123.709  0.00  0.00    +0.000 A 
ATOM      8  C   UNL     1      -9.139  -2.201 122.938  0.00  0.00    +0.000 A 
ATOM      9  C   UNL     1      -8.675  -1.002 123.497  0.00  0.00    +0.000 A 
ATOM     10  C   UNL     1      -8.411  -0.994 124.870  0.00  0.00    +0.000 A 
ATOM     11  C   UNL     1      -8.212  -2.708 128.167  0.00  0.00    +0.000 C 
ATOM     12  O   UNL     1      -8.811  -3.763 128.251  0.00  0.00    +0.000 OA
ATOM     13  C   UNL     1      -7.316  -2.170 129.281  0.00  0.00    +0.000 C 
ATOM     14  C   UNL     1      -7.614  -0.689 129.324  0.00  0.00    +0.000 C 
ATOM     15  C   UNL     1      -7.332   0.188 128.134  0.00  0.00    +0.000 C 
ENDROOT
BRANCH  13  16
ATOM     16  C   UNL     1      -7.519  -2.770 130.700  0.00  0.00    +0.000 C 
BRANCH  16  17
ATOM     17  N   UNL     1      -6.284  -2.948 131.504  0.00  0.00    +0.000 N 
ATOM     18  C   UNL     1      -5.681  -1.965 132.271  0.00  0.00    +0.000 A 
ATOM     19  C   UNL     1      -4.576  -2.553 132.842  0.00  0.00    +0.000 A 
ATOM     20  N   UNL     1      -4.473  -3.850 132.460  0.00  0.00    +0.000 NA
ATOM     21  C   UNL     1      -5.445  -4.069 131.601  0.00  0.00    +0.000 A 
ATOM     22  C   UNL     1      -5.526  -5.383 130.883  0.00  0.00    +0.000 C 
ENDBRANCH  16  17
ENDBRANCH  13  16
TORSDOF 2
ENDMDL
MODEL 3
REMARK VINA RESULT:      -7.0      8.611     10.691
REMARK  Name = Ondansetron
REMARK  4 active torsions:
REMARK  status: ('A' for Active; 'I' for Inactive)
REMARK    1  A    between atoms: C_1  and  N_2
REMARK    2  A    between atoms: C_13  and  C_14
REMARK    3  A    between atoms: C_14  and  N_15
REMARK    4  A    between atoms: C_19  and  C_20
REMARK                            x       y       z     vdW  Elec       q    Type
REMARK                         _______ _______ _______ _____ _____    ______ ____
ROOT
ATOM      1  C   UNL     1     -13.079   7.510 131.483  0.00  0.00    +0.000 C 
ATOM      2  N   UNL     1     -11.933   7.156 130.664  0.00  0.00    +0.000 N 
ATOM      3  C   UNL     1     -10.766   6.605 131.111  0.00  0.00    +0.000 A 
ATOM      4  C   UNL     1      -9.901   6.400 130.054  0.00  0.00    +0.000 A 
ATOM      5  C   UNL     1     -10.568   6.853 128.908  0.00  0.00    +0.000 A 
ATOM      6  C   UNL     1     -10.167   6.914 127.570  0.00  0.00    +0.000 A 
ATOM      7  C   UNL     1     -11.032   7.461 126.636  0.00  0.00    +0.000 A 
ATOM      8  C   UNL     1     -12.282   7.938 127.029  0.00  0.00    +0.000 A 
ATOM      9  C   UNL     1     -12.708   7.888 128.364  0.00  0.00    +0.000 A 
ATOM     10  C   UNL     1     -11.825   7.338 129.298  0.00  0.00    +0.000 A 
ATOM     11  C   UNL     1      -8.543   5.836 130.201  0.00  0.00    +0.000 C 
ATOM     12  O   UNL     1      -7.887   5.402 129.273  0.00  0.00    +0.000 OA
ATOM     13  C   UNL     1      -8.016   5.897 131.633  0.00  0.00    +0.000 C 
ATOM     14  C   UNL     1      -9.190   5.479 132.487  0.00  0.00    +0.000 C 
ATOM     15  C   UNL     1     -10.460   6.287 132.499  0.00  0.00    +0.000 C 
ENDROOT
BRANCH  13  16
ATOM     16  C   UNL     1      -6.794   4.999 131.973  0.00  0.00    +0.000 C 
BRANCH  16  17
ATOM     17  N   UNL     1      -5.611   5.707 132.524  0.00  0.00    +0.000 N 
ATOM     18  C   UNL     1      -5.164   5.620 133.832  0.00  0.00    +0.000 A 
ATOM     19  C   UNL     1      -4.051   6.426 133.907  0.00  0.00    +0.000 A 
ATOM     20  N   UNL     1      -3.796   7.004 132.707  0.00  0.00    +0.000 NA
ATOM     21  C   UNL     1      -4.768   6.639 131.899  0.00  0.00    +0.000 A 
ATOM     22  C   UNL     1      -4.852   7.224 130.521  0.00  0.00    +0.000 C 
ENDBRANCH  16  17
ENDBRANCH  13  16
TORSDOF 2
ENDMDL
MODEL 4
REMARK VINA RESULT:      -6.9      3.983      5.420
REMARK  Name = Ondansetron
REMARK  4 active torsions:
REMARK  status: ('A' for Active; 'I' for Inactive)
REMARK    1  A    between atoms: C_1  and  N_2
REMARK    2  A    between atoms: C_13  and  C_14
REMARK    3  A    between atoms: C_14  and  N_15
REMARK    4  A    between atoms: C_19  and  C_20
REMARK                            x       y       z     vdW  Elec       q    Type
REMARK                         _______ _______ _______ _____ _____    ______ ____
ROOT
ATOM      1  C   UNL     1      -6.588  -1.793 131.032  0.00  0.00    +0.000 C 
ATOM      2  N   UNL     1      -6.759  -1.554 129.610  0.00  0.00    +0.000 N 
ATOM      3  C   UNL     1      -6.191  -0.542 128.891  0.00  0.00    +0.000 A 
ATOM      4  C   UNL     1      -6.572  -0.626 127.566  0.00  0.00    +0.000 A 
ATOM      5  C   UNL     1      -7.417  -1.739 127.472  0.00  0.00    +0.000 A 
ATOM      6  C   UNL     1      -8.111  -2.282 126.386  0.00  0.00    +0.000 A 
ATOM      7  C   UNL     1      -8.925  -3.384 126.595  0.00  0.00    +0.000 A 
ATOM      8  C   UNL     1      -9.044  -3.940 127.868  0.00  0.00    +0.000 A 
ATOM      9  C   UNL     1      -8.358  -3.416 128.973  0.00  0.00    +0.000 A 
ATOM     10  C   UNL     1      -7.543  -2.302 128.751  0.00  0.00    +0.000 A 
ATOM     11  C   UNL     1      -6.146   0.333 126.525  0.00  0.00    +0.000 C 
ATOM     12  O   UNL     1      -6.243   0.123 125.332  0.00  0.00    +0.000 OA
ATOM     13  C   UNL     1      -5.615   1.646 127.097  0.00  0.00    +0.000 C 
ATOM     14  C   UNL     1      -4.739   1.228 128.255  0.00  0.00    +0.000 C 
ATOM     15  C   UNL     1      -5.319   0.493 129.433  0.00  0.00    +0.000 C 
ENDROOT
BRANCH  13  16
ATOM     16  C   UNL     1      -4.792   2.550 126.137  0.00  0.00    +0.000 C 
BRANCH  16  17
ATOM     17  N   UNL     1      -4.109   3.706 126.772  0.00  0.00    +0.000 N 
ATOM     18  C   UNL     1      -4.730   4.872 127.186  0.00  0.00    +0.000 A 
ATOM     19  C   UNL     1      -3.737   5.664 127.714  0.00  0.00    +0.000 A 
ATOM     20  N   UNL     1      -2.536   5.039 127.642  0.00  0.00    +0.000 NA
ATOM     21  C   UNL     1      -2.740   3.902 127.011  0.00  0.00    +0.000 A 
ATOM     22  C   UNL     1      -1.576   3.031 126.647  0.00  0.00    +0.000 C 
ENDBRANCH  16  17
ENDBRANCH  13  16
TORSDOF 2
ENDMDL
MODEL 5
REMARK VINA RESULT:      -6.8      7.560      9.007
REMARK  Name = Ondansetron
REMARK  4 active torsions:
REMARK  status: ('A' for Active; 'I' for Inactive)
REMARK    1  A    between atoms: C_1  and  N_2
REMARK    2  A    between atoms: C_13  and  C_14
REMARK    3  A    between atoms: C_14  and  N_15
REMARK    4  A    between atoms: C_19  and  C_20
REMARK                            x       y       z     vdW  Elec       q    Type
REMARK                         _______ _______ _______ _____ _____    ______ ____
ROOT
ATOM      1  C   UNL     1      -5.521   3.078 134.110  0.00  0.00    +0.000 C 
ATOM      2  N   UNL     1      -6.572   3.040 133.109  0.00  0.00    +0.000 N 
ATOM      3  C   UNL     1      -7.118   4.120 132.476  0.00  0.00    +0.000 A 
ATOM      4  C   UNL     1      -8.091   3.709 131.585  0.00  0.00    +0.000 A 
ATOM      5  C   UNL     1      -8.147   2.313 131.684  0.00  0.00    +0.000 A 
ATOM      6  C   UNL     1      -8.960   1.374 131.041  0.00  0.00    +0.000 A 
ATOM      7  C   UNL     1      -8.825   0.035 131.371  0.00  0.00    +0.000 A 
ATOM      8  C   UNL     1      -7.891  -0.365 132.327  0.00  0.00    +0.000 A 
ATOM      9  C   UNL     1      -7.064   0.556 132.985  0.00  0.00    +0.000 A 
ATOM     10  C   UNL     1      -7.211   1.905 132.647  0.00  0.00    +0.000 A 
ATOM     11  C   UNL     1      -8.889   4.635 130.754  0.00  0.00    +0.000 C 
ATOM     12  O   UNL     1      -9.540   4.285 129.788  0.00  0.00    +0.000 OA
ATOM     13  C   UNL     1      -8.860   6.076 131.258  0.00  0.00    +0.000 C 
ATOM     14  C   UNL     1      -7.414   6.319 131.625  0.00  0.00    +0.000 C 
ATOM     15  C   UNL     1      -6.747   5.511 132.705  0.00  0.00    +0.000 C 
ENDROOT
BRANCH  13  16
ATOM     16  C   UNL     1      -9.325   7.179 130.267  0.00  0.00    +0.000 C 
BRANCH  16  17
ATOM     17  N   UNL     1     -10.794   7.362 130.154  0.00  0.00    +0.000 N 
ATOM     18  C   UNL     1     -11.724   6.963 131.099  0.00  0.00    +0.000 A 
ATOM     19  C   UNL     1     -12.953   7.324 130.597  0.00  0.00    +0.000 A 
ATOM     20  N   UNL     1     -12.820   7.924 129.389  0.00  0.00    +0.000 NA
ATOM     21  C   UNL     1     -11.541   7.880 129.085  0.00  0.00    +0.000 A 
ATOM     22  C   UNL     1     -11.077   8.345 127.737  0.00  0.00    +0.000 C 
ENDBRANCH  16  17
ENDBRANCH  13  16
TORSDOF 2
ENDMDL
MODEL 6
REMARK VINA RESULT:      -6.8      4.166      7.353
REMARK  Name = Ondansetron
REMARK  4 active torsions:
REMARK  status: ('A' for Active; 'I' for Inactive)
REMARK    1  A    between atoms: C_1  and  N_2
REMARK    2  A    between atoms: C_13  and  C_14
REMARK    3  A    between atoms: C_14  and  N_15
REMARK    4  A    between atoms: C_19  and  C_20
REMARK                            x       y       z     vdW  Elec       q    Type
REMARK                         _______ _______ _______ _____ _____    ______ ____
ROOT
ATOM      1  C   UNL     1      -9.164   2.222 122.393  0.00  0.00    +0.000 C 
ATOM      2  N   UNL     1      -7.905   2.801 122.828  0.00  0.00    +0.000 N 
ATOM      3  C   UNL     1      -7.422   2.805 124.105  0.00  0.00    +0.000 A 
ATOM      4  C   UNL     1      -6.196   3.440 124.148  0.00  0.00    +0.000 A 
ATOM      5  C   UNL     1      -5.920   3.849 122.838  0.00  0.00    +0.000 A 
ATOM      6  C   UNL     1      -4.840   4.555 122.299  0.00  0.00    +0.000 A 
ATOM      7  C   UNL     1      -4.851   4.866 120.949  0.00  0.00    +0.000 A 
ATOM      8  C   UNL     1      -5.921   4.477 120.145  0.00  0.00    +0.000 A 
ATOM      9  C   UNL     1      -7.016   3.768 120.660  0.00  0.00    +0.000 A 
ATOM     10  C   UNL     1      -6.996   3.463 122.024  0.00  0.00    +0.000 A 
ATOM     11  C   UNL     1      -5.413   3.632 125.388  0.00  0.00    +0.000 C 
ATOM     12  O   UNL     1      -4.235   3.936 125.402  0.00  0.00    +0.000 OA
ATOM     13  C   UNL     1      -6.243   3.462 126.658  0.00  0.00    +0.000 C 
ATOM     14  C   UNL     1      -7.098   2.245 126.392  0.00  0.00    +0.000 C 
ATOM     15  C   UNL     1      -8.096   2.237 125.265  0.00  0.00    +0.000 C 
ENDROOT
BRANCH  13  16
ATOM     16  C   UNL     1      -5.464   3.255 127.987  0.00  0.00    +0.000 C 
BRANCH  16  17
ATOM     17  N   UNL     1      -5.422   4.428 128.895  0.00  0.00    +0.000 N 
ATOM     18  C   UNL     1      -4.292   5.174 129.186  0.00  0.00    +0.000 A 
ATOM     19  C   UNL     1      -4.699   6.156 130.060  0.00  0.00    +0.000 A 
ATOM     20  N   UNL     1      -6.026   6.045 130.320  0.00  0.00    +0.000 NA
ATOM     21  C   UNL     1      -6.445   4.970 129.688  0.00  0.00    +0.000 A 
ATOM     22  C   UNL     1      -7.852   4.490 129.885  0.00  0.00    +0.000 C 
ENDBRANCH  16  17
ENDBRANCH  13  16
TORSDOF 2
ENDMDL
MODEL 7
REMARK VINA RESULT:      -6.8      8.850     10.518
REMARK  Name = Ondansetron
REMARK  4 active torsions:
REMARK  status: ('A' for Active; 'I' for Inactive)
REMARK    1  A    between atoms: C_1  and  N_2
REMARK    2  A    between atoms: C_13  and  C_14
REMARK    3  A    between atoms: C_14  and  N_15
REMARK    4  A    between atoms: C_19  and  C_20
REMARK                            x       y       z     vdW  Elec       q    Type
REMARK                         _______ _______ _______ _____ _____    ______ ____
ROOT
ATOM      1  C   UNL     1      -4.448   3.820 134.687  0.00  0.00    +0.000 C 
ATOM      2  N   UNL     1      -4.451   4.733 133.558  0.00  0.00    +0.000 N 
ATOM      3  C   UNL     1      -5.555   5.286 132.975  0.00  0.00    +0.000 A 
ATOM      4  C   UNL     1      -5.181   6.108 131.930  0.00  0.00    +0.000 A 
ATOM      5  C   UNL     1      -3.783   6.049 131.866  0.00  0.00    +0.000 A 
ATOM      6  C   UNL     1      -2.872   6.653 130.994  0.00  0.00    +0.000 A 
ATOM      7  C   UNL     1      -1.522   6.378 131.140  0.00  0.00    +0.000 A 
ATOM      8  C   UNL     1      -1.085   5.514 132.143  0.00  0.00    +0.000 A 
ATOM      9  C   UNL     1      -1.976   4.896 133.031  0.00  0.00    +0.000 A 
ATOM     10  C   UNL     1      -3.337   5.178 132.872  0.00  0.00    +0.000 A 
ATOM     11  C   UNL     1      -6.140   6.843 131.078  0.00  0.00    +0.000 C 
ATOM     12  O   UNL     1      -5.827   7.764 130.348  0.00  0.00    +0.000 OA
ATOM     13  C   UNL     1      -7.564   6.297 131.164  0.00  0.00    +0.000 C 
ATOM     14  C   UNL     1      -7.783   6.040 132.637  0.00  0.00    +0.000 C 
ATOM     15  C   UNL     1      -6.934   5.044 133.379  0.00  0.00    +0.000 C 
ENDROOT
BRANCH  13  16
ATOM     16  C   UNL     1      -8.702   7.212 130.633  0.00  0.00    +0.000 C 
BRANCH  16  17
ATOM     17  N   UNL     1      -9.949   6.516 130.227  0.00  0.00    +0.000 N 
ATOM     18  C   UNL     1     -10.375   5.292 130.714  0.00  0.00    +0.000 A 
ATOM     19  C   UNL     1     -11.566   5.024 130.077  0.00  0.00    +0.000 A 
ATOM     20  N   UNL     1     -11.888   6.026 129.223  0.00  0.00    +0.000 NA
ATOM     21  C   UNL     1     -10.889   6.882 129.251  0.00  0.00    +0.000 A 
ATOM     22  C   UNL     1     -10.876   8.046 128.306  0.00  0.00    +0.000 C 
ENDBRANCH  16  17
ENDBRANCH  13  16
TORSDOF 2
ENDMDL
MODEL 8
REMARK VINA RESULT:      -6.7      8.611     10.727
REMARK  Name = Ondansetron
REMARK  4 active torsions:
REMARK  status: ('A' for Active; 'I' for Inactive)
REMARK    1  A    between atoms: C_1  and  N_2
REMARK    2  A    between atoms: C_13  and  C_14
REMARK    3  A    between atoms: C_14  and  N_15
REMARK    4  A    between atoms: C_19  and  C_20
REMARK                            x       y       z     vdW  Elec       q    Type
REMARK                         _______ _______ _______ _____ _____    ______ ____
ROOT
ATOM      1  C   UNL     1      -3.289   4.496 133.927  0.00  0.00    +0.000 C 
ATOM      2  N   UNL     1      -4.098   5.190 132.940  0.00  0.00    +0.000 N 
ATOM      3  C   UNL     1      -5.449   5.379 132.998  0.00  0.00    +0.000 A 
ATOM      4  C   UNL     1      -5.880   6.082 131.890  0.00  0.00    +0.000 A 
ATOM      5  C   UNL     1      -4.740   6.328 131.115  0.00  0.00    +0.000 A 
ATOM      6  C   UNL     1      -4.581   6.971 129.883  0.00  0.00    +0.000 A 
ATOM      7  C   UNL     1      -3.318   7.032 129.318  0.00  0.00    +0.000 A 
ATOM      8  C   UNL     1      -2.226   6.463 129.971  0.00  0.00    +0.000 A 
ATOM      9  C   UNL     1      -2.357   5.814 131.206  0.00  0.00    +0.000 A 
ATOM     10  C   UNL     1      -3.637   5.755 131.766  0.00  0.00    +0.000 A 
ATOM     11  C   UNL     1      -7.293   6.436 131.638  0.00  0.00    +0.000 C 
ATOM     12  O   UNL     1      -7.647   7.272 130.829  0.00  0.00    +0.000 OA
ATOM     13  C   UNL     1      -8.277   5.607 132.461  0.00  0.00    +0.000 C 
ATOM     14  C   UNL     1      -7.664   5.550 133.841  0.00  0.00    +0.000 C 
ATOM     15  C   UNL     1      -6.324   4.903 134.063  0.00  0.00    +0.000 C 
ENDROOT
BRANCH  13  16
ATOM     16  C   UNL     1      -9.731   6.145 132.572  0.00  0.00    +0.000 C 
BRANCH  16  17
ATOM     17  N   UNL     1     -10.578   5.960 131.367  0.00  0.00    +0.000 N 
ATOM     18  C   UNL     1     -11.414   6.920 130.822  0.00  0.00    +0.000 A 
ATOM     19  C   UNL     1     -12.001   6.333 129.725  0.00  0.00    +0.000 A 
ATOM     20  N   UNL     1     -11.565   5.059 129.572  0.00  0.00    +0.000 NA
ATOM     21  C   UNL     1     -10.775   4.806 130.593  0.00  0.00    +0.000 A 
ATOM     22  C   UNL     1     -10.231   3.422 130.792  0.00  0.00    +0.000 C 
ENDBRANCH  16  17
ENDBRANCH  13  16
TORSDOF 2
ENDMDL
MODEL 9
REMARK VINA RESULT:      -6.7      3.344      4.165
REMARK  Name = Ondansetron
REMARK  4 active torsions:
REMARK  status: ('A' for Active; 'I' for Inactive)
REMARK    1  A    between atoms: C_1  and  N_2
REMARK    2  A    between atoms: C_13  and  C_14
REMARK    3  A    between atoms: C_14  and  N_15
REMARK    4  A    between atoms: C_19  and  C_20
REMARK                            x       y       z     vdW  Elec       q    Type
REMARK                         _______ _______ _______ _____ _____    ______ ____
ROOT
ATOM      1  C   UNL     1      -8.805  -2.619 123.952  0.00  0.00    +0.000 C 
ATOM      2  N   UNL     1      -8.317  -1.935 125.136  0.00  0.00    +0.000 N 
ATOM      3  C   UNL     1      -7.712  -0.710 125.164  0.00  0.00    +0.000 A 
ATOM      4  C   UNL     1      -7.383  -0.372 126.462  0.00  0.00    +0.000 A 
ATOM      5  C   UNL     1      -7.799  -1.442 127.264  0.00  0.00    +0.000 A 
ATOM      6  C   UNL     1      -7.699  -1.658 128.642  0.00  0.00    +0.000 A 
ATOM      7  C   UNL     1      -8.167  -2.851 129.169  0.00  0.00    +0.000 A 
ATOM      8  C   UNL     1      -8.730  -3.816 128.335  0.00  0.00    +0.000 A 
ATOM      9  C   UNL     1      -8.843  -3.625 126.951  0.00  0.00    +0.000 A 
ATOM     10  C   UNL     1      -8.364  -2.419 126.429  0.00  0.00    +0.000 A 
ATOM     11  C   UNL     1      -6.697   0.883 126.836  0.00  0.00    +0.000 C 
ATOM     12  O   UNL     1      -6.647   1.313 127.973  0.00  0.00    +0.000 OA
ATOM     13  C   UNL     1      -6.006   1.566 125.658  0.00  0.00    +0.000 C 
ATOM     14  C   UNL     1      -7.001   1.465 124.525  0.00  0.00    +0.000 C 
ATOM     15  C   UNL     1      -7.437   0.123 124.001  0.00  0.00    +0.000 C 
ENDROOT
BRANCH  13  16
ATOM     16  C   UNL     1      -5.600   3.055 125.846  0.00  0.00    +0.000 C 
BRANCH  16  17
ATOM     17  N   UNL     1      -4.380   3.290 126.658  0.00  0.00    +0.000 N 
ATOM     18  C   UNL     1      -3.116   2.811 126.358  0.00  0.00    +0.000 A 
ATOM     19  C   UNL     1      -2.292   3.261 127.364  0.00  0.00    +0.000 A 
ATOM     20  N   UNL     1      -2.991   3.991 128.267  0.00  0.00    +0.000 NA
ATOM     21  C   UNL     1      -4.252   3.947 127.892  0.00  0.00    +0.000 A 
ATOM     22  C   UNL     1      -5.312   4.549 128.764  0.00  0.00    +0.000 C 
ENDBRANCH  16  17
ENDBRANCH  13  16
TORSDOF 2
ENDMDL
