MODEL 1
REMARK VINA RESULT:      -8.3      0.000      0.000
REMARK  Name = Opicapone
REMARK  7 active torsions:
REMARK  status: ('A' for Active; 'I' for Inactive)
REMARK    1  A    between atoms: C_1  and  C_2
REMARK    2  A    between atoms: C_3  and  C_4
REMARK    3  A    between atoms: C_7  and  C_9
REMARK    4  A    between atoms: C_11  and  N_17
REMARK    5  A    between atoms: C_12  and  O_13
REMARK    6  A    between atoms: C_14  and  O_15
REMARK    7  A    between atoms: C_24  and  C_25
REMARK                            x       y       z     vdW  Elec       q    Type
REMARK                         _______ _______ _______ _____ _____    ______ ____
ROOT
ATOM      1  C   UNL     1      -8.373   1.141 124.776  0.00  0.00    +0.000 A 
ATOM      2  N   UNL     1      -9.333   2.078 124.756  0.00  0.00    +0.000 NA
ATOM      3  O   UNL     1      -8.923   2.941 123.736  0.00  0.00    +0.000 OA
ATOM      4  C   UNL     1      -7.744   2.443 123.257  0.00  0.00    +0.000 A 
ATOM      5  N   UNL     1      -7.367   1.338 123.857  0.00  0.00    +0.000 NA
ENDROOT
BRANCH   1   8
ATOM      6  C   UNL     1      -7.549   1.622 127.576  0.00  0.00    +0.000 C 
ATOM      7  C   UNL     1      -7.919   0.249 127.058  0.00  0.00    +0.000 A 
ATOM      8  C   UNL     1      -8.337   0.035 125.724  0.00  0.00    +0.000 A 
ATOM      9  C   UNL     1      -8.692  -1.262 125.299  0.00  0.00    +0.000 A 
ATOM     10 CL   UNL     1      -9.191  -1.560 123.650  0.00  0.00    +0.000 Cl
ATOM     11  N   UNL     1      -8.619  -2.348 126.189  0.00  0.00    +0.000 N 
ATOM     12  O   UNL     1      -8.929  -3.526 125.800  0.00  0.00    +0.000 OA
ATOM     13  C   UNL     1      -8.198  -2.144 127.504  0.00  0.00    +0.000 A 
ATOM     14  C   UNL     1      -8.130  -3.333 128.420  0.00  0.00    +0.000 C 
ATOM     15  C   UNL     1      -7.854  -0.852 127.932  0.00  0.00    +0.000 A 
ATOM     16 CL   UNL     1      -7.335  -0.624 129.577  0.00  0.00    +0.000 Cl
ENDBRANCH   1   8
BRANCH   4  17
ATOM     17  C   UNL     1      -7.090   3.215 122.213  0.00  0.00    +0.000 A 
ATOM     18  C   UNL     1      -7.731   3.438 120.984  0.00  0.00    +0.000 A 
ATOM     19  C   UNL     1      -7.106   4.202 119.981  0.00  0.00    +0.000 A 
ATOM     20  C   UNL     1      -5.836   4.748 120.194  0.00  0.00    +0.000 A 
ATOM     21  C   UNL     1      -5.212   4.525 121.423  0.00  0.00    +0.000 A 
ATOM     22  C   UNL     1      -5.826   3.778 122.428  0.00  0.00    +0.000 A 
BRANCH  19  23
ATOM     23  N   UNL     1      -7.813   4.413 118.717  0.00  0.00    +0.000 N 
ATOM     24  O   UNL     1      -9.046   4.544 118.755  0.00  0.00    +0.000 OA
ATOM     25  O   UNL     1      -7.134   4.448 117.680  0.00  0.00    +0.000 OA
ENDBRANCH  19  23
BRANCH  20  26
ATOM     26  O   UNL     1      -5.130   5.500 119.289  0.00  0.00    +0.000 OA
ATOM     27  H   UNL     1      -5.334   6.453 119.424  0.00  0.00    +0.000 HD
ENDBRANCH  20  26
BRANCH  21  28
ATOM     28  O   UNL     1      -3.968   5.037 121.675  0.00  0.00    +0.000 OA
ATOM     29  H   UNL     1      -4.041   5.537 122.513  0.00  0.00    +0.000 HD
ENDBRANCH  21  28
ENDBRANCH   4  17
TORSDOF 5
ENDMDL
MODEL 2
REMARK VINA RESULT:      -8.2      1.636      2.332
REMARK  Name = Opicapone
REMARK  7 active torsions:
REMARK  status: ('A' for Active; 'I' for Inactive)
REMARK    1  A    between atoms: C_1  and  C_2
REMARK    2  A    between atoms: C_3  and  C_4
REMARK    3  A    between atoms: C_7  and  C_9
REMARK    4  A    between atoms: C_11  and  N_17
REMARK    5  A    between atoms: C_12  and  O_13
REMARK    6  A    between atoms: C_14  and  O_15
REMARK    7  A    between atoms: C_24  and  C_25
REMARK                            x       y       z     vdW  Elec       q    Type
REMARK                         _______ _______ _______ _____ _____    ______ ____
ROOT
ATOM      1  C   UNL     1      -8.136   1.404 125.043  0.00  0.00    +0.000 A 
ATOM      2  N   UNL     1      -9.167   2.254 124.919  0.00  0.00    +0.000 NA
ATOM      3  O   UNL     1      -8.799   3.054 123.834  0.00  0.00    +0.000 OA
ATOM      4  C   UNL     1      -7.571   2.615 123.426  0.00  0.00    +0.000 A 
ATOM      5  N   UNL     1      -7.124   1.602 124.131  0.00  0.00    +0.000 NA
ENDROOT
BRANCH   1   8
ATOM      6  C   UNL     1      -8.889  -1.396 124.459  0.00  0.00    +0.000 C 
ATOM      7  C   UNL     1      -8.422  -0.944 125.826  0.00  0.00    +0.000 A 
ATOM      8  C   UNL     1      -8.039   0.392 126.086  0.00  0.00    +0.000 A 
ATOM      9  C   UNL     1      -7.589   0.754 127.373  0.00  0.00    +0.000 A 
ATOM     10 CL   UNL     1      -7.130   2.404 127.730  0.00  0.00    +0.000 Cl
ATOM     11  N   UNL     1      -7.532  -0.200 128.403  0.00  0.00    +0.000 N 
ATOM     12  O   UNL     1      -7.137   0.132 129.574  0.00  0.00    +0.000 OA
ATOM     13  C   UNL     1      -7.918  -1.518 128.153  0.00  0.00    +0.000 A 
ATOM     14  C   UNL     1      -7.847  -2.504 129.284  0.00  0.00    +0.000 C 
ATOM     15  C   UNL     1      -8.357  -1.884 126.871  0.00  0.00    +0.000 A 
ATOM     16 CL   UNL     1      -8.829  -3.534 126.585  0.00  0.00    +0.000 Cl
ENDBRANCH   1   8
BRANCH   4  17
ATOM     17  C   UNL     1      -6.952   3.344 122.331  0.00  0.00    +0.000 A 
ATOM     18  C   UNL     1      -7.626   3.502 121.110  0.00  0.00    +0.000 A 
ATOM     19  C   UNL     1      -7.034   4.224 120.057  0.00  0.00    +0.000 A 
ATOM     20  C   UNL     1      -5.766   4.792 120.211  0.00  0.00    +0.000 A 
ATOM     21  C   UNL     1      -5.109   4.633 121.433  0.00  0.00    +0.000 A 
ATOM     22  C   UNL     1      -5.689   3.928 122.487  0.00  0.00    +0.000 A 
BRANCH  19  23
ATOM     23  N   UNL     1      -7.776   4.368 118.802  0.00  0.00    +0.000 N 
ATOM     24  O   UNL     1      -7.125   4.463 117.750  0.00  0.00    +0.000 OA
ATOM     25  O   UNL     1      -9.014   4.386 118.868  0.00  0.00    +0.000 OA
ENDBRANCH  19  23
BRANCH  20  26
ATOM     26  O   UNL     1      -5.091   5.508 119.255  0.00  0.00    +0.000 OA
ATOM     27  H   UNL     1      -5.701   6.160 118.842  0.00  0.00    +0.000 HD
ENDBRANCH  20  26
BRANCH  21  28
ATOM     28  O   UNL     1      -3.865   5.169 121.629  0.00  0.00    +0.000 OA
ATOM     29  H   UNL     1      -3.292   4.798 120.928  0.00  0.00    +0.000 HD
ENDBRANCH  21  28
ENDBRANCH   4  17
TORSDOF 5
ENDMDL
MODEL 3
REMARK VINA RESULT:      -8.0      2.842      8.811
REMARK  Name = Opicapone
REMARK  7 active torsions:
REMARK  status: ('A' for Active; 'I' for Inactive)
REMARK    1  A    between atoms: C_1  and  C_2
REMARK    2  A    between atoms: C_3  and  C_4
REMARK    3  A    between atoms: C_7  and  C_9
REMARK    4  A    between atoms: C_11  and  N_17
REMARK    5  A    between atoms: C_12  and  O_13
REMARK    6  A    between atoms: C_14  and  O_15
REMARK    7  A    between atoms: C_24  and  C_25
REMARK                            x       y       z     vdW  Elec       q    Type
REMARK                         _______ _______ _______ _____ _____    ______ ____
ROOT
ATOM      1  C   UNL     1      -7.622   2.631 123.879  0.00  0.00    +0.000 A 
ATOM      2  N   UNL     1      -8.466   3.160 124.778  0.00  0.00    +0.000 NA
ATOM      3  O   UNL     1      -8.743   2.089 125.632  0.00  0.00    +0.000 OA
ATOM      4  C   UNL     1      -8.049   1.016 125.147  0.00  0.00    +0.000 A 
ATOM      5  N   UNL     1      -7.341   1.299 124.078  0.00  0.00    +0.000 NA
ENDROOT
BRANCH   1   8
ATOM      6  C   UNL     1      -9.165   2.783 121.360  0.00  0.00    +0.000 C 
ATOM      7  C   UNL     1      -7.802   3.421 121.522  0.00  0.00    +0.000 A 
ATOM      8  C   UNL     1      -7.085   3.365 122.740  0.00  0.00    +0.000 A 
ATOM      9  C   UNL     1      -5.828   3.996 122.844  0.00  0.00    +0.000 A 
ATOM     10 CL   UNL     1      -4.909   3.924 124.330  0.00  0.00    +0.000 Cl
ATOM     11  N   UNL     1      -5.276   4.669 121.741  0.00  0.00    +0.000 N 
ATOM     12  O   UNL     1      -4.130   5.230 121.832  0.00  0.00    +0.000 OA
ATOM     13  C   UNL     1      -5.975   4.719 120.534  0.00  0.00    +0.000 A 
ATOM     14  C   UNL     1      -5.345   5.444 119.379  0.00  0.00    +0.000 C 
ATOM     15  C   UNL     1      -7.231   4.100 120.431  0.00  0.00    +0.000 A 
ATOM     16 CL   UNL     1      -8.083   4.180 118.916  0.00  0.00    +0.000 Cl
ENDBRANCH   1   8
BRANCH   4  17
ATOM     17  C   UNL     1      -8.227  -0.244 125.850  0.00  0.00    +0.000 A 
ATOM     18  C   UNL     1      -7.549  -0.490 127.054  0.00  0.00    +0.000 A 
ATOM     19  C   UNL     1      -7.738  -1.703 127.743  0.00  0.00    +0.000 A 
ATOM     20  C   UNL     1      -8.601  -2.680 127.237  0.00  0.00    +0.000 A 
ATOM     21  C   UNL     1      -9.275  -2.419 126.042  0.00  0.00    +0.000 A 
ATOM     22  C   UNL     1      -9.104  -1.218 125.355  0.00  0.00    +0.000 A 
BRANCH  19  23
ATOM     23  N   UNL     1      -7.014  -1.915 128.998  0.00  0.00    +0.000 N 
ATOM     24  O   UNL     1      -7.671  -2.230 130.002  0.00  0.00    +0.000 OA
ATOM     25  O   UNL     1      -5.783  -1.768 128.981  0.00  0.00    +0.000 OA
ENDBRANCH  19  23
BRANCH  20  26
ATOM     26  O   UNL     1      -8.856  -3.896 127.818  0.00  0.00    +0.000 OA
ATOM     27  H   UNL     1      -8.473  -4.612 127.262  0.00  0.00    +0.000 HD
ENDBRANCH  20  26
BRANCH  21  28
ATOM     28  O   UNL     1     -10.127  -3.347 125.508  0.00  0.00    +0.000 OA
ATOM     29  H   UNL     1     -10.574  -2.908 124.755  0.00  0.00    +0.000 HD
ENDBRANCH  21  28
ENDBRANCH   4  17
TORSDOF 5
ENDMDL
MODEL 4
REMARK VINA RESULT:      -7.9      4.863      7.977
REMARK  Name = Opicapone
REMARK  7 active torsions:
REMARK  status: ('A' for Active; 'I' for Inactive)
REMARK    1  A    between atoms: C_1  and  C_2
REMARK    2  A    between atoms: C_3  and  C_4
REMARK    3  A    between atoms: C_7  and  C_9
REMARK    4  A    between atoms: C_11  and  N_17
REMARK    5  A    between atoms: C_12  and  O_13
REMARK    6  A    between atoms: C_14  and  O_15
REMARK    7  A    between atoms: C_24  and  C_25
REMARK                            x       y       z     vdW  Elec       q    Type
REMARK                         _______ _______ _______ _____ _____    ______ ____
ROOT
ATOM      1  C   UNL     1      -8.081   1.344 127.377  0.00  0.00    +0.000 A 
ATOM      2  N   UNL     1      -6.861   1.866 127.577  0.00  0.00    +0.000 NA
ATOM      3  O   UNL     1      -7.070   2.797 128.598  0.00  0.00    +0.000 OA
ATOM      4  C   UNL     1      -8.403   2.754 128.896  0.00  0.00    +0.000 A 
ATOM      5  N   UNL     1      -9.065   1.874 128.180  0.00  0.00    +0.000 NA
ENDROOT
BRANCH   1   8
ATOM      6  C   UNL     1      -7.797  -1.534 127.997  0.00  0.00    +0.000 C 
ATOM      7  C   UNL     1      -8.222  -1.031 126.635  0.00  0.00    +0.000 A 
ATOM      8  C   UNL     1      -8.380   0.347 126.357  0.00  0.00    +0.000 A 
ATOM      9  C   UNL     1      -8.801   0.760 125.076  0.00  0.00    +0.000 A 
ATOM     10 CL   UNL     1      -8.983   2.457 124.697  0.00  0.00    +0.000 Cl
ATOM     11  N   UNL     1      -9.050  -0.187 124.068  0.00  0.00    +0.000 N 
ATOM     12  O   UNL     1      -9.418   0.190 122.902  0.00  0.00    +0.000 OA
ATOM     13  C   UNL     1      -8.886  -1.547 124.334  0.00  0.00    +0.000 A 
ATOM     14  C   UNL     1      -9.157  -2.525 123.226  0.00  0.00    +0.000 C 
ATOM     15  C   UNL     1      -8.477  -1.962 125.612  0.00  0.00    +0.000 A 
ATOM     16 CL   UNL     1      -8.283  -3.663 125.918  0.00  0.00    +0.000 Cl
ENDBRANCH   1   8
BRANCH   4  17
ATOM     17  C   UNL     1      -8.874   3.689 129.905  0.00  0.00    +0.000 A 
ATOM     18  C   UNL     1      -9.194   5.011 129.555  0.00  0.00    +0.000 A 
ATOM     19  C   UNL     1      -9.668   5.910 130.528  0.00  0.00    +0.000 A 
ATOM     20  C   UNL     1      -9.825   5.501 131.857  0.00  0.00    +0.000 A 
ATOM     21  C   UNL     1      -9.509   4.182 132.189  0.00  0.00    +0.000 A 
ATOM     22  C   UNL     1      -9.048   3.278 131.232  0.00  0.00    +0.000 A 
BRANCH  19  23
ATOM     23  N   UNL     1      -9.995   7.277 130.119  0.00  0.00    +0.000 N 
ATOM     24  O   UNL     1      -9.089   7.971 129.634  0.00  0.00    +0.000 OA
ATOM     25  O   UNL     1     -11.163   7.660 130.283  0.00  0.00    +0.000 OA
ENDBRANCH  19  23
BRANCH  20  26
ATOM     26  O   UNL     1     -10.270   6.290 132.887  0.00  0.00    +0.000 OA
ATOM     27  H   UNL     1      -9.503   6.721 133.326  0.00  0.00    +0.000 HD
ENDBRANCH  20  26
BRANCH  21  28
ATOM     28  O   UNL     1      -9.643   3.737 133.476  0.00  0.00    +0.000 OA
ATOM     29  H   UNL     1      -9.813   2.775 133.419  0.00  0.00    +0.000 HD
ENDBRANCH  21  28
ENDBRANCH   4  17
TORSDOF 5
ENDMDL
MODEL 5
REMARK VINA RESULT:      -7.9      5.203      8.020
REMARK  Name = Opicapone
REMARK  7 active torsions:
REMARK  status: ('A' for Active; 'I' for Inactive)
REMARK    1  A    between atoms: C_1  and  C_2
REMARK    2  A    between atoms: C_3  and  C_4
REMARK    3  A    between atoms: C_7  and  C_9
REMARK    4  A    between atoms: C_11  and  N_17
REMARK    5  A    between atoms: C_12  and  O_13
REMARK    6  A    between atoms: C_14  and  O_15
REMARK    7  A    between atoms: C_24  and  C_25
REMARK                            x       y       z     vdW  Elec       q    Type
REMARK                         _______ _______ _______ _____ _____    ______ ____
ROOT
ATOM      1  C   UNL     1      -8.038   1.340 127.652  0.00  0.00    +0.000 A 
ATOM      2  N   UNL     1      -6.828   1.868 127.890  0.00  0.00    +0.000 NA
ATOM      3  O   UNL     1      -7.082   2.839 128.862  0.00  0.00    +0.000 OA
ATOM      4  C   UNL     1      -8.428   2.810 129.096  0.00  0.00    +0.000 A 
ATOM      5  N   UNL     1      -9.058   1.905 128.384  0.00  0.00    +0.000 NA
ENDROOT
BRANCH   1   8
ATOM      6  C   UNL     1      -8.901   2.088 124.923  0.00  0.00    +0.000 C 
ATOM      7  C   UNL     1      -8.731   0.649 125.360  0.00  0.00    +0.000 A 
ATOM      8  C   UNL     1      -8.292   0.304 126.659  0.00  0.00    +0.000 A 
ATOM      9  C   UNL     1      -8.127  -1.053 127.007  0.00  0.00    +0.000 A 
ATOM     10 CL   UNL     1      -7.608  -1.510 128.613  0.00  0.00    +0.000 Cl
ATOM     11  N   UNL     1      -8.412  -2.067 126.076  0.00  0.00    +0.000 N 
ATOM     12  O   UNL     1      -8.275  -3.298 126.396  0.00  0.00    +0.000 OA
ATOM     13  C   UNL     1      -8.854  -1.731 124.795  0.00  0.00    +0.000 A 
ATOM     14  C   UNL     1      -9.152  -2.846 123.833  0.00  0.00    +0.000 C 
ATOM     15  C   UNL     1      -9.009  -0.381 124.443  0.00  0.00    +0.000 A 
ATOM     16 CL   UNL     1      -9.559   0.010 122.840  0.00  0.00    +0.000 Cl
ENDBRANCH   1   8
BRANCH   4  17
ATOM     17  C   UNL     1      -8.944   3.786 130.043  0.00  0.00    +0.000 A 
ATOM     18  C   UNL     1      -9.327   5.065 129.609  0.00  0.00    +0.000 A 
ATOM     19  C   UNL     1      -9.844   6.003 130.522  0.00  0.00    +0.000 A 
ATOM     20  C   UNL     1      -9.981   5.674 131.875  0.00  0.00    +0.000 A 
ATOM     21  C   UNL     1      -9.603   4.396 132.292  0.00  0.00    +0.000 A 
ATOM     22  C   UNL     1      -9.098   3.456 131.394  0.00  0.00    +0.000 A 
BRANCH  19  23
ATOM     23  N   UNL     1     -10.236   7.323 130.025  0.00  0.00    +0.000 N 
ATOM     24  O   UNL     1     -11.399   7.701 130.233  0.00  0.00    +0.000 OA
ATOM     25  O   UNL     1      -9.377   7.986 129.424  0.00  0.00    +0.000 OA
ENDBRANCH  19  23
BRANCH  20  26
ATOM     26  O   UNL     1     -10.465   6.507 132.852  0.00  0.00    +0.000 OA
ATOM     27  H   UNL     1     -10.210   7.435 132.649  0.00  0.00    +0.000 HD
ENDBRANCH  20  26
BRANCH  21  28
ATOM     28  O   UNL     1      -9.716   4.032 133.605  0.00  0.00    +0.000 OA
ATOM     29  H   UNL     1      -9.818   4.862 134.114  0.00  0.00    +0.000 HD
ENDBRANCH  21  28
ENDBRANCH   4  17
TORSDOF 5
ENDMDL
MODEL 6
REMARK VINA RESULT:      -7.9      1.913      3.154
REMARK  Name = Opicapone
REMARK  7 active torsions:
REMARK  status: ('A' for Active; 'I' for Inactive)
REMARK    1  A    between atoms: C_1  and  C_2
REMARK    2  A    between atoms: C_3  and  C_4
REMARK    3  A    between atoms: C_7  and  C_9
REMARK    4  A    between atoms: C_11  and  N_17
REMARK    5  A    between atoms: C_12  and  O_13
REMARK    6  A    between atoms: C_14  and  O_15
REMARK    7  A    between atoms: C_24  and  C_25
REMARK                            x       y       z     vdW  Elec       q    Type
REMARK                         _______ _______ _______ _____ _____    ______ ____
ROOT
ATOM      1  C   UNL     1      -8.694   0.954 125.020  0.00  0.00    +0.000 A 
ATOM      2  N   UNL     1      -9.867   1.601 124.960  0.00  0.00    +0.000 NA
ATOM      3  O   UNL     1      -9.736   2.407 123.826  0.00  0.00    +0.000 OA
ATOM      4  C   UNL     1      -8.485   2.175 123.327  0.00  0.00    +0.000 A 
ATOM      5  N   UNL     1      -7.809   1.288 124.019  0.00  0.00    +0.000 NA
ENDROOT
BRANCH   1   8
ATOM      6  C   UNL     1      -9.154  -1.945 124.654  0.00  0.00    +0.000 C 
ATOM      7  C   UNL     1      -8.575  -1.364 125.926  0.00  0.00    +0.000 A 
ATOM      8  C   UNL     1      -8.334   0.020 126.079  0.00  0.00    +0.000 A 
ATOM      9  C   UNL     1      -7.770   0.506 127.278  0.00  0.00    +0.000 A 
ATOM     10 CL   UNL     1      -7.482   2.216 127.504  0.00  0.00    +0.000 Cl
ATOM     11  N   UNL     1      -7.460  -0.376 128.327  0.00  0.00    +0.000 N 
ATOM     12  O   UNL     1      -6.961   0.067 129.419  0.00  0.00    +0.000 OA
ATOM     13  C   UNL     1      -7.704  -1.743 128.184  0.00  0.00    +0.000 A 
ATOM     14  C   UNL     1      -7.362  -2.649 129.333  0.00  0.00    +0.000 C 
ATOM     15  C   UNL     1      -8.256  -2.230 126.988  0.00  0.00    +0.000 A 
ATOM     16 CL   UNL     1      -8.548  -3.938 126.834  0.00  0.00    +0.000 Cl
ENDBRANCH   1   8
BRANCH   4  17
ATOM     17  C   UNL     1      -8.095   2.954 122.163  0.00  0.00    +0.000 A 
ATOM     18  C   UNL     1      -6.794   3.469 122.055  0.00  0.00    +0.000 A 
ATOM     19  C   UNL     1      -6.411   4.207 120.919  0.00  0.00    +0.000 A 
ATOM     20  C   UNL     1      -7.323   4.438 119.883  0.00  0.00    +0.000 A 
ATOM     21  C   UNL     1      -8.612   3.914 120.001  0.00  0.00    +0.000 A 
ATOM     22  C   UNL     1      -8.999   3.173 121.117  0.00  0.00    +0.000 A 
BRANCH  19  23
ATOM     23  N   UNL     1      -5.043   4.721 120.845  0.00  0.00    +0.000 N 
ATOM     24  O   UNL     1      -4.863   5.819 120.297  0.00  0.00    +0.000 OA
ATOM     25  O   UNL     1      -4.143   4.026 121.339  0.00  0.00    +0.000 OA
ENDBRANCH  19  23
BRANCH  20  26
ATOM     26  O   UNL     1      -7.064   5.146 118.737  0.00  0.00    +0.000 OA
ATOM     27  H   UNL     1      -6.470   4.621 118.154  0.00  0.00    +0.000 HD
ENDBRANCH  20  26
BRANCH  21  28
ATOM     28  O   UNL     1      -9.537   4.117 119.014  0.00  0.00    +0.000 OA
ATOM     29  H   UNL     1      -9.047   4.470 118.244  0.00  0.00    +0.000 HD
ENDBRANCH  21  28
ENDBRANCH   4  17
TORSDOF 5
ENDMDL
MODEL 7
REMARK VINA RESULT:      -7.8      1.078      2.293
REMARK  Name = Opicapone
REMARK  7 active torsions:
REMARK  status: ('A' for Active; 'I' for Inactive)
REMARK    1  A    between atoms: C_1  and  C_2
REMARK    2  A    between atoms: C_3  and  C_4
REMARK    3  A    between atoms: C_7  and  C_9
REMARK    4  A    between atoms: C_11  and  N_17
REMARK    5  A    between atoms: C_12  and  O_13
REMARK    6  A    between atoms: C_14  and  O_15
REMARK    7  A    between atoms: C_24  and  C_25
REMARK                            x       y       z     vdW  Elec       q    Type
REMARK                         _______ _______ _______ _____ _____    ______ ____
ROOT
ATOM      1  C   UNL     1      -8.799   0.879 124.921  0.00  0.00    +0.000 A 
ATOM      2  N   UNL     1      -9.984   1.499 124.812  0.00  0.00    +0.000 NA
ATOM      3  O   UNL     1      -9.818   2.325 123.698  0.00  0.00    +0.000 OA
ATOM      4  C   UNL     1      -8.539   2.131 123.258  0.00  0.00    +0.000 A 
ATOM      5  N   UNL     1      -7.875   1.250 123.970  0.00  0.00    +0.000 NA
ENDROOT
BRANCH   1   8
ATOM      6  C   UNL     1      -7.830   1.881 127.530  0.00  0.00    +0.000 C 
ATOM      7  C   UNL     1      -7.978   0.406 127.225  0.00  0.00    +0.000 A 
ATOM      8  C   UNL     1      -8.468  -0.061 125.984  0.00  0.00    +0.000 A 
ATOM      9  C   UNL     1      -8.608  -1.446 125.761  0.00  0.00    +0.000 A 
ATOM     10 CL   UNL     1      -9.190  -2.053 124.228  0.00  0.00    +0.000 Cl
ATOM     11  N   UNL     1      -8.250  -2.368 126.760  0.00  0.00    +0.000 N 
ATOM     12  O   UNL     1      -8.365  -3.625 126.553  0.00  0.00    +0.000 OA
ATOM     13  C   UNL     1      -7.758  -1.913 127.984  0.00  0.00    +0.000 A 
ATOM     14  C   UNL     1      -7.382  -2.932 129.021  0.00  0.00    +0.000 C 
ATOM     15  C   UNL     1      -7.626  -0.533 128.212  0.00  0.00    +0.000 A 
ATOM     16 CL   UNL     1      -7.013   0.008 129.747  0.00  0.00    +0.000 Cl
ENDBRANCH   1   8
BRANCH   4  17
ATOM     17  C   UNL     1      -8.112   2.938 122.126  0.00  0.00    +0.000 A 
ATOM     18  C   UNL     1      -6.816   3.477 122.085  0.00  0.00    +0.000 A 
ATOM     19  C   UNL     1      -6.397   4.242 120.979  0.00  0.00    +0.000 A 
ATOM     20  C   UNL     1      -7.266   4.475 119.908  0.00  0.00    +0.000 A 
ATOM     21  C   UNL     1      -8.549   3.926 119.959  0.00  0.00    +0.000 A 
ATOM     22  C   UNL     1      -8.972   3.159 121.044  0.00  0.00    +0.000 A 
BRANCH  19  23
ATOM     23  N   UNL     1      -5.036   4.781 120.976  0.00  0.00    +0.000 N 
ATOM     24  O   UNL     1      -4.822   5.814 120.324  0.00  0.00    +0.000 OA
ATOM     25  O   UNL     1      -4.177   4.170 121.629  0.00  0.00    +0.000 OA
ENDBRANCH  19  23
BRANCH  20  26
ATOM     26  O   UNL     1      -6.969   5.207 118.787  0.00  0.00    +0.000 OA
ATOM     27  H   UNL     1      -7.007   6.166 119.001  0.00  0.00    +0.000 HD
ENDBRANCH  20  26
BRANCH  21  28
ATOM     28  O   UNL     1      -9.434   4.131 118.936  0.00  0.00    +0.000 OA
ATOM     29  H   UNL     1      -9.848   3.263 118.752  0.00  0.00    +0.000 HD
ENDBRANCH  21  28
ENDBRANCH   4  17
TORSDOF 5
ENDMDL
MODEL 8
REMARK VINA RESULT:      -7.8      4.939      8.886
REMARK  Name = Opicapone
REMARK  7 active torsions:
REMARK  status: ('A' for Active; 'I' for Inactive)
REMARK    1  A    between atoms: C_1  and  C_2
REMARK    2  A    between atoms: C_3  and  C_4
REMARK    3  A    between atoms: C_7  and  C_9
REMARK    4  A    between atoms: C_11  and  N_17
REMARK    5  A    between atoms: C_12  and  O_13
REMARK    6  A    between atoms: C_14  and  O_15
REMARK    7  A    between atoms: C_24  and  C_25
REMARK                            x       y       z     vdW  Elec       q    Type
REMARK                         _______ _______ _______ _____ _____    ______ ____
ROOT
ATOM      1  C   UNL     1      -7.777   2.290 126.437  0.00  0.00    +0.000 A 
ATOM      2  N   UNL     1      -7.376   1.131 126.980  0.00  0.00    +0.000 NA
ATOM      3  O   UNL     1      -7.707   1.274 128.330  0.00  0.00    +0.000 OA
ATOM      4  C   UNL     1      -8.257   2.517 128.466  0.00  0.00    +0.000 A 
ATOM      5  N   UNL     1      -8.329   3.177 127.333  0.00  0.00    +0.000 NA
ENDROOT
BRANCH   1   8
ATOM      6  C   UNL     1      -5.307   3.660 125.560  0.00  0.00    +0.000 C 
ATOM      7  C   UNL     1      -6.431   3.314 124.607  0.00  0.00    +0.000 A 
ATOM      8  C   UNL     1      -7.596   2.635 125.033  0.00  0.00    +0.000 A 
ATOM      9  C   UNL     1      -8.603   2.317 124.098  0.00  0.00    +0.000 A 
ATOM     10 CL   UNL     1     -10.064   1.498 124.599  0.00  0.00    +0.000 Cl
ATOM     11  N   UNL     1      -8.464   2.683 122.748  0.00  0.00    +0.000 N 
ATOM     12  O   UNL     1      -9.383   2.405 121.903  0.00  0.00    +0.000 OA
ATOM     13  C   UNL     1      -7.320   3.361 122.325  0.00  0.00    +0.000 A 
ATOM     14  C   UNL     1      -7.214   3.738 120.875  0.00  0.00    +0.000 C 
ATOM     15  C   UNL     1      -6.311   3.671 123.251  0.00  0.00    +0.000 A 
ATOM     16 CL   UNL     1      -4.894   4.515 122.697  0.00  0.00    +0.000 Cl
ENDBRANCH   1   8
BRANCH   4  17
ATOM     17  C   UNL     1      -8.632   2.919 129.812  0.00  0.00    +0.000 A 
ATOM     18  C   UNL     1      -9.392   4.080 130.023  0.00  0.00    +0.000 A 
ATOM     19  C   UNL     1      -9.771   4.457 131.325  0.00  0.00    +0.000 A 
ATOM     20  C   UNL     1      -9.394   3.681 132.426  0.00  0.00    +0.000 A 
ATOM     21  C   UNL     1      -8.644   2.525 132.202  0.00  0.00    +0.000 A 
ATOM     22  C   UNL     1      -8.271   2.136 130.916  0.00  0.00    +0.000 A 
BRANCH  19  23
ATOM     23  N   UNL     1     -10.568   5.673 131.498  0.00  0.00    +0.000 N 
ATOM     24  O   UNL     1     -10.317   6.399 132.472  0.00  0.00    +0.000 OA
ATOM     25  O   UNL     1     -11.449   5.904 130.657  0.00  0.00    +0.000 OA
ENDBRANCH  19  23
BRANCH  20  26
ATOM     26  O   UNL     1      -9.700   3.954 133.736  0.00  0.00    +0.000 OA
ATOM     27  H   UNL     1     -10.600   3.616 133.940  0.00  0.00    +0.000 HD
ENDBRANCH  20  26
BRANCH  21  28
ATOM     28  O   UNL     1      -8.250   1.738 133.248  0.00  0.00    +0.000 OA
ATOM     29  H   UNL     1      -8.535   2.199 134.063  0.00  0.00    +0.000 HD
ENDBRANCH  21  28
ENDBRANCH   4  17
TORSDOF 5
ENDMDL
MODEL 9
REMARK VINA RESULT:      -7.7      3.672      8.917
REMARK  Name = Opicapone
REMARK  7 active torsions:
REMARK  status: ('A' for Active; 'I' for Inactive)
REMARK    1  A    between atoms: C_1  and  C_2
REMARK    2  A    between atoms: C_3  and  C_4
REMARK    3  A    between atoms: C_7  and  C_9
REMARK    4  A    between atoms: C_11  and  N_17
REMARK    5  A    between atoms: C_12  and  O_13
REMARK    6  A    between atoms: C_14  and  O_15
REMARK    7  A    between atoms: C_24  and  C_25
REMARK                            x       y       z     vdW  Elec       q    Type
REMARK                         _______ _______ _______ _____ _____    ______ ____
ROOT
ATOM      1  C   UNL     1      -7.647   2.614 125.543  0.00  0.00    +0.000 A 
ATOM      2  N   UNL     1      -8.278   3.408 126.421  0.00  0.00    +0.000 NA
ATOM      3  O   UNL     1      -8.319   2.636 127.585  0.00  0.00    +0.000 OA
ATOM      4  C   UNL     1      -7.724   1.444 127.281  0.00  0.00    +0.000 A 
ATOM      5  N   UNL     1      -7.289   1.383 126.044  0.00  0.00    +0.000 NA
ENDROOT
BRANCH   1   8
ATOM      6  C   UNL     1      -5.080   3.855 124.757  0.00  0.00    +0.000 C 
ATOM      7  C   UNL     1      -6.195   3.591 123.769  0.00  0.00    +0.000 A 
ATOM      8  C   UNL     1      -7.408   2.972 124.150  0.00  0.00    +0.000 A 
ATOM      9  C   UNL     1      -8.405   2.729 123.184  0.00  0.00    +0.000 A 
ATOM     10 CL   UNL     1      -9.924   1.986 123.630  0.00  0.00    +0.000 Cl
ATOM     11  N   UNL     1      -8.208   3.110 121.845  0.00  0.00    +0.000 N 
ATOM     12  O   UNL     1      -9.119   2.900 120.971  0.00  0.00    +0.000 OA
ATOM     13  C   UNL     1      -7.017   3.729 121.465  0.00  0.00    +0.000 A 
ATOM     14  C   UNL     1      -6.850   4.124 120.026  0.00  0.00    +0.000 C 
ATOM     15  C   UNL     1      -6.018   3.964 122.424  0.00  0.00    +0.000 A 
ATOM     16 CL   UNL     1      -4.541   4.734 121.924  0.00  0.00    +0.000 Cl
ENDBRANCH   1   8
BRANCH   4  17
ATOM     17  C   UNL     1      -7.699   0.443 128.336  0.00  0.00    +0.000 A 
ATOM     18  C   UNL     1      -8.168   0.753 129.622  0.00  0.00    +0.000 A 
ATOM     19  C   UNL     1      -8.162  -0.223 130.637  0.00  0.00    +0.000 A 
ATOM     20  C   UNL     1      -7.688  -1.513 130.378  0.00  0.00    +0.000 A 
ATOM     21  C   UNL     1      -7.231  -1.809 129.093  0.00  0.00    +0.000 A 
ATOM     22  C   UNL     1      -7.241  -0.854 128.076  0.00  0.00    +0.000 A 
BRANCH  19  23
ATOM     23  N   UNL     1      -8.665   0.143 131.963  0.00  0.00    +0.000 N 
ATOM     24  O   UNL     1      -9.824   0.576 132.046  0.00  0.00    +0.000 OA
ATOM     25  O   UNL     1      -7.899  -0.006 132.926  0.00  0.00    +0.000 OA
ENDBRANCH  19  23
BRANCH  20  26
ATOM     26  O   UNL     1      -7.629  -2.537 131.289  0.00  0.00    +0.000 OA
ATOM     27  H   UNL     1      -8.186  -2.316 132.068  0.00  0.00    +0.000 HD
ENDBRANCH  20  26
BRANCH  21  28
ATOM     28  O   UNL     1      -6.755  -3.057 128.795  0.00  0.00    +0.000 OA
ATOM     29  H   UNL     1      -6.265  -3.361 129.586  0.00  0.00    +0.000 HD
ENDBRANCH  21  28
ENDBRANCH   4  17
TORSDOF 5
ENDMDL
