MODEL 1
REMARK VINA RESULT:      -6.1      0.000      0.000
REMARK  Name = Orciprenaline
REMARK  9 active torsions:
REMARK  status: ('A' for Active; 'I' for Inactive)
REMARK    1  A    between atoms: C_1  and  C_2
REMARK    2  A    between atoms: C_2  and  C_3
REMARK    3  A    between atoms: C_2  and  N_4
REMARK    4  A    between atoms: N_4  and  C_5
REMARK    5  A    between atoms: C_5  and  C_6
REMARK    6  A    between atoms: C_6  and  O_7
REMARK    7  A    between atoms: C_6  and  C_8
REMARK    8  A    between atoms: C_10  and  O_11
REMARK    9  A    between atoms: C_13  and  O_14
REMARK                            x       y       z     vdW  Elec       q    Type
REMARK                         _______ _______ _______ _____ _____    ______ ____
ROOT
ATOM      1  C   UNL     1     -11.039   6.836 129.962  0.00  0.00    +0.000 A 
ATOM      2  C   UNL     1     -11.891   7.952 129.925  0.00  0.00    +0.000 A 
ATOM      3  C   UNL     1     -12.065   8.655 128.734  0.00  0.00    +0.000 A 
ATOM      4  C   UNL     1     -11.418   8.263 127.564  0.00  0.00    +0.000 A 
ATOM      5  C   UNL     1     -10.590   7.149 127.599  0.00  0.00    +0.000 A 
ATOM      6  C   UNL     1     -10.398   6.441 128.775  0.00  0.00    +0.000 A 
ENDROOT
BRANCH   3   7
ATOM      7  O   UNL     1     -12.875   9.750 128.665  0.00  0.00    +0.000 OA
ATOM      8  H   UNL     1     -12.718  10.204 127.820  0.00  0.00    +0.000 HD
ENDBRANCH   3   7
BRANCH   5   9
ATOM      9  O   UNL     1      -9.939   6.701 126.487  0.00  0.00    +0.000 OA
ATOM     10  H   UNL     1      -9.137   6.232 126.767  0.00  0.00    +0.000 HD
ENDBRANCH   5   9
BRANCH   1  11
ATOM     11  C   UNL     1     -10.865   6.041 131.240  0.00  0.00    +0.000 C 
BRANCH  11  12
ATOM     12  O   UNL     1     -11.915   6.350 132.161  0.00  0.00    +0.000 OA
ATOM     13  H   UNL     1     -12.617   6.800 131.665  0.00  0.00    +0.000 HD
ENDBRANCH  11  12
BRANCH  11  14
ATOM     14  C   UNL     1      -9.488   6.347 131.867  0.00  0.00    +0.000 C 
BRANCH  14  15
ATOM     15  N   UNL     1      -9.473   6.116 133.317  0.00  0.00    +0.000 NA
ATOM     16  H   UNL     1      -9.296   7.009 133.785  0.00  0.00    +0.000 HD
BRANCH  15  18
ATOM     17  C   UNL     1      -7.858   5.544 135.049  0.00  0.00    +0.000 C 
ATOM     18  C   UNL     1      -8.471   5.121 133.713  0.00  0.00    +0.000 C 
ATOM     19  C   UNL     1      -9.093   3.729 133.860  0.00  0.00    +0.000 C 
ENDBRANCH  15  18
ENDBRANCH  14  15
ENDBRANCH  11  14
ENDBRANCH   1  11
TORSDOF 7
ENDMDL
MODEL 2
REMARK VINA RESULT:      -6.1      0.084      2.137
REMARK  Name = Orciprenaline
REMARK  9 active torsions:
REMARK  status: ('A' for Active; 'I' for Inactive)
REMARK    1  A    between atoms: C_1  and  C_2
REMARK    2  A    between atoms: C_2  and  C_3
REMARK    3  A    between atoms: C_2  and  N_4
REMARK    4  A    between atoms: N_4  and  C_5
REMARK    5  A    between atoms: C_5  and  C_6
REMARK    6  A    between atoms: C_6  and  O_7
REMARK    7  A    between atoms: C_6  and  C_8
REMARK    8  A    between atoms: C_10  and  O_11
REMARK    9  A    between atoms: C_13  and  O_14
REMARK                            x       y       z     vdW  Elec       q    Type
REMARK                         _______ _______ _______ _____ _____    ______ ____
ROOT
ATOM      1  C   UNL     1     -11.047   6.754 129.927  0.00  0.00    +0.000 A 
ATOM      2  C   UNL     1     -10.394   6.348 128.751  0.00  0.00    +0.000 A 
ATOM      3  C   UNL     1     -10.552   7.085 127.579  0.00  0.00    +0.000 A 
ATOM      4  C   UNL     1     -11.337   8.236 127.549  0.00  0.00    +0.000 A 
ATOM      5  C   UNL     1     -11.967   8.645 128.718  0.00  0.00    +0.000 A 
ATOM      6  C   UNL     1     -11.829   7.921 129.893  0.00  0.00    +0.000 A 
ENDROOT
BRANCH   3   7
ATOM      7  O   UNL     1      -9.943   6.713 126.416  0.00  0.00    +0.000 OA
ATOM      8  H   UNL     1      -9.202   6.120 126.625  0.00  0.00    +0.000 HD
ENDBRANCH   3   7
BRANCH   5   9
ATOM      9  O   UNL     1     -12.737   9.769 128.764  0.00  0.00    +0.000 OA
ATOM     10  H   UNL     1     -12.207  10.520 128.450  0.00  0.00    +0.000 HD
ENDBRANCH   5   9
BRANCH   1  11
ATOM     11  C   UNL     1     -10.859   5.983 131.217  0.00  0.00    +0.000 C 
BRANCH  11  12
ATOM     12  O   UNL     1     -11.941   6.250 132.114  0.00  0.00    +0.000 OA
ATOM     13  H   UNL     1     -11.569   6.669 132.906  0.00  0.00    +0.000 HD
ENDBRANCH  11  12
BRANCH  11  14
ATOM     14  C   UNL     1      -9.512   6.365 131.867  0.00  0.00    +0.000 C 
BRANCH  14  15
ATOM     15  N   UNL     1      -9.496   6.102 133.312  0.00  0.00    +0.000 NA
ATOM     16  H   UNL     1      -9.322   6.985 133.800  0.00  0.00    +0.000 HD
BRANCH  15  18
ATOM     17  C   UNL     1      -7.837   5.528 135.000  0.00  0.00    +0.000 C 
ATOM     18  C   UNL     1      -8.492   5.101 133.687  0.00  0.00    +0.000 C 
ATOM     19  C   UNL     1      -9.121   3.716 133.862  0.00  0.00    +0.000 C 
ENDBRANCH  15  18
ENDBRANCH  14  15
ENDBRANCH  11  14
ENDBRANCH   1  11
TORSDOF 7
ENDMDL
MODEL 3
REMARK VINA RESULT:      -6.1      2.568      5.603
REMARK  Name = Orciprenaline
REMARK  9 active torsions:
REMARK  status: ('A' for Active; 'I' for Inactive)
REMARK    1  A    between atoms: C_1  and  C_2
REMARK    2  A    between atoms: C_2  and  C_3
REMARK    3  A    between atoms: C_2  and  N_4
REMARK    4  A    between atoms: N_4  and  C_5
REMARK    5  A    between atoms: C_5  and  C_6
REMARK    6  A    between atoms: C_6  and  O_7
REMARK    7  A    between atoms: C_6  and  C_8
REMARK    8  A    between atoms: C_10  and  O_11
REMARK    9  A    between atoms: C_13  and  O_14
REMARK                            x       y       z     vdW  Elec       q    Type
REMARK                         _______ _______ _______ _____ _____    ______ ____
ROOT
ATOM      1  C   UNL     1     -10.050   6.430 131.511  0.00  0.00    +0.000 A 
ATOM      2  C   UNL     1      -9.869   5.814 132.760  0.00  0.00    +0.000 A 
ATOM      3  C   UNL     1      -8.584   5.641 133.270  0.00  0.00    +0.000 A 
ATOM      4  C   UNL     1      -7.464   6.084 132.569  0.00  0.00    +0.000 A 
ATOM      5  C   UNL     1      -7.647   6.709 131.343  0.00  0.00    +0.000 A 
ATOM      6  C   UNL     1      -8.917   6.884 130.815  0.00  0.00    +0.000 A 
ENDROOT
BRANCH   3   7
ATOM      7  O   UNL     1      -8.370   5.035 134.474  0.00  0.00    +0.000 OA
ATOM      8  H   UNL     1      -8.898   5.490 135.151  0.00  0.00    +0.000 HD
ENDBRANCH   3   7
BRANCH   5   9
ATOM      9  O   UNL     1      -6.596   7.180 130.612  0.00  0.00    +0.000 OA
ATOM     10  H   UNL     1      -5.950   6.464 130.502  0.00  0.00    +0.000 HD
ENDBRANCH   5   9
BRANCH   1  11
ATOM     11  C   UNL     1     -11.442   6.656 130.958  0.00  0.00    +0.000 C 
BRANCH  11  12
ATOM     12  O   UNL     1     -12.424   6.376 131.960  0.00  0.00    +0.000 OA
ATOM     13  H   UNL     1     -11.996   6.476 132.825  0.00  0.00    +0.000 HD
ENDBRANCH  11  12
BRANCH  11  14
ATOM     14  C   UNL     1     -11.666   5.765 129.717  0.00  0.00    +0.000 C 
BRANCH  14  15
ATOM     15  N   UNL     1     -12.193   6.523 128.575  0.00  0.00    +0.000 NA
ATOM     16  H   UNL     1     -11.805   6.125 127.715  0.00  0.00    +0.000 HD
BRANCH  15  18
ATOM     17  C   UNL     1     -10.817   8.293 127.623  0.00  0.00    +0.000 C 
ATOM     18  C   UNL     1     -11.883   7.954 128.664  0.00  0.00    +0.000 C 
ATOM     19  C   UNL     1     -13.127   8.812 128.412  0.00  0.00    +0.000 C 
ENDBRANCH  15  18
ENDBRANCH  14  15
ENDBRANCH  11  14
ENDBRANCH   1  11
TORSDOF 7
ENDMDL
MODEL 4
REMARK VINA RESULT:      -6.1      2.575      5.717
REMARK  Name = Orciprenaline
REMARK  9 active torsions:
REMARK  status: ('A' for Active; 'I' for Inactive)
REMARK    1  A    between atoms: C_1  and  C_2
REMARK    2  A    between atoms: C_2  and  C_3
REMARK    3  A    between atoms: C_2  and  N_4
REMARK    4  A    between atoms: N_4  and  C_5
REMARK    5  A    between atoms: C_5  and  C_6
REMARK    6  A    between atoms: C_6  and  O_7
REMARK    7  A    between atoms: C_6  and  C_8
REMARK    8  A    between atoms: C_10  and  O_11
REMARK    9  A    between atoms: C_13  and  O_14
REMARK                            x       y       z     vdW  Elec       q    Type
REMARK                         _______ _______ _______ _____ _____    ______ ____
ROOT
ATOM      1  C   UNL     1     -10.010   6.482 131.526  0.00  0.00    +0.000 A 
ATOM      2  C   UNL     1      -8.899   6.912 130.782  0.00  0.00    +0.000 A 
ATOM      3  C   UNL     1      -7.612   6.724 131.283  0.00  0.00    +0.000 A 
ATOM      4  C   UNL     1      -7.400   6.101 132.511  0.00  0.00    +0.000 A 
ATOM      5  C   UNL     1      -8.499   5.661 133.237  0.00  0.00    +0.000 A 
ATOM      6  C   UNL     1      -9.788   5.845 132.759  0.00  0.00    +0.000 A 
ENDROOT
BRANCH   3   7
ATOM      7  O   UNL     1      -6.511   7.139 130.593  0.00  0.00    +0.000 OA
ATOM      8  H   UNL     1      -6.360   6.533 129.849  0.00  0.00    +0.000 HD
ENDBRANCH   3   7
BRANCH   5   9
ATOM      9  O   UNL     1      -8.362   5.030 134.438  0.00  0.00    +0.000 OA
ATOM     10  H   UNL     1      -9.180   4.541 134.624  0.00  0.00    +0.000 HD
ENDBRANCH   5   9
BRANCH   1  11
ATOM     11  C   UNL     1     -11.414   6.648 130.981  0.00  0.00    +0.000 C 
BRANCH  11  12
ATOM     12  O   UNL     1     -12.377   6.329 131.989  0.00  0.00    +0.000 OA
ATOM     13  H   UNL     1     -12.648   5.407 131.855  0.00  0.00    +0.000 HD
ENDBRANCH  11  12
BRANCH  11  14
ATOM     14  C   UNL     1     -11.608   5.747 129.743  0.00  0.00    +0.000 C 
BRANCH  14  15
ATOM     15  N   UNL     1     -12.118   6.493 128.585  0.00  0.00    +0.000 NA
ATOM     16  H   UNL     1     -11.676   6.120 127.740  0.00  0.00    +0.000 HD
BRANCH  15  18
ATOM     17  C   UNL     1     -10.782   8.331 127.707  0.00  0.00    +0.000 C 
ATOM     18  C   UNL     1     -11.876   7.935 128.699  0.00  0.00    +0.000 C 
ATOM     19  C   UNL     1     -13.145   8.739 128.402  0.00  0.00    +0.000 C 
ENDBRANCH  15  18
ENDBRANCH  14  15
ENDBRANCH  11  14
ENDBRANCH   1  11
TORSDOF 7
ENDMDL
MODEL 5
REMARK VINA RESULT:      -5.7      2.039      2.809
REMARK  Name = Orciprenaline
REMARK  9 active torsions:
REMARK  status: ('A' for Active; 'I' for Inactive)
REMARK    1  A    between atoms: C_1  and  C_2
REMARK    2  A    between atoms: C_2  and  C_3
REMARK    3  A    between atoms: C_2  and  N_4
REMARK    4  A    between atoms: N_4  and  C_5
REMARK    5  A    between atoms: C_5  and  C_6
REMARK    6  A    between atoms: C_6  and  O_7
REMARK    7  A    between atoms: C_6  and  C_8
REMARK    8  A    between atoms: C_10  and  O_11
REMARK    9  A    between atoms: C_13  and  O_14
REMARK                            x       y       z     vdW  Elec       q    Type
REMARK                         _______ _______ _______ _____ _____    ______ ____
ROOT
ATOM      1  C   UNL     1      -9.890   6.935 130.608  0.00  0.00    +0.000 A 
ATOM      2  C   UNL     1     -11.080   6.733 131.328  0.00  0.00    +0.000 A 
ATOM      3  C   UNL     1     -12.273   7.285 130.866  0.00  0.00    +0.000 A 
ATOM      4  C   UNL     1     -12.317   8.025 129.687  0.00  0.00    +0.000 A 
ATOM      5  C   UNL     1     -11.143   8.208 128.968  0.00  0.00    +0.000 A 
ATOM      6  C   UNL     1      -9.944   7.675 129.415  0.00  0.00    +0.000 A 
ENDROOT
BRANCH   3   7
ATOM      7  O   UNL     1     -13.444   7.119 131.546  0.00  0.00    +0.000 OA
ATOM      8  H   UNL     1     -13.638   6.169 131.612  0.00  0.00    +0.000 HD
ENDBRANCH   3   7
BRANCH   5   9
ATOM      9  O   UNL     1     -11.118   8.909 127.798  0.00  0.00    +0.000 OA
ATOM     10  H   UNL     1     -12.025   9.173 127.578  0.00  0.00    +0.000 HD
ENDBRANCH   5   9
BRANCH   1  11
ATOM     11  C   UNL     1      -8.590   6.315 131.079  0.00  0.00    +0.000 C 
BRANCH  11  12
ATOM     12  O   UNL     1      -7.483   7.129 130.684  0.00  0.00    +0.000 OA
ATOM     13  H   UNL     1      -7.706   7.533 129.830  0.00  0.00    +0.000 HD
ENDBRANCH  11  12
BRANCH  11  14
ATOM     14  C   UNL     1      -8.447   4.890 130.502  0.00  0.00    +0.000 C 
BRANCH  14  15
ATOM     15  N   UNL     1      -8.169   3.893 131.543  0.00  0.00    +0.000 NA
ATOM     16  H   UNL     1      -7.793   3.052 131.094  0.00  0.00    +0.000 HD
BRANCH  15  18
ATOM     17  C   UNL     1      -9.714   2.096 132.105  0.00  0.00    +0.000 C 
ATOM     18  C   UNL     1      -9.359   3.565 132.336  0.00  0.00    +0.000 C 
ATOM     19  C   UNL     1      -9.117   3.799 133.830  0.00  0.00    +0.000 C 
ENDBRANCH  15  18
ENDBRANCH  14  15
ENDBRANCH  11  14
ENDBRANCH   1  11
TORSDOF 7
ENDMDL
MODEL 6
REMARK VINA RESULT:      -5.6      1.776      2.168
REMARK  Name = Orciprenaline
REMARK  9 active torsions:
REMARK  status: ('A' for Active; 'I' for Inactive)
REMARK    1  A    between atoms: C_1  and  C_2
REMARK    2  A    between atoms: C_2  and  C_3
REMARK    3  A    between atoms: C_2  and  N_4
REMARK    4  A    between atoms: N_4  and  C_5
REMARK    5  A    between atoms: C_5  and  C_6
REMARK    6  A    between atoms: C_6  and  O_7
REMARK    7  A    between atoms: C_6  and  C_8
REMARK    8  A    between atoms: C_10  and  O_11
REMARK    9  A    between atoms: C_13  and  O_14
REMARK                            x       y       z     vdW  Elec       q    Type
REMARK                         _______ _______ _______ _____ _____    ______ ____
ROOT
ATOM      1  C   UNL     1     -11.172   6.820 129.995  0.00  0.00    +0.000 A 
ATOM      2  C   UNL     1     -11.960   7.982 129.949  0.00  0.00    +0.000 A 
ATOM      3  C   UNL     1     -12.054   8.712 128.766  0.00  0.00    +0.000 A 
ATOM      4  C   UNL     1     -11.391   8.304 127.611  0.00  0.00    +0.000 A 
ATOM      5  C   UNL     1     -10.626   7.145 127.654  0.00  0.00    +0.000 A 
ATOM      6  C   UNL     1     -10.513   6.409 128.823  0.00  0.00    +0.000 A 
ENDROOT
BRANCH   3   7
ATOM      7  O   UNL     1     -12.801   9.852 128.689  0.00  0.00    +0.000 OA
ATOM      8  H   UNL     1     -13.636   9.650 128.236  0.00  0.00    +0.000 HD
ENDBRANCH   3   7
BRANCH   5   9
ATOM      9  O   UNL     1      -9.964   6.680 126.557  0.00  0.00    +0.000 OA
ATOM     10  H   UNL     1      -9.768   5.739 126.690  0.00  0.00    +0.000 HD
ENDBRANCH   5   9
BRANCH   1  11
ATOM     11  C   UNL     1     -11.086   5.997 131.263  0.00  0.00    +0.000 C 
BRANCH  11  12
ATOM     12  O   UNL     1     -11.010   6.855 132.405  0.00  0.00    +0.000 OA
ATOM     13  H   UNL     1     -11.918   7.039 132.695  0.00  0.00    +0.000 HD
ENDBRANCH  11  12
BRANCH  11  14
ATOM     14  C   UNL     1      -9.856   5.066 131.204  0.00  0.00    +0.000 C 
BRANCH  14  15
ATOM     15  N   UNL     1     -10.044   3.843 131.996  0.00  0.00    +0.000 NA
ATOM     16  H   UNL     1      -9.283   3.779 132.679  0.00  0.00    +0.000 HD
BRANCH  15  18
ATOM     17  C   UNL     1      -9.189   2.849 129.944  0.00  0.00    +0.000 C 
ATOM     18  C   UNL     1     -10.090   2.638 131.162  0.00  0.00    +0.000 C 
ATOM     19  C   UNL     1      -9.614   1.405 131.935  0.00  0.00    +0.000 C 
ENDBRANCH  15  18
ENDBRANCH  14  15
ENDBRANCH  11  14
ENDBRANCH   1  11
TORSDOF 7
ENDMDL
MODEL 7
REMARK VINA RESULT:      -5.6      8.894     10.420
REMARK  Name = Orciprenaline
REMARK  9 active torsions:
REMARK  status: ('A' for Active; 'I' for Inactive)
REMARK    1  A    between atoms: C_1  and  C_2
REMARK    2  A    between atoms: C_2  and  C_3
REMARK    3  A    between atoms: C_2  and  N_4
REMARK    4  A    between atoms: N_4  and  C_5
REMARK    5  A    between atoms: C_5  and  C_6
REMARK    6  A    between atoms: C_6  and  O_7
REMARK    7  A    between atoms: C_6  and  C_8
REMARK    8  A    between atoms: C_10  and  O_11
REMARK    9  A    between atoms: C_13  and  O_14
REMARK                            x       y       z     vdW  Elec       q    Type
REMARK                         _______ _______ _______ _____ _____    ______ ____
ROOT
ATOM      1  C   UNL     1      -8.214   3.005 122.355  0.00  0.00    +0.000 A 
ATOM      2  C   UNL     1      -6.829   3.218 122.447  0.00  0.00    +0.000 A 
ATOM      3  C   UNL     1      -6.142   3.788 121.377  0.00  0.00    +0.000 A 
ATOM      4  C   UNL     1      -6.806   4.170 120.213  0.00  0.00    +0.000 A 
ATOM      5  C   UNL     1      -8.178   3.974 120.132  0.00  0.00    +0.000 A 
ATOM      6  C   UNL     1      -8.880   3.401 121.182  0.00  0.00    +0.000 A 
ENDROOT
BRANCH   3   7
ATOM      7  O   UNL     1      -4.795   3.999 121.426  0.00  0.00    +0.000 OA
ATOM      8  H   UNL     1      -4.630   4.901 121.750  0.00  0.00    +0.000 HD
ENDBRANCH   3   7
BRANCH   5   9
ATOM      9  O   UNL     1      -8.893   4.338 119.029  0.00  0.00    +0.000 OA
ATOM     10  H   UNL     1      -8.443   5.084 118.602  0.00  0.00    +0.000 HD
ENDBRANCH   5   9
BRANCH   1  11
ATOM     11  C   UNL     1      -8.982   2.417 123.521  0.00  0.00    +0.000 C 
BRANCH  11  12
ATOM     12  O   UNL     1      -9.054   3.362 124.593  0.00  0.00    +0.000 OA
ATOM     13  H   UNL     1      -9.421   4.185 124.233  0.00  0.00    +0.000 HD
ENDBRANCH  11  12
BRANCH  11  14
ATOM     14  C   UNL     1      -8.303   1.113 123.995  0.00  0.00    +0.000 C 
BRANCH  14  15
ATOM     15  N   UNL     1      -8.725  -0.052 123.206  0.00  0.00    +0.000 NA
ATOM     16  H   UNL     1      -9.731  -0.188 123.341  0.00  0.00    +0.000 HD
BRANCH  15  18
ATOM     17  C   UNL     1      -8.846  -2.485 123.224  0.00  0.00    +0.000 C 
ATOM     18  C   UNL     1      -7.988  -1.268 123.568  0.00  0.00    +0.000 C 
ATOM     19  C   UNL     1      -6.656  -1.358 122.817  0.00  0.00    +0.000 C 
ENDBRANCH  15  18
ENDBRANCH  14  15
ENDBRANCH  11  14
ENDBRANCH   1  11
TORSDOF 7
ENDMDL
MODEL 8
REMARK VINA RESULT:      -5.6      2.098      3.073
REMARK  Name = Orciprenaline
REMARK  9 active torsions:
REMARK  status: ('A' for Active; 'I' for Inactive)
REMARK    1  A    between atoms: C_1  and  C_2
REMARK    2  A    between atoms: C_2  and  C_3
REMARK    3  A    between atoms: C_2  and  N_4
REMARK    4  A    between atoms: N_4  and  C_5
REMARK    5  A    between atoms: C_5  and  C_6
REMARK    6  A    between atoms: C_6  and  O_7
REMARK    7  A    between atoms: C_6  and  C_8
REMARK    8  A    between atoms: C_10  and  O_11
REMARK    9  A    between atoms: C_13  and  O_14
REMARK                            x       y       z     vdW  Elec       q    Type
REMARK                         _______ _______ _______ _____ _____    ______ ____
ROOT
ATOM      1  C   UNL     1      -9.847   6.977 130.561  0.00  0.00    +0.000 A 
ATOM      2  C   UNL     1      -9.899   7.711 129.365  0.00  0.00    +0.000 A 
ATOM      3  C   UNL     1     -11.119   8.206 128.906  0.00  0.00    +0.000 A 
ATOM      4  C   UNL     1     -12.296   8.000 129.622  0.00  0.00    +0.000 A 
ATOM      5  C   UNL     1     -12.239   7.289 130.813  0.00  0.00    +0.000 A 
ATOM      6  C   UNL     1     -11.037   6.781 131.283  0.00  0.00    +0.000 A 
ENDROOT
BRANCH   3   7
ATOM      7  O   UNL     1     -11.208   8.913 127.742  0.00  0.00    +0.000 OA
ATOM      8  H   UNL     1     -11.686   9.741 127.915  0.00  0.00    +0.000 HD
ENDBRANCH   3   7
BRANCH   5   9
ATOM      9  O   UNL     1     -13.350   7.065 131.571  0.00  0.00    +0.000 OA
ATOM     10  H   UNL     1     -13.398   6.117 131.776  0.00  0.00    +0.000 HD
ENDBRANCH   5   9
BRANCH   1  11
ATOM     11  C   UNL     1      -8.525   6.460 131.091  0.00  0.00    +0.000 C 
BRANCH  11  12
ATOM     12  O   UNL     1      -7.454   7.301 130.652  0.00  0.00    +0.000 OA
ATOM     13  H   UNL     1      -6.628   6.926 130.995  0.00  0.00    +0.000 HD
ENDBRANCH  11  12
BRANCH  11  14
ATOM     14  C   UNL     1      -8.300   5.007 130.619  0.00  0.00    +0.000 C 
BRANCH  14  15
ATOM     15  N   UNL     1      -7.797   4.144 131.696  0.00  0.00    +0.000 NA
ATOM     16  H   UNL     1      -6.913   3.727 131.390  0.00  0.00    +0.000 HD
BRANCH  15  18
ATOM     17  C   UNL     1      -9.250   3.368 133.490  0.00  0.00    +0.000 C 
ATOM     18  C   UNL     1      -8.757   3.099 132.068  0.00  0.00    +0.000 C 
ATOM     19  C   UNL     1      -9.954   3.074 131.114  0.00  0.00    +0.000 C 
ENDBRANCH  15  18
ENDBRANCH  14  15
ENDBRANCH  11  14
ENDBRANCH   1  11
TORSDOF 7
ENDMDL
MODEL 9
REMARK VINA RESULT:      -5.6      8.957     10.385
REMARK  Name = Orciprenaline
REMARK  9 active torsions:
REMARK  status: ('A' for Active; 'I' for Inactive)
REMARK    1  A    between atoms: C_1  and  C_2
REMARK    2  A    between atoms: C_2  and  C_3
REMARK    3  A    between atoms: C_2  and  N_4
REMARK    4  A    between atoms: N_4  and  C_5
REMARK    5  A    between atoms: C_5  and  C_6
REMARK    6  A    between atoms: C_6  and  O_7
REMARK    7  A    between atoms: C_6  and  C_8
REMARK    8  A    between atoms: C_10  and  O_11
REMARK    9  A    between atoms: C_13  and  O_14
REMARK                            x       y       z     vdW  Elec       q    Type
REMARK                         _______ _______ _______ _____ _____    ______ ____
ROOT
ATOM      1  C   UNL     1      -8.214   3.059 122.303  0.00  0.00    +0.000 A 
ATOM      2  C   UNL     1      -8.891   3.433 121.130  0.00  0.00    +0.000 A 
ATOM      3  C   UNL     1      -8.185   3.996 120.070  0.00  0.00    +0.000 A 
ATOM      4  C   UNL     1      -6.806   4.185 120.139  0.00  0.00    +0.000 A 
ATOM      5  C   UNL     1      -6.137   3.798 121.293  0.00  0.00    +0.000 A 
ATOM      6  C   UNL     1      -6.822   3.243 122.363  0.00  0.00    +0.000 A 
ENDROOT
BRANCH   3   7
ATOM      7  O   UNL     1      -8.812   4.382 118.921  0.00  0.00    +0.000 OA
ATOM      8  H   UNL     1      -8.648   5.329 118.777  0.00  0.00    +0.000 HD
ENDBRANCH   3   7
BRANCH   5   9
ATOM      9  O   UNL     1      -4.786   3.940 121.422  0.00  0.00    +0.000 OA
ATOM     10  H   UNL     1      -4.460   4.479 120.684  0.00  0.00    +0.000 HD
ENDBRANCH   5   9
BRANCH   1  11
ATOM     11  C   UNL     1      -8.962   2.415 123.452  0.00  0.00    +0.000 C 
BRANCH  11  12
ATOM     12  O   UNL     1      -9.058   3.325 124.551  0.00  0.00    +0.000 OA
ATOM     13  H   UNL     1      -9.742   2.989 125.151  0.00  0.00    +0.000 HD
ENDBRANCH  11  12
BRANCH  11  14
ATOM     14  C   UNL     1      -8.245   1.117 123.885  0.00  0.00    +0.000 C 
BRANCH  14  15
ATOM     15  N   UNL     1      -8.753  -0.063 123.173  0.00  0.00    +0.000 NA
ATOM     16  H   UNL     1      -9.758  -0.142 123.352  0.00  0.00    +0.000 HD
BRANCH  15  18
ATOM     17  C   UNL     1      -8.949  -2.490 123.225  0.00  0.00    +0.000 C 
ATOM     18  C   UNL     1      -8.062  -1.295 123.571  0.00  0.00    +0.000 C 
ATOM     19  C   UNL     1      -6.717  -1.438 122.853  0.00  0.00    +0.000 C 
ENDBRANCH  15  18
ENDBRANCH  14  15
ENDBRANCH  11  14
ENDBRANCH   1  11
TORSDOF 7
ENDMDL
