MODEL 1
REMARK VINA RESULT:      -6.6      0.000      0.000
REMARK  Name = Orlistat
REMARK  27 active torsions:
REMARK  status: ('A' for Active; 'I' for Inactive)
REMARK    1  A    between atoms: C_1  and  C_2
REMARK    2  A    between atoms: C_2  and  C_3
REMARK    3  A    between atoms: C_3  and  C_4
REMARK    4  A    between atoms: C_4  and  C_5
REMARK    5  A    between atoms: C_5  and  C_6
REMARK    6  A    between atoms: C_6  and  C_7
REMARK    7  A    between atoms: C_7  and  C_8
REMARK    8  A    between atoms: C_8  and  C_9
REMARK    9  A    between atoms: C_9  and  C_10
REMARK   10  A    between atoms: C_10  and  C_11
REMARK   11  A    between atoms: C_11  and  C_12
REMARK   12  A    between atoms: C_12  and  C_13
REMARK   13  A    between atoms: C_12  and  O_25
REMARK   14  A    between atoms: C_13  and  C_14
REMARK   15  A    between atoms: C_18  and  C_19
REMARK   16  A    between atoms: C_19  and  C_20
REMARK   17  A    between atoms: C_20  and  C_21
REMARK   18  A    between atoms: C_21  and  C_22
REMARK   19  A    between atoms: C_22  and  C_23
REMARK   20  A    between atoms: C_23  and  C_24
REMARK   21  A    between atoms: O_25  and  C_26
REMARK   22  A    between atoms: C_26  and  C_28
REMARK   23  A    between atoms: C_28  and  C_29
REMARK   24  A    between atoms: C_28  and  N_33
REMARK   25  A    between atoms: C_29  and  C_30
REMARK   26  A    between atoms: C_30  and  C_31
REMARK   27  A    between atoms: C_30  and  C_32
REMARK                            x       y       z     vdW  Elec       q    Type
REMARK                         _______ _______ _______ _____ _____    ______ ____
ROOT
ATOM      1  C   UNL     1      -6.482   0.383 126.370  0.00  0.00    +0.000 C 
ENDROOT
BRANCH   1   2
ATOM      2  O   UNL     1      -5.618   1.027 127.379  0.00  0.00    +0.000 OA
BRANCH   2   3
ATOM      3  C   UNL     1      -5.564   2.374 127.317  0.00  0.00    +0.000 C 
ATOM      4  O   UNL     1      -5.833   3.046 128.296  0.00  0.00    +0.000 OA
BRANCH   3   5
ATOM      5  C   UNL     1      -5.129   2.983 125.967  0.00  0.00    +0.000 C 
BRANCH   5   6
ATOM      6  N   UNL     1      -6.124   3.879 125.394  0.00  0.00    +0.000 N 
ATOM      7  C   UNL     1      -6.066   5.238 125.457  0.00  0.00    +0.000 C 
ATOM      8  O   UNL     1      -6.949   5.957 125.014  0.00  0.00    +0.000 OA
ATOM      9  H   UNL     1      -7.014   3.513 125.070  0.00  0.00    +0.000 HD
ENDBRANCH   5   6
BRANCH   5  10
ATOM     10  C   UNL     1      -3.766   3.724 126.124  0.00  0.00    +0.000 C 
BRANCH  10  11
ATOM     11  C   UNL     1      -2.768   3.224 127.216  0.00  0.00    +0.000 C 
ATOM     12  C   UNL     1      -1.411   2.757 126.707  0.00  0.00    +0.000 C 
ATOM     13  C   UNL     1      -2.491   4.346 128.218  0.00  0.00    +0.000 C 
ENDBRANCH  10  11
ENDBRANCH   5  10
ENDBRANCH   3   5
ENDBRANCH   2   3
ENDBRANCH   1   2
BRANCH   1  14
ATOM     14  C   UNL     1      -7.963   0.884 126.376  0.00  0.00    +0.000 C 
BRANCH  14  15
ATOM     15  C   UNL     1      -8.575   1.704 125.209  0.00  0.00    +0.000 C 
ATOM     16  O   UNL     1      -9.988   1.688 124.861  0.00  0.00    +0.000 OA
ATOM     17  C   UNL     1      -9.750   1.078 123.669  0.00  0.00    +0.000 C 
ATOM     18  O   UNL     1     -10.538   0.551 122.904  0.00  0.00    +0.000 OA
ATOM     19  C   UNL     1      -8.264   1.432 123.713  0.00  0.00    +0.000 C 
BRANCH  19  20
ATOM     20  C   UNL     1      -8.041   2.659 122.871  0.00  0.00    +0.000 C 
BRANCH  20  21
ATOM     21  C   UNL     1      -6.789   2.430 122.063  0.00  0.00    +0.000 C 
BRANCH  21  22
ATOM     22  C   UNL     1      -6.471   3.670 121.287  0.00  0.00    +0.000 C 
BRANCH  22  23
ATOM     23  C   UNL     1      -5.268   4.332 121.917  0.00  0.00    +0.000 C 
BRANCH  23  24
ATOM     24  C   UNL     1      -4.621   5.247 120.900  0.00  0.00    +0.000 C 
ATOM     25  C   UNL     1      -5.464   5.301 119.648  0.00  0.00    +0.000 C 
ENDBRANCH  23  24
ENDBRANCH  22  23
ENDBRANCH  21  22
ENDBRANCH  20  21
ENDBRANCH  19  20
ENDBRANCH  14  15
ENDBRANCH   1  14
BRANCH   1  26
ATOM     26  C   UNL     1      -6.362  -1.103 126.755  0.00  0.00    +0.000 C 
BRANCH  26  27
ATOM     27  C   UNL     1      -7.721  -1.693 126.883  0.00  0.00    +0.000 C 
BRANCH  27  28
ATOM     28  C   UNL     1      -8.074  -3.054 126.396  0.00  0.00    +0.000 C 
BRANCH  28  29
ATOM     29  C   UNL     1      -9.509  -3.057 125.845  0.00  0.00    +0.000 C 
BRANCH  29  30
ATOM     30  C   UNL     1      -9.469  -2.375 124.501  0.00  0.00    +0.000 C 
BRANCH  30  31
ATOM     31  C   UNL     1      -8.533  -3.082 123.545  0.00  0.00    +0.000 C 
BRANCH  31  32
ATOM     32  C   UNL     1      -7.923  -2.049 122.616  0.00  0.00    +0.000 C 
BRANCH  32  33
ATOM     33  C   UNL     1      -6.563  -1.625 123.131  0.00  0.00    +0.000 C 
BRANCH  33  34
ATOM     34  C   UNL     1      -5.531  -2.690 122.802  0.00  0.00    +0.000 C 
BRANCH  34  36
ATOM     35  C   UNL     1      -4.351  -4.662 123.763  0.00  0.00    +0.000 C 
ATOM     36  C   UNL     1      -5.017  -3.338 124.079  0.00  0.00    +0.000 C 
ENDBRANCH  34  36
ENDBRANCH  33  34
ENDBRANCH  32  33
ENDBRANCH  31  32
ENDBRANCH  30  31
ENDBRANCH  29  30
ENDBRANCH  28  29
ENDBRANCH  27  28
ENDBRANCH  26  27
ENDBRANCH   1  26
TORSDOF 23
ENDMDL
MODEL 2
REMARK VINA RESULT:      -6.5      2.923      5.636
REMARK  Name = Orlistat
REMARK  27 active torsions:
REMARK  status: ('A' for Active; 'I' for Inactive)
REMARK    1  A    between atoms: C_1  and  C_2
REMARK    2  A    between atoms: C_2  and  C_3
REMARK    3  A    between atoms: C_3  and  C_4
REMARK    4  A    between atoms: C_4  and  C_5
REMARK    5  A    between atoms: C_5  and  C_6
REMARK    6  A    between atoms: C_6  and  C_7
REMARK    7  A    between atoms: C_7  and  C_8
REMARK    8  A    between atoms: C_8  and  C_9
REMARK    9  A    between atoms: C_9  and  C_10
REMARK   10  A    between atoms: C_10  and  C_11
REMARK   11  A    between atoms: C_11  and  C_12
REMARK   12  A    between atoms: C_12  and  C_13
REMARK   13  A    between atoms: C_12  and  O_25
REMARK   14  A    between atoms: C_13  and  C_14
REMARK   15  A    between atoms: C_18  and  C_19
REMARK   16  A    between atoms: C_19  and  C_20
REMARK   17  A    between atoms: C_20  and  C_21
REMARK   18  A    between atoms: C_21  and  C_22
REMARK   19  A    between atoms: C_22  and  C_23
REMARK   20  A    between atoms: C_23  and  C_24
REMARK   21  A    between atoms: O_25  and  C_26
REMARK   22  A    between atoms: C_26  and  C_28
REMARK   23  A    between atoms: C_28  and  C_29
REMARK   24  A    between atoms: C_28  and  N_33
REMARK   25  A    between atoms: C_29  and  C_30
REMARK   26  A    between atoms: C_30  and  C_31
REMARK   27  A    between atoms: C_30  and  C_32
REMARK                            x       y       z     vdW  Elec       q    Type
REMARK                         _______ _______ _______ _____ _____    ______ ____
ROOT
ATOM      1  C   UNL     1      -7.577  -0.106 126.791  0.00  0.00    +0.000 C 
ENDROOT
BRANCH   1   2
ATOM      2  O   UNL     1      -6.399  -0.208 125.907  0.00  0.00    +0.000 OA
BRANCH   2   3
ATOM      3  C   UNL     1      -5.829  -1.429 125.845  0.00  0.00    +0.000 C 
ATOM      4  O   UNL     1      -5.472  -1.994 126.863  0.00  0.00    +0.000 OA
BRANCH   3   5
ATOM      5  C   UNL     1      -5.685  -2.050 124.440  0.00  0.00    +0.000 C 
BRANCH   5   6
ATOM      6  N   UNL     1      -5.061  -3.367 124.453  0.00  0.00    +0.000 N 
ATOM      7  C   UNL     1      -4.413  -3.924 123.394  0.00  0.00    +0.000 C 
ATOM      8  O   UNL     1      -3.952  -5.055 123.425  0.00  0.00    +0.000 OA
ATOM      9  H   UNL     1      -5.245  -4.009 125.217  0.00  0.00    +0.000 HD
ENDBRANCH   5   6
BRANCH   5  10
ATOM     10  C   UNL     1      -7.075  -2.122 123.736  0.00  0.00    +0.000 C 
BRANCH  10  11
ATOM     11  C   UNL     1      -8.007  -3.334 124.052  0.00  0.00    +0.000 C 
ATOM     12  C   UNL     1      -8.291  -3.584 125.526  0.00  0.00    +0.000 C 
ATOM     13  C   UNL     1      -9.366  -3.132 123.377  0.00  0.00    +0.000 C 
ENDBRANCH  10  11
ENDBRANCH   5  10
ENDBRANCH   3   5
ENDBRANCH   2   3
ENDBRANCH   1   2
BRANCH   1  14
ATOM     14  C   UNL     1      -8.949  -0.121 126.041  0.00  0.00    +0.000 C 
BRANCH  14  15
ATOM     15  C   UNL     1      -9.391   1.015 125.079  0.00  0.00    +0.000 C 
ATOM     16  O   UNL     1     -10.644   1.007 124.339  0.00  0.00    +0.000 OA
ATOM     17  C   UNL     1     -10.007   0.898 123.143  0.00  0.00    +0.000 C 
ATOM     18  O   UNL     1     -10.466   0.623 122.048  0.00  0.00    +0.000 OA
ATOM     19  C   UNL     1      -8.671   1.336 123.743  0.00  0.00    +0.000 C 
BRANCH  19  20
ATOM     20  C   UNL     1      -8.476   2.801 123.456  0.00  0.00    +0.000 C 
BRANCH  20  21
ATOM     21  C   UNL     1      -6.995   3.076 123.497  0.00  0.00    +0.000 C 
BRANCH  21  22
ATOM     22  C   UNL     1      -6.394   2.734 122.170  0.00  0.00    +0.000 C 
BRANCH  22  23
ATOM     23  C   UNL     1      -5.719   3.968 121.620  0.00  0.00    +0.000 C 
BRANCH  23  24
ATOM     24  C   UNL     1      -6.256   4.245 120.232  0.00  0.00    +0.000 C 
ATOM     25  C   UNL     1      -5.434   5.324 119.567  0.00  0.00    +0.000 C 
ENDBRANCH  23  24
ENDBRANCH  22  23
ENDBRANCH  21  22
ENDBRANCH  20  21
ENDBRANCH  19  20
ENDBRANCH  14  15
ENDBRANCH   1  14
BRANCH   1  26
ATOM     26  C   UNL     1      -7.315   1.230 127.512  0.00  0.00    +0.000 C 
BRANCH  26  27
ATOM     27  C   UNL     1      -8.159   1.307 128.735  0.00  0.00    +0.000 C 
BRANCH  27  28
ATOM     28  C   UNL     1      -7.639   1.060 130.106  0.00  0.00    +0.000 C 
BRANCH  28  29
ATOM     29  C   UNL     1      -8.214  -0.255 130.655  0.00  0.00    +0.000 C 
BRANCH  29  30
ATOM     30  C   UNL     1      -7.304  -1.364 130.190  0.00  0.00    +0.000 C 
BRANCH  30  31
ATOM     31  C   UNL     1      -8.070  -2.441 129.453  0.00  0.00    +0.000 C 
BRANCH  31  32
ATOM     32  C   UNL     1      -7.293  -3.740 129.558  0.00  0.00    +0.000 C 
BRANCH  32  33
ATOM     33  C   UNL     1      -6.318  -3.672 130.715  0.00  0.00    +0.000 C 
BRANCH  33  34
ATOM     34  C   UNL     1      -4.990  -4.287 130.310  0.00  0.00    +0.000 C 
BRANCH  34  36
ATOM     35  C   UNL     1      -2.911  -3.818 129.020  0.00  0.00    +0.000 C 
ATOM     36  C   UNL     1      -4.032  -3.205 129.834  0.00  0.00    +0.000 C 
ENDBRANCH  34  36
ENDBRANCH  33  34
ENDBRANCH  32  33
ENDBRANCH  31  32
ENDBRANCH  30  31
ENDBRANCH  29  30
ENDBRANCH  28  29
ENDBRANCH  27  28
ENDBRANCH  26  27
ENDBRANCH   1  26
TORSDOF 23
ENDMDL
MODEL 3
REMARK VINA RESULT:      -6.4      1.908      4.945
REMARK  Name = Orlistat
REMARK  27 active torsions:
REMARK  status: ('A' for Active; 'I' for Inactive)
REMARK    1  A    between atoms: C_1  and  C_2
REMARK    2  A    between atoms: C_2  and  C_3
REMARK    3  A    between atoms: C_3  and  C_4
REMARK    4  A    between atoms: C_4  and  C_5
REMARK    5  A    between atoms: C_5  and  C_6
REMARK    6  A    between atoms: C_6  and  C_7
REMARK    7  A    between atoms: C_7  and  C_8
REMARK    8  A    between atoms: C_8  and  C_9
REMARK    9  A    between atoms: C_9  and  C_10
REMARK   10  A    between atoms: C_10  and  C_11
REMARK   11  A    between atoms: C_11  and  C_12
REMARK   12  A    between atoms: C_12  and  C_13
REMARK   13  A    between atoms: C_12  and  O_25
REMARK   14  A    between atoms: C_13  and  C_14
REMARK   15  A    between atoms: C_18  and  C_19
REMARK   16  A    between atoms: C_19  and  C_20
REMARK   17  A    between atoms: C_20  and  C_21
REMARK   18  A    between atoms: C_21  and  C_22
REMARK   19  A    between atoms: C_22  and  C_23
REMARK   20  A    between atoms: C_23  and  C_24
REMARK   21  A    between atoms: O_25  and  C_26
REMARK   22  A    between atoms: C_26  and  C_28
REMARK   23  A    between atoms: C_28  and  C_29
REMARK   24  A    between atoms: C_28  and  N_33
REMARK   25  A    between atoms: C_29  and  C_30
REMARK   26  A    between atoms: C_30  and  C_31
REMARK   27  A    between atoms: C_30  and  C_32
REMARK                            x       y       z     vdW  Elec       q    Type
REMARK                         _______ _______ _______ _____ _____    ______ ____
ROOT
ATOM      1  C   UNL     1      -7.861   2.224 126.606  0.00  0.00    +0.000 C 
ENDROOT
BRANCH   1   2
ATOM      2  O   UNL     1      -8.652   3.404 126.205  0.00  0.00    +0.000 OA
BRANCH   2   3
ATOM      3  C   UNL     1      -7.933   4.463 125.777  0.00  0.00    +0.000 C 
ATOM      4  O   UNL     1      -8.394   5.588 125.847  0.00  0.00    +0.000 OA
BRANCH   3   5
ATOM      5  C   UNL     1      -6.523   4.160 125.230  0.00  0.00    +0.000 C 
BRANCH   5   6
ATOM      6  N   UNL     1      -6.336   4.591 123.850  0.00  0.00    +0.000 N 
ATOM      7  C   UNL     1      -5.235   4.315 123.099  0.00  0.00    +0.000 C 
ATOM      8  O   UNL     1      -5.088   4.743 121.964  0.00  0.00    +0.000 OA
ATOM      9  H   UNL     1      -6.959   5.281 123.444  0.00  0.00    +0.000 HD
ENDBRANCH   5   6
BRANCH   5  10
ATOM     10  C   UNL     1      -5.439   4.806 126.145  0.00  0.00    +0.000 C 
BRANCH  10  11
ATOM     11  C   UNL     1      -4.520   3.866 126.989  0.00  0.00    +0.000 C 
ATOM     12  C   UNL     1      -4.134   2.551 126.327  0.00  0.00    +0.000 C 
ATOM     13  C   UNL     1      -3.210   4.584 127.321  0.00  0.00    +0.000 C 
ENDBRANCH  10  11
ENDBRANCH   5  10
ENDBRANCH   3   5
ENDBRANCH   2   3
ENDBRANCH   1   2
BRANCH   1  14
ATOM     14  C   UNL     1      -8.432   0.862 126.094  0.00  0.00    +0.000 C 
BRANCH  14  15
ATOM     15  C   UNL     1      -8.230   0.362 124.638  0.00  0.00    +0.000 C 
ATOM     16  O   UNL     1      -8.696   1.082 123.463  0.00  0.00    +0.000 OA
ATOM     17  C   UNL     1      -9.604   0.117 123.157  0.00  0.00    +0.000 C 
ATOM     18  O   UNL     1     -10.531   0.155 122.367  0.00  0.00    +0.000 OA
ATOM     19  C   UNL     1      -8.918  -0.905 124.064  0.00  0.00    +0.000 C 
BRANCH  19  20
ATOM     20  C   UNL     1      -8.039  -1.782 123.214  0.00  0.00    +0.000 C 
BRANCH  20  21
ATOM     21  C   UNL     1      -8.209  -3.198 123.701  0.00  0.00    +0.000 C 
BRANCH  21  22
ATOM     22  C   UNL     1      -6.932  -3.657 124.334  0.00  0.00    +0.000 C 
BRANCH  22  23
ATOM     23  C   UNL     1      -5.876  -2.603 124.097  0.00  0.00    +0.000 C 
BRANCH  23  24
ATOM     24  C   UNL     1      -4.751  -3.207 123.284  0.00  0.00    +0.000 C 
ATOM     25  C   UNL     1      -4.472  -4.613 123.758  0.00  0.00    +0.000 C 
ENDBRANCH  23  24
ENDBRANCH  22  23
ENDBRANCH  21  22
ENDBRANCH  20  21
ENDBRANCH  19  20
ENDBRANCH  14  15
ENDBRANCH   1  14
BRANCH   1  26
ATOM     26  C   UNL     1      -7.887   2.334 128.142  0.00  0.00    +0.000 C 
BRANCH  26  27
ATOM     27  C   UNL     1      -7.439   1.046 128.738  0.00  0.00    +0.000 C 
BRANCH  27  28
ATOM     28  C   UNL     1      -6.021   0.747 129.071  0.00  0.00    +0.000 C 
BRANCH  28  29
ATOM     29  C   UNL     1      -5.464  -0.303 128.097  0.00  0.00    +0.000 C 
BRANCH  29  30
ATOM     30  C   UNL     1      -4.771  -1.353 128.926  0.00  0.00    +0.000 C 
BRANCH  30  31
ATOM     31  C   UNL     1      -5.486  -2.685 128.850  0.00  0.00    +0.000 C 
BRANCH  31  32
ATOM     32  C   UNL     1      -6.421  -2.798 130.039  0.00  0.00    +0.000 C 
BRANCH  32  33
ATOM     33  C   UNL     1      -7.802  -3.216 129.577  0.00  0.00    +0.000 C 
BRANCH  33  34
ATOM     34  C   UNL     1      -8.070  -2.667 128.186  0.00  0.00    +0.000 C 
BRANCH  34  36
ATOM     35  C   UNL     1      -9.893  -4.361 128.267  0.00  0.00    +0.000 C 
ATOM     36  C   UNL     1      -8.888  -3.660 127.376  0.00  0.00    +0.000 C 
ENDBRANCH  34  36
ENDBRANCH  33  34
ENDBRANCH  32  33
ENDBRANCH  31  32
ENDBRANCH  30  31
ENDBRANCH  29  30
ENDBRANCH  28  29
ENDBRANCH  27  28
ENDBRANCH  26  27
ENDBRANCH   1  26
TORSDOF 23
ENDMDL
MODEL 4
REMARK VINA RESULT:      -6.4      3.440      6.165
REMARK  Name = Orlistat
REMARK  27 active torsions:
REMARK  status: ('A' for Active; 'I' for Inactive)
REMARK    1  A    between atoms: C_1  and  C_2
REMARK    2  A    between atoms: C_2  and  C_3
REMARK    3  A    between atoms: C_3  and  C_4
REMARK    4  A    between atoms: C_4  and  C_5
REMARK    5  A    between atoms: C_5  and  C_6
REMARK    6  A    between atoms: C_6  and  C_7
REMARK    7  A    between atoms: C_7  and  C_8
REMARK    8  A    between atoms: C_8  and  C_9
REMARK    9  A    between atoms: C_9  and  C_10
REMARK   10  A    between atoms: C_10  and  C_11
REMARK   11  A    between atoms: C_11  and  C_12
REMARK   12  A    between atoms: C_12  and  C_13
REMARK   13  A    between atoms: C_12  and  O_25
REMARK   14  A    between atoms: C_13  and  C_14
REMARK   15  A    between atoms: C_18  and  C_19
REMARK   16  A    between atoms: C_19  and  C_20
REMARK   17  A    between atoms: C_20  and  C_21
REMARK   18  A    between atoms: C_21  and  C_22
REMARK   19  A    between atoms: C_22  and  C_23
REMARK   20  A    between atoms: C_23  and  C_24
REMARK   21  A    between atoms: O_25  and  C_26
REMARK   22  A    between atoms: C_26  and  C_28
REMARK   23  A    between atoms: C_28  and  C_29
REMARK   24  A    between atoms: C_28  and  N_33
REMARK   25  A    between atoms: C_29  and  C_30
REMARK   26  A    between atoms: C_30  and  C_31
REMARK   27  A    between atoms: C_30  and  C_32
REMARK                            x       y       z     vdW  Elec       q    Type
REMARK                         _______ _______ _______ _____ _____    ______ ____
ROOT
ATOM      1  C   UNL     1      -7.829   2.601 127.119  0.00  0.00    +0.000 C 
ENDROOT
BRANCH   1   2
ATOM      2  O   UNL     1      -7.319   2.841 125.755  0.00  0.00    +0.000 OA
BRANCH   2   3
ATOM      3  C   UNL     1      -8.134   3.554 124.950  0.00  0.00    +0.000 C 
ATOM      4  O   UNL     1      -8.719   4.532 125.379  0.00  0.00    +0.000 OA
BRANCH   3   5
ATOM      5  C   UNL     1      -8.253   3.071 123.490  0.00  0.00    +0.000 C 
BRANCH   5   6
ATOM      6  N   UNL     1      -7.315   3.727 122.588  0.00  0.00    +0.000 N 
ATOM      7  C   UNL     1      -6.366   3.079 121.858  0.00  0.00    +0.000 C 
ATOM      8  O   UNL     1      -5.559   3.669 121.156  0.00  0.00    +0.000 OA
ATOM      9  H   UNL     1      -7.214   4.736 122.605  0.00  0.00    +0.000 HD
ENDBRANCH   5   6
BRANCH   5  10
ATOM     10  C   UNL     1      -8.074   1.523 123.417  0.00  0.00    +0.000 C 
BRANCH  10  11
ATOM     11  C   UNL     1      -9.324   0.617 123.656  0.00  0.00    +0.000 C 
ATOM     12  C   UNL     1     -10.281   1.083 124.744  0.00  0.00    +0.000 C 
ATOM     13  C   UNL     1     -10.146   0.518 122.369  0.00  0.00    +0.000 C 
ENDBRANCH  10  11
ENDBRANCH   5  10
ENDBRANCH   3   5
ENDBRANCH   2   3
ENDBRANCH   1   2
BRANCH   1  14
ATOM     14  C   UNL     1      -7.111   3.433 128.231  0.00  0.00    +0.000 C 
BRANCH  14  15
ATOM     15  C   UNL     1      -7.809   3.840 129.557  0.00  0.00    +0.000 C 
ATOM     16  O   UNL     1      -8.671   2.954 130.323  0.00  0.00    +0.000 OA
ATOM     17  C   UNL     1      -9.773   3.710 130.073  0.00  0.00    +0.000 C 
ATOM     18  O   UNL     1     -10.948   3.440 130.249  0.00  0.00    +0.000 OA
ATOM     19  C   UNL     1      -8.930   4.909 129.641  0.00  0.00    +0.000 C 
BRANCH  19  20
ATOM     20  C   UNL     1      -8.822   5.860 130.804  0.00  0.00    +0.000 C 
BRANCH  20  21
ATOM     21  C   UNL     1      -9.365   7.190 130.351  0.00  0.00    +0.000 C 
BRANCH  21  22
ATOM     22  C   UNL     1     -10.178   6.993 129.109  0.00  0.00    +0.000 C 
BRANCH  22  23
ATOM     23  C   UNL     1     -10.431   8.346 128.485  0.00  0.00    +0.000 C 
BRANCH  23  24
ATOM     24  C   UNL     1     -11.492   8.202 127.415  0.00  0.00    +0.000 C 
ATOM     25  C   UNL     1     -12.481   7.131 127.811  0.00  0.00    +0.000 C 
ENDBRANCH  23  24
ENDBRANCH  22  23
ENDBRANCH  21  22
ENDBRANCH  20  21
ENDBRANCH  19  20
ENDBRANCH  14  15
ENDBRANCH   1  14
BRANCH   1  26
ATOM     26  C   UNL     1      -7.603   1.086 127.278  0.00  0.00    +0.000 C 
BRANCH  26  27
ATOM     27  C   UNL     1      -6.440   0.669 126.450  0.00  0.00    +0.000 C 
BRANCH  27  28
ATOM     28  C   UNL     1      -5.847  -0.694 126.497  0.00  0.00    +0.000 C 
BRANCH  28  29
ATOM     29  C   UNL     1      -5.526  -1.174 125.073  0.00  0.00    +0.000 C 
BRANCH  29  30
ATOM     30  C   UNL     1      -5.463  -2.680 125.118  0.00  0.00    +0.000 C 
BRANCH  30  31
ATOM     31  C   UNL     1      -6.253  -3.304 123.988  0.00  0.00    +0.000 C 
BRANCH  31  32
ATOM     32  C   UNL     1      -7.234  -2.274 123.460  0.00  0.00    +0.000 C 
BRANCH  32  33
ATOM     33  C   UNL     1      -8.604  -2.899 123.295  0.00  0.00    +0.000 C 
BRANCH  33  34
ATOM     34  C   UNL     1      -9.043  -3.538 124.601  0.00  0.00    +0.000 C 
BRANCH  34  36
ATOM     35  C   UNL     1      -8.730  -3.002 127.013  0.00  0.00    +0.000 C 
ATOM     36  C   UNL     1      -9.212  -2.476 125.677  0.00  0.00    +0.000 C 
ENDBRANCH  34  36
ENDBRANCH  33  34
ENDBRANCH  32  33
ENDBRANCH  31  32
ENDBRANCH  30  31
ENDBRANCH  29  30
ENDBRANCH  28  29
ENDBRANCH  27  28
ENDBRANCH  26  27
ENDBRANCH   1  26
TORSDOF 23
ENDMDL
MODEL 5
REMARK VINA RESULT:      -6.3      2.162      6.418
REMARK  Name = Orlistat
REMARK  27 active torsions:
REMARK  status: ('A' for Active; 'I' for Inactive)
REMARK    1  A    between atoms: C_1  and  C_2
REMARK    2  A    between atoms: C_2  and  C_3
REMARK    3  A    between atoms: C_3  and  C_4
REMARK    4  A    between atoms: C_4  and  C_5
REMARK    5  A    between atoms: C_5  and  C_6
REMARK    6  A    between atoms: C_6  and  C_7
REMARK    7  A    between atoms: C_7  and  C_8
REMARK    8  A    between atoms: C_8  and  C_9
REMARK    9  A    between atoms: C_9  and  C_10
REMARK   10  A    between atoms: C_10  and  C_11
REMARK   11  A    between atoms: C_11  and  C_12
REMARK   12  A    between atoms: C_12  and  C_13
REMARK   13  A    between atoms: C_12  and  O_25
REMARK   14  A    between atoms: C_13  and  C_14
REMARK   15  A    between atoms: C_18  and  C_19
REMARK   16  A    between atoms: C_19  and  C_20
REMARK   17  A    between atoms: C_20  and  C_21
REMARK   18  A    between atoms: C_21  and  C_22
REMARK   19  A    between atoms: C_22  and  C_23
REMARK   20  A    between atoms: C_23  and  C_24
REMARK   21  A    between atoms: O_25  and  C_26
REMARK   22  A    between atoms: C_26  and  C_28
REMARK   23  A    between atoms: C_28  and  C_29
REMARK   24  A    between atoms: C_28  and  N_33
REMARK   25  A    between atoms: C_29  and  C_30
REMARK   26  A    between atoms: C_30  and  C_31
REMARK   27  A    between atoms: C_30  and  C_32
REMARK                            x       y       z     vdW  Elec       q    Type
REMARK                         _______ _______ _______ _____ _____    ______ ____
ROOT
ATOM      1  C   UNL     1      -6.483   2.749 126.817  0.00  0.00    +0.000 C 
ENDROOT
BRANCH   1   2
ATOM      2  O   UNL     1      -6.608   3.206 125.419  0.00  0.00    +0.000 OA
BRANCH   2   3
ATOM      3  C   UNL     1      -7.828   3.046 124.866  0.00  0.00    +0.000 C 
ATOM      4  O   UNL     1      -8.727   3.828 125.122  0.00  0.00    +0.000 OA
BRANCH   3   5
ATOM      5  C   UNL     1      -7.995   1.855 123.901  0.00  0.00    +0.000 C 
BRANCH   5   6
ATOM      6  N   UNL     1      -9.371   1.657 123.463  0.00  0.00    +0.000 N 
ATOM      7  C   UNL     1      -9.853   0.498 122.934  0.00  0.00    +0.000 C 
ATOM      8  O   UNL     1     -10.999   0.388 122.524  0.00  0.00    +0.000 OA
ATOM      9  H   UNL     1      -9.995   2.451 123.369  0.00  0.00    +0.000 HD
ENDBRANCH   5   6
BRANCH   5  10
ATOM     10  C   UNL     1      -7.059   2.026 122.666  0.00  0.00    +0.000 C 
BRANCH  10  11
ATOM     11  C   UNL     1      -6.914   3.446 122.032  0.00  0.00    +0.000 C 
ATOM     12  C   UNL     1      -5.575   3.742 121.371  0.00  0.00    +0.000 C 
ATOM     13  C   UNL     1      -7.982   3.644 120.954  0.00  0.00    +0.000 C 
ENDBRANCH  10  11
ENDBRANCH   5  10
ENDBRANCH   3   5
ENDBRANCH   2   3
ENDBRANCH   1   2
BRANCH   1  14
ATOM     14  C   UNL     1      -5.666   3.711 127.739  0.00  0.00    +0.000 C 
BRANCH  14  15
ATOM     15  C   UNL     1      -4.389   4.451 127.257  0.00  0.00    +0.000 C 
ATOM     16  O   UNL     1      -3.525   3.964 126.192  0.00  0.00    +0.000 OA
ATOM     17  C   UNL     1      -2.491   3.744 127.048  0.00  0.00    +0.000 C 
ATOM     18  O   UNL     1      -1.460   3.121 126.866  0.00  0.00    +0.000 OA
ATOM     19  C   UNL     1      -3.118   4.624 128.130  0.00  0.00    +0.000 C 
BRANCH  19  20
ATOM     20  C   UNL     1      -2.478   5.985 128.067  0.00  0.00    +0.000 C 
BRANCH  20  21
ATOM     21  C   UNL     1      -1.941   6.295 129.441  0.00  0.00    +0.000 C 
BRANCH  21  22
ATOM     22  C   UNL     1      -3.061   6.232 130.432  0.00  0.00    +0.000 C 
BRANCH  22  23
ATOM     23  C   UNL     1      -2.537   6.695 131.772  0.00  0.00    +0.000 C 
BRANCH  23  24
ATOM     24  C   UNL     1      -1.287   5.912 132.108  0.00  0.00    +0.000 C 
ATOM     25  C   UNL     1      -1.660   4.547 132.637  0.00  0.00    +0.000 C 
ENDBRANCH  23  24
ENDBRANCH  22  23
ENDBRANCH  21  22
ENDBRANCH  20  21
ENDBRANCH  19  20
ENDBRANCH  14  15
ENDBRANCH   1  14
BRANCH   1  26
ATOM     26  C   UNL     1      -5.799   1.380 126.641  0.00  0.00    +0.000 C 
BRANCH  26  27
ATOM     27  C   UNL     1      -6.688   0.311 127.168  0.00  0.00    +0.000 C 
BRANCH  27  28
ATOM     28  C   UNL     1      -6.255  -1.101 127.348  0.00  0.00    +0.000 C 
BRANCH  28  29
ATOM     29  C   UNL     1      -7.468  -2.038 127.245  0.00  0.00    +0.000 C 
BRANCH  29  30
ATOM     30  C   UNL     1      -8.470  -1.367 126.341  0.00  0.00    +0.000 C 
BRANCH  30  31
ATOM     31  C   UNL     1      -9.059  -2.339 125.342  0.00  0.00    +0.000 C 
BRANCH  31  32
ATOM     32  C   UNL     1      -7.931  -3.169 124.757  0.00  0.00    +0.000 C 
BRANCH  32  33
ATOM     33  C   UNL     1      -7.455  -2.557 123.455  0.00  0.00    +0.000 C 
BRANCH  33  34
ATOM     34  C   UNL     1      -6.032  -2.052 123.611  0.00  0.00    +0.000 C 
BRANCH  34  36
ATOM     35  C   UNL     1      -4.470  -3.989 123.491  0.00  0.00    +0.000 C 
ATOM     36  C   UNL     1      -5.206  -3.044 124.418  0.00  0.00    +0.000 C 
ENDBRANCH  34  36
ENDBRANCH  33  34
ENDBRANCH  32  33
ENDBRANCH  31  32
ENDBRANCH  30  31
ENDBRANCH  29  30
ENDBRANCH  28  29
ENDBRANCH  27  28
ENDBRANCH  26  27
ENDBRANCH   1  26
TORSDOF 23
ENDMDL
MODEL 6
REMARK VINA RESULT:      -6.2      3.702      7.351
REMARK  Name = Orlistat
REMARK  27 active torsions:
REMARK  status: ('A' for Active; 'I' for Inactive)
REMARK    1  A    between atoms: C_1  and  C_2
REMARK    2  A    between atoms: C_2  and  C_3
REMARK    3  A    between atoms: C_3  and  C_4
REMARK    4  A    between atoms: C_4  and  C_5
REMARK    5  A    between atoms: C_5  and  C_6
REMARK    6  A    between atoms: C_6  and  C_7
REMARK    7  A    between atoms: C_7  and  C_8
REMARK    8  A    between atoms: C_8  and  C_9
REMARK    9  A    between atoms: C_9  and  C_10
REMARK   10  A    between atoms: C_10  and  C_11
REMARK   11  A    between atoms: C_11  and  C_12
REMARK   12  A    between atoms: C_12  and  C_13
REMARK   13  A    between atoms: C_12  and  O_25
REMARK   14  A    between atoms: C_13  and  C_14
REMARK   15  A    between atoms: C_18  and  C_19
REMARK   16  A    between atoms: C_19  and  C_20
REMARK   17  A    between atoms: C_20  and  C_21
REMARK   18  A    between atoms: C_21  and  C_22
REMARK   19  A    between atoms: C_22  and  C_23
REMARK   20  A    between atoms: C_23  and  C_24
REMARK   21  A    between atoms: O_25  and  C_26
REMARK   22  A    between atoms: C_26  and  C_28
REMARK   23  A    between atoms: C_28  and  C_29
REMARK   24  A    between atoms: C_28  and  N_33
REMARK   25  A    between atoms: C_29  and  C_30
REMARK   26  A    between atoms: C_30  and  C_31
REMARK   27  A    between atoms: C_30  and  C_32
REMARK                            x       y       z     vdW  Elec       q    Type
REMARK                         _______ _______ _______ _____ _____    ______ ____
ROOT
ATOM      1  C   UNL     1      -7.977   2.054 127.163  0.00  0.00    +0.000 C 
ENDROOT
BRANCH   1   2
ATOM      2  O   UNL     1      -8.236   3.507 127.175  0.00  0.00    +0.000 OA
BRANCH   2   3
ATOM      3  C   UNL     1      -7.928   4.158 126.034  0.00  0.00    +0.000 C 
ATOM      4  O   UNL     1      -8.747   4.884 125.500  0.00  0.00    +0.000 OA
BRANCH   3   5
ATOM      5  C   UNL     1      -6.503   3.942 125.483  0.00  0.00    +0.000 C 
BRANCH   5   6
ATOM      6  N   UNL     1      -6.278   4.595 124.200  0.00  0.00    +0.000 N 
ATOM      7  C   UNL     1      -5.945   3.944 123.051  0.00  0.00    +0.000 C 
ATOM      8  O   UNL     1      -5.707   4.532 122.007  0.00  0.00    +0.000 OA
ATOM      9  H   UNL     1      -6.184   5.604 124.152  0.00  0.00    +0.000 HD
ENDBRANCH   5   6
BRANCH   5  10
ATOM     10  C   UNL     1      -5.444   4.420 126.522  0.00  0.00    +0.000 C 
BRANCH  10  11
ATOM     11  C   UNL     1      -4.398   3.387 127.049  0.00  0.00    +0.000 C 
ATOM     12  C   UNL     1      -4.435   2.014 126.392  0.00  0.00    +0.000 C 
ATOM     13  C   UNL     1      -2.982   3.929 126.838  0.00  0.00    +0.000 C 
ENDBRANCH  10  11
ENDBRANCH   5  10
ENDBRANCH   3   5
ENDBRANCH   2   3
ENDBRANCH   1   2
BRANCH   1  14
ATOM     14  C   UNL     1      -8.923   1.239 126.221  0.00  0.00    +0.000 C 
BRANCH  14  15
ATOM     15  C   UNL     1      -8.551   0.894 124.754  0.00  0.00    +0.000 C 
ATOM     16  O   UNL     1      -9.091   1.592 123.597  0.00  0.00    +0.000 OA
ATOM     17  C   UNL     1      -9.771   0.493 123.175  0.00  0.00    +0.000 C 
ATOM     18  O   UNL     1     -10.646   0.405 122.332  0.00  0.00    +0.000 OA
ATOM     19  C   UNL     1      -8.942  -0.438 124.061  0.00  0.00    +0.000 C 
BRANCH  19  20
ATOM     20  C   UNL     1      -7.863  -1.063 123.218  0.00  0.00    +0.000 C 
BRANCH  20  21
ATOM     21  C   UNL     1      -7.875  -2.544 123.495  0.00  0.00    +0.000 C 
BRANCH  21  22
ATOM     22  C   UNL     1      -7.522  -2.779 124.930  0.00  0.00    +0.000 C 
BRANCH  22  23
ATOM     23  C   UNL     1      -8.550  -3.712 125.528  0.00  0.00    +0.000 C 
BRANCH  23  24
ATOM     24  C   UNL     1      -8.768  -3.338 126.978  0.00  0.00    +0.000 C 
ATOM     25  C   UNL     1      -7.918  -2.142 127.335  0.00  0.00    +0.000 C 
ENDBRANCH  23  24
ENDBRANCH  22  23
ENDBRANCH  21  22
ENDBRANCH  20  21
ENDBRANCH  19  20
ENDBRANCH  14  15
ENDBRANCH   1  14
BRANCH   1  26
ATOM     26  C   UNL     1      -8.166   1.687 128.647  0.00  0.00    +0.000 C 
BRANCH  26  27
ATOM     27  C   UNL     1      -8.620   2.888 129.399  0.00  0.00    +0.000 C 
BRANCH  27  28
ATOM     28  C   UNL     1      -9.546   2.825 130.561  0.00  0.00    +0.000 C 
BRANCH  28  29
ATOM     29  C   UNL     1     -10.560   3.978 130.486  0.00  0.00    +0.000 C 
BRANCH  29  30
ATOM     30  C   UNL     1      -9.839   5.162 129.896  0.00  0.00    +0.000 C 
BRANCH  30  31
ATOM     31  C   UNL     1     -10.273   6.459 130.544  0.00  0.00    +0.000 C 
BRANCH  31  32
ATOM     32  C   UNL     1      -9.699   7.613 129.744  0.00  0.00    +0.000 C 
BRANCH  32  33
ATOM     33  C   UNL     1     -10.697   8.069 128.699  0.00  0.00    +0.000 C 
BRANCH  33  34
ATOM     34  C   UNL     1     -12.006   8.454 129.367  0.00  0.00    +0.000 C 
BRANCH  34  36
ATOM     35  C   UNL     1     -13.516   6.914 128.122  0.00  0.00    +0.000 C 
ATOM     36  C   UNL     1     -13.152   8.364 128.372  0.00  0.00    +0.000 C 
ENDBRANCH  34  36
ENDBRANCH  33  34
ENDBRANCH  32  33
ENDBRANCH  31  32
ENDBRANCH  30  31
ENDBRANCH  29  30
ENDBRANCH  28  29
ENDBRANCH  27  28
ENDBRANCH  26  27
ENDBRANCH   1  26
TORSDOF 23
ENDMDL
MODEL 7
REMARK VINA RESULT:      -6.1      3.221      5.635
REMARK  Name = Orlistat
REMARK  27 active torsions:
REMARK  status: ('A' for Active; 'I' for Inactive)
REMARK    1  A    between atoms: C_1  and  C_2
REMARK    2  A    between atoms: C_2  and  C_3
REMARK    3  A    between atoms: C_3  and  C_4
REMARK    4  A    between atoms: C_4  and  C_5
REMARK    5  A    between atoms: C_5  and  C_6
REMARK    6  A    between atoms: C_6  and  C_7
REMARK    7  A    between atoms: C_7  and  C_8
REMARK    8  A    between atoms: C_8  and  C_9
REMARK    9  A    between atoms: C_9  and  C_10
REMARK   10  A    between atoms: C_10  and  C_11
REMARK   11  A    between atoms: C_11  and  C_12
REMARK   12  A    between atoms: C_12  and  C_13
REMARK   13  A    between atoms: C_12  and  O_25
REMARK   14  A    between atoms: C_13  and  C_14
REMARK   15  A    between atoms: C_18  and  C_19
REMARK   16  A    between atoms: C_19  and  C_20
REMARK   17  A    between atoms: C_20  and  C_21
REMARK   18  A    between atoms: C_21  and  C_22
REMARK   19  A    between atoms: C_22  and  C_23
REMARK   20  A    between atoms: C_23  and  C_24
REMARK   21  A    between atoms: O_25  and  C_26
REMARK   22  A    between atoms: C_26  and  C_28
REMARK   23  A    between atoms: C_28  and  C_29
REMARK   24  A    between atoms: C_28  and  N_33
REMARK   25  A    between atoms: C_29  and  C_30
REMARK   26  A    between atoms: C_30  and  C_31
REMARK   27  A    between atoms: C_30  and  C_32
REMARK                            x       y       z     vdW  Elec       q    Type
REMARK                         _______ _______ _______ _____ _____    ______ ____
ROOT
ATOM      1  C   UNL     1      -6.613   2.013 127.913  0.00  0.00    +0.000 C 
ENDROOT
BRANCH   1   2
ATOM      2  O   UNL     1      -6.554   2.881 129.106  0.00  0.00    +0.000 OA
BRANCH   2   3
ATOM      3  C   UNL     1      -7.459   3.881 129.137  0.00  0.00    +0.000 C 
ATOM      4  O   UNL     1      -7.512   4.691 128.229  0.00  0.00    +0.000 OA
BRANCH   3   5
ATOM      5  C   UNL     1      -8.406   3.913 130.354  0.00  0.00    +0.000 C 
BRANCH   5   6
ATOM      6  N   UNL     1      -8.888   2.594 130.744  0.00  0.00    +0.000 N 
ATOM      7  C   UNL     1      -9.895   2.373 131.632  0.00  0.00    +0.000 C 
ATOM      8  O   UNL     1     -10.234   1.251 131.978  0.00  0.00    +0.000 OA
ATOM      9  H   UNL     1      -8.359   1.765 130.495  0.00  0.00    +0.000 HD
ENDBRANCH   5   6
BRANCH   5  10
ATOM     10  C   UNL     1      -7.707   4.607 131.563  0.00  0.00    +0.000 C 
BRANCH  10  11
ATOM     11  C   UNL     1      -7.820   6.159 131.698  0.00  0.00    +0.000 C 
ATOM     12  C   UNL     1      -6.642   6.958 131.158  0.00  0.00    +0.000 C 
ATOM     13  C   UNL     1      -9.059   6.656 130.950  0.00  0.00    +0.000 C 
ENDBRANCH  10  11
ENDBRANCH   5  10
ENDBRANCH   3   5
ENDBRANCH   2   3
ENDBRANCH   1   2
BRANCH   1  14
ATOM     14  C   UNL     1      -8.016   1.957 127.226  0.00  0.00    +0.000 C 
BRANCH  14  15
ATOM     15  C   UNL     1      -8.193   1.853 125.687  0.00  0.00    +0.000 C 
ATOM     16  O   UNL     1      -9.268   2.502 124.951  0.00  0.00    +0.000 OA
ATOM     17  C   UNL     1      -9.835   1.314 124.612  0.00  0.00    +0.000 C 
ATOM     18  O   UNL     1     -10.936   1.093 124.140  0.00  0.00    +0.000 OA
ATOM     19  C   UNL     1      -8.563   0.537 124.954  0.00  0.00    +0.000 C 
BRANCH  19  20
ATOM     20  C   UNL     1      -7.805   0.279 123.679  0.00  0.00    +0.000 C 
BRANCH  20  21
ATOM     21  C   UNL     1      -6.619  -0.583 124.027  0.00  0.00    +0.000 C 
BRANCH  21  22
ATOM     22  C   UNL     1      -6.565  -1.748 123.088  0.00  0.00    +0.000 C 
BRANCH  22  23
ATOM     23  C   UNL     1      -6.169  -2.975 123.875  0.00  0.00    +0.000 C 
BRANCH  23  24
ATOM     24  C   UNL     1      -4.684  -3.211 123.703  0.00  0.00    +0.000 C 
ATOM     25  C   UNL     1      -4.409  -4.691 123.575  0.00  0.00    +0.000 C 
ENDBRANCH  23  24
ENDBRANCH  22  23
ENDBRANCH  21  22
ENDBRANCH  20  21
ENDBRANCH  19  20
ENDBRANCH  14  15
ENDBRANCH   1  14
BRANCH   1  26
ATOM     26  C   UNL     1      -6.186   0.651 128.492  0.00  0.00    +0.000 C 
BRANCH  26  27
ATOM     27  C   UNL     1      -5.476  -0.131 127.445  0.00  0.00    +0.000 C 
BRANCH  27  28
ATOM     28  C   UNL     1      -5.459  -1.618 127.403  0.00  0.00    +0.000 C 
BRANCH  28  29
ATOM     29  C   UNL     1      -4.594  -2.165 128.550  0.00  0.00    +0.000 C 
BRANCH  29  30
ATOM     30  C   UNL     1      -5.417  -3.202 129.269  0.00  0.00    +0.000 C 
BRANCH  30  31
ATOM     31  C   UNL     1      -6.340  -2.572 130.290  0.00  0.00    +0.000 C 
BRANCH  31  32
ATOM     32  C   UNL     1      -7.707  -3.219 130.167  0.00  0.00    +0.000 C 
BRANCH  32  33
ATOM     33  C   UNL     1      -8.419  -2.700 128.934  0.00  0.00    +0.000 C 
BRANCH  33  34
ATOM     34  C   UNL     1      -8.882  -3.864 128.076  0.00  0.00    +0.000 C 
BRANCH  34  36
ATOM     35  C   UNL     1      -9.604  -2.894 125.898  0.00  0.00    +0.000 C 
ATOM     36  C   UNL     1      -8.497  -3.633 126.622  0.00  0.00    +0.000 C 
ENDBRANCH  34  36
ENDBRANCH  33  34
ENDBRANCH  32  33
ENDBRANCH  31  32
ENDBRANCH  30  31
ENDBRANCH  29  30
ENDBRANCH  28  29
ENDBRANCH  27  28
ENDBRANCH  26  27
ENDBRANCH   1  26
TORSDOF 23
ENDMDL
MODEL 8
REMARK VINA RESULT:      -6.1      2.995      6.615
REMARK  Name = Orlistat
REMARK  27 active torsions:
REMARK  status: ('A' for Active; 'I' for Inactive)
REMARK    1  A    between atoms: C_1  and  C_2
REMARK    2  A    between atoms: C_2  and  C_3
REMARK    3  A    between atoms: C_3  and  C_4
REMARK    4  A    between atoms: C_4  and  C_5
REMARK    5  A    between atoms: C_5  and  C_6
REMARK    6  A    between atoms: C_6  and  C_7
REMARK    7  A    between atoms: C_7  and  C_8
REMARK    8  A    between atoms: C_8  and  C_9
REMARK    9  A    between atoms: C_9  and  C_10
REMARK   10  A    between atoms: C_10  and  C_11
REMARK   11  A    between atoms: C_11  and  C_12
REMARK   12  A    between atoms: C_12  and  C_13
REMARK   13  A    between atoms: C_12  and  O_25
REMARK   14  A    between atoms: C_13  and  C_14
REMARK   15  A    between atoms: C_18  and  C_19
REMARK   16  A    between atoms: C_19  and  C_20
REMARK   17  A    between atoms: C_20  and  C_21
REMARK   18  A    between atoms: C_21  and  C_22
REMARK   19  A    between atoms: C_22  and  C_23
REMARK   20  A    between atoms: C_23  and  C_24
REMARK   21  A    between atoms: O_25  and  C_26
REMARK   22  A    between atoms: C_26  and  C_28
REMARK   23  A    between atoms: C_28  and  C_29
REMARK   24  A    between atoms: C_28  and  N_33
REMARK   25  A    between atoms: C_29  and  C_30
REMARK   26  A    between atoms: C_30  and  C_31
REMARK   27  A    between atoms: C_30  and  C_32
REMARK                            x       y       z     vdW  Elec       q    Type
REMARK                         _______ _______ _______ _____ _____    ______ ____
ROOT
ATOM      1  C   UNL     1      -8.311   1.447 125.332  0.00  0.00    +0.000 C 
ENDROOT
BRANCH   1   2
ATOM      2  O   UNL     1      -9.019   2.733 125.175  0.00  0.00    +0.000 OA
BRANCH   2   3
ATOM      3  C   UNL     1      -8.231   3.828 125.153  0.00  0.00    +0.000 C 
ATOM      4  O   UNL     1      -8.632   4.884 125.607  0.00  0.00    +0.000 OA
BRANCH   3   5
ATOM      5  C   UNL     1      -6.822   3.648 124.551  0.00  0.00    +0.000 C 
BRANCH   5   6
ATOM      6  N   UNL     1      -6.755   3.984 123.134  0.00  0.00    +0.000 N 
ATOM      7  C   UNL     1      -6.277   3.153 122.167  0.00  0.00    +0.000 C 
ATOM      8  O   UNL     1      -6.183   3.491 120.997  0.00  0.00    +0.000 OA
ATOM      9  H   UNL     1      -6.900   4.941 122.830  0.00  0.00    +0.000 HD
ENDBRANCH   5   6
BRANCH   5  10
ATOM     10  C   UNL     1      -5.782   4.490 125.351  0.00  0.00    +0.000 C 
BRANCH  10  11
ATOM     11  C   UNL     1      -4.952   3.781 126.469  0.00  0.00    +0.000 C 
ATOM     12  C   UNL     1      -5.523   3.876 127.877  0.00  0.00    +0.000 C 
ATOM     13  C   UNL     1      -4.825   2.289 126.153  0.00  0.00    +0.000 C 
ENDBRANCH  10  11
ENDBRANCH   5  10
ENDBRANCH   3   5
ENDBRANCH   2   3
ENDBRANCH   1   2
BRANCH   1  14
ATOM     14  C   UNL     1      -8.521   0.448 124.148  0.00  0.00    +0.000 C 
BRANCH  14  15
ATOM     15  C   UNL     1      -8.142  -1.055 124.241  0.00  0.00    +0.000 C 
ATOM     16  O   UNL     1      -8.260  -1.990 123.133  0.00  0.00    +0.000 OA
ATOM     17  C   UNL     1      -9.244  -2.695 123.752  0.00  0.00    +0.000 C 
ATOM     18  O   UNL     1      -9.992  -3.540 123.293  0.00  0.00    +0.000 OA
ATOM     19  C   UNL     1      -8.914  -2.080 125.113  0.00  0.00    +0.000 C 
BRANCH  19  20
ATOM     20  C   UNL     1      -8.052  -3.049 125.877  0.00  0.00    +0.000 C 
BRANCH  20  21
ATOM     21  C   UNL     1      -8.604  -3.137 127.276  0.00  0.00    +0.000 C 
BRANCH  21  22
ATOM     22  C   UNL     1      -7.600  -2.581 128.237  0.00  0.00    +0.000 C 
BRANCH  22  23
ATOM     23  C   UNL     1      -8.167  -2.686 129.634  0.00  0.00    +0.000 C 
BRANCH  23  24
ATOM     24  C   UNL     1      -7.037  -2.952 130.605  0.00  0.00    +0.000 C 
ATOM     25  C   UNL     1      -6.225  -4.136 130.137  0.00  0.00    +0.000 C 
ENDBRANCH  23  24
ENDBRANCH  22  23
ENDBRANCH  21  22
ENDBRANCH  20  21
ENDBRANCH  19  20
ENDBRANCH  14  15
ENDBRANCH   1  14
BRANCH   1  26
ATOM     26  C   UNL     1      -8.897   0.924 126.656  0.00  0.00    +0.000 C 
BRANCH  26  27
ATOM     27  C   UNL     1      -8.043   1.374 127.788  0.00  0.00    +0.000 C 
BRANCH  27  28
ATOM     28  C   UNL     1      -8.284   0.982 129.202  0.00  0.00    +0.000 C 
BRANCH  28  29
ATOM     29  C   UNL     1      -8.765   2.200 130.008  0.00  0.00    +0.000 C 
BRANCH  29  30
ATOM     30  C   UNL     1      -9.015   1.727 131.417  0.00  0.00    +0.000 C 
BRANCH  30  31
ATOM     31  C   UNL     1      -8.332   0.405 131.691  0.00  0.00    +0.000 C 
BRANCH  31  32
ATOM     32  C   UNL     1      -7.212   0.638 132.687  0.00  0.00    +0.000 C 
BRANCH  32  33
ATOM     33  C   UNL     1      -5.882   0.252 132.073  0.00  0.00    +0.000 C 
BRANCH  33  34
ATOM     34  C   UNL     1      -5.324   1.416 131.273  0.00  0.00    +0.000 C 
BRANCH  34  36
ATOM     35  C   UNL     1      -4.915  -0.110 129.347  0.00  0.00    +0.000 C 
ATOM     36  C   UNL     1      -4.294   0.920 130.269  0.00  0.00    +0.000 C 
ENDBRANCH  34  36
ENDBRANCH  33  34
ENDBRANCH  32  33
ENDBRANCH  31  32
ENDBRANCH  30  31
ENDBRANCH  29  30
ENDBRANCH  28  29
ENDBRANCH  27  28
ENDBRANCH  26  27
ENDBRANCH   1  26
TORSDOF 23
ENDMDL
MODEL 9
REMARK VINA RESULT:      -6.1      3.707      7.545
REMARK  Name = Orlistat
REMARK  27 active torsions:
REMARK  status: ('A' for Active; 'I' for Inactive)
REMARK    1  A    between atoms: C_1  and  C_2
REMARK    2  A    between atoms: C_2  and  C_3
REMARK    3  A    between atoms: C_3  and  C_4
REMARK    4  A    between atoms: C_4  and  C_5
REMARK    5  A    between atoms: C_5  and  C_6
REMARK    6  A    between atoms: C_6  and  C_7
REMARK    7  A    between atoms: C_7  and  C_8
REMARK    8  A    between atoms: C_8  and  C_9
REMARK    9  A    between atoms: C_9  and  C_10
REMARK   10  A    between atoms: C_10  and  C_11
REMARK   11  A    between atoms: C_11  and  C_12
REMARK   12  A    between atoms: C_12  and  C_13
REMARK   13  A    between atoms: C_12  and  O_25
REMARK   14  A    between atoms: C_13  and  C_14
REMARK   15  A    between atoms: C_18  and  C_19
REMARK   16  A    between atoms: C_19  and  C_20
REMARK   17  A    between atoms: C_20  and  C_21
REMARK   18  A    between atoms: C_21  and  C_22
REMARK   19  A    between atoms: C_22  and  C_23
REMARK   20  A    between atoms: C_23  and  C_24
REMARK   21  A    between atoms: O_25  and  C_26
REMARK   22  A    between atoms: C_26  and  C_28
REMARK   23  A    between atoms: C_28  and  C_29
REMARK   24  A    between atoms: C_28  and  N_33
REMARK   25  A    between atoms: C_29  and  C_30
REMARK   26  A    between atoms: C_30  and  C_31
REMARK   27  A    between atoms: C_30  and  C_32
REMARK                            x       y       z     vdW  Elec       q    Type
REMARK                         _______ _______ _______ _____ _____    ______ ____
ROOT
ATOM      1  C   UNL     1      -8.310   1.666 126.633  0.00  0.00    +0.000 C 
ENDROOT
BRANCH   1   2
ATOM      2  O   UNL     1      -8.610   3.030 126.153  0.00  0.00    +0.000 OA
BRANCH   2   3
ATOM      3  C   UNL     1      -7.534   3.779 125.836  0.00  0.00    +0.000 C 
ATOM      4  O   UNL     1      -7.449   4.930 126.226  0.00  0.00    +0.000 OA
BRANCH   3   5
ATOM      5  C   UNL     1      -6.442   3.093 124.989  0.00  0.00    +0.000 C 
BRANCH   5   6
ATOM      6  N   UNL     1      -6.406   3.558 123.609  0.00  0.00    +0.000 N 
ATOM      7  C   UNL     1      -5.398   4.298 123.071  0.00  0.00    +0.000 C 
ATOM      8  O   UNL     1      -5.430   4.719 121.924  0.00  0.00    +0.000 OA
ATOM      9  H   UNL     1      -7.237   3.498 123.030  0.00  0.00    +0.000 HD
ENDBRANCH   5   6
BRANCH   5  10
ATOM     10  C   UNL     1      -5.045   3.280 125.655  0.00  0.00    +0.000 C 
BRANCH  10  11
ATOM     11  C   UNL     1      -4.485   2.128 126.550  0.00  0.00    +0.000 C 
ATOM     12  C   UNL     1      -4.789   2.239 128.037  0.00  0.00    +0.000 C 
ATOM     13  C   UNL     1      -5.061   0.788 126.089  0.00  0.00    +0.000 C 
ENDBRANCH  10  11
ENDBRANCH   5  10
ENDBRANCH   3   5
ENDBRANCH   2   3
ENDBRANCH   1   2
BRANCH   1  14
ATOM     14  C   UNL     1      -9.070   0.533 125.869  0.00  0.00    +0.000 C 
BRANCH  14  15
ATOM     15  C   UNL     1      -8.451  -0.867 125.612  0.00  0.00    +0.000 C 
ATOM     16  O   UNL     1      -8.320  -1.465 124.292  0.00  0.00    +0.000 OA
ATOM     17  C   UNL     1      -9.216  -2.446 124.581  0.00  0.00    +0.000 C 
ATOM     18  O   UNL     1      -9.771  -3.228 123.830  0.00  0.00    +0.000 OA
ATOM     19  C   UNL     1      -9.104  -2.193 126.084  0.00  0.00    +0.000 C 
BRANCH  19  20
ATOM     20  C   UNL     1      -8.153  -3.203 126.669  0.00  0.00    +0.000 C 
BRANCH  20  21
ATOM     21  C   UNL     1      -8.801  -3.770 127.905  0.00  0.00    +0.000 C 
BRANCH  21  22
ATOM     22  C   UNL     1      -8.340  -2.996 129.101  0.00  0.00    +0.000 C 
BRANCH  22  23
ATOM     23  C   UNL     1      -7.039  -3.595 129.584  0.00  0.00    +0.000 C 
BRANCH  23  24
ATOM     24  C   UNL     1      -6.087  -2.475 129.944  0.00  0.00    +0.000 C 
ATOM     25  C   UNL     1      -5.430  -1.935 128.696  0.00  0.00    +0.000 C 
ENDBRANCH  23  24
ENDBRANCH  22  23
ENDBRANCH  21  22
ENDBRANCH  20  21
ENDBRANCH  19  20
ENDBRANCH  14  15
ENDBRANCH   1  14
BRANCH   1  26
ATOM     26  C   UNL     1      -8.721   1.756 128.114  0.00  0.00    +0.000 C 
BRANCH  26  27
ATOM     27  C   UNL     1      -7.959   0.749 128.901  0.00  0.00    +0.000 C 
BRANCH  27  28
ATOM     28  C   UNL     1      -7.533   0.962 130.310  0.00  0.00    +0.000 C 
BRANCH  28  29
ATOM     29  C   UNL     1      -8.023   2.333 130.804  0.00  0.00    +0.000 C 
BRANCH  29  30
ATOM     30  C   UNL     1      -8.894   2.083 132.008  0.00  0.00    +0.000 C 
BRANCH  30  31
ATOM     31  C   UNL     1      -8.272   2.638 133.271  0.00  0.00    +0.000 C 
BRANCH  31  32
ATOM     32  C   UNL     1      -9.173   3.734 133.810  0.00  0.00    +0.000 C 
BRANCH  32  33
ATOM     33  C   UNL     1      -8.558   5.092 133.543  0.00  0.00    +0.000 C 
BRANCH  33  34
ATOM     34  C   UNL     1      -9.532   5.958 132.764  0.00  0.00    +0.000 C 
BRANCH  34  36
ATOM     35  C   UNL     1      -7.408   6.240 131.495  0.00  0.00    +0.000 C 
ATOM     36  C   UNL     1      -8.914   6.387 131.441  0.00  0.00    +0.000 C 
ENDBRANCH  34  36
ENDBRANCH  33  34
ENDBRANCH  32  33
ENDBRANCH  31  32
ENDBRANCH  30  31
ENDBRANCH  29  30
ENDBRANCH  28  29
ENDBRANCH  27  28
ENDBRANCH  26  27
ENDBRANCH   1  26
TORSDOF 23
ENDMDL
