MODEL 1
REMARK VINA RESULT:      -4.6      0.000      0.000
REMARK  Name = Ornithine
REMARK  7 active torsions:
REMARK  status: ('A' for Active; 'I' for Inactive)
REMARK    1  A    between atoms: N_1  and  C_2
REMARK    2  A    between atoms: C_2  and  C_3
REMARK    3  A    between atoms: C_3  and  C_4
REMARK    4  A    between atoms: C_4  and  CA_5
REMARK    5  A    between atoms: CA_5  and  N_6
REMARK    6  A    between atoms: CA_5  and  C_7
REMARK    7  A    between atoms: C_7  and  O_8
REMARK                            x       y       z     vdW  Elec       q    Type
REMARK                         _______ _______ _______ _____ _____    ______ ____
ROOT
ATOM      1  CA  UNL     1     -12.568   7.355 128.345  0.00  0.00    +0.000 C 
ENDROOT
BRANCH   1   2
ATOM      2  N   UNL     1     -12.322   6.076 129.044  0.00  0.00    +0.000 NA
ATOM      3  H1  UNL     1     -11.656   6.170 129.806  0.00  0.00    +0.000 HD
ATOM      4  H2  UNL     1     -12.086   5.331 128.394  0.00  0.00    +0.000 HD
ENDBRANCH   1   2
BRANCH   1   5
ATOM      5  C   UNL     1     -11.627   7.526 127.124  0.00  0.00    +0.000 C 
ATOM      6  OXT UNL     1     -10.766   8.393 127.027  0.00  0.00    +0.000 OA
BRANCH   5   7
ATOM      7  O   UNL     1     -11.819   6.641 126.120  0.00  0.00    +0.000 OA
ATOM      8  H   UNL     1     -11.025   6.513 125.576  0.00  0.00    +0.000 HD
ENDBRANCH   5   7
ENDBRANCH   1   5
BRANCH   1   9
ATOM      9  C   UNL     1     -12.422   8.511 129.347  0.00  0.00    +0.000 C 
BRANCH   9  10
ATOM     10  C   UNL     1     -13.323   9.691 128.971  0.00  0.00    +0.000 C 
BRANCH  10  11
ATOM     11  C   UNL     1     -13.380  10.749 130.062  0.00  0.00    +0.000 C 
BRANCH  11  12
ATOM     12  N   UNL     1     -13.470  12.062 129.437  0.00  0.00    +0.000 NA
ATOM     13  H   UNL     1     -14.117  12.033 128.654  0.00  0.00    +0.000 HD
ATOM     14  H   UNL     1     -12.561  12.338 129.071  0.00  0.00    +0.000 HD
ENDBRANCH  11  12
ENDBRANCH  10  11
ENDBRANCH   9  10
ENDBRANCH   1   9
TORSDOF 7
ENDMDL
MODEL 2
REMARK VINA RESULT:      -4.5      3.735      4.355
REMARK  Name = Ornithine
REMARK  7 active torsions:
REMARK  status: ('A' for Active; 'I' for Inactive)
REMARK    1  A    between atoms: N_1  and  C_2
REMARK    2  A    between atoms: C_2  and  C_3
REMARK    3  A    between atoms: C_3  and  C_4
REMARK    4  A    between atoms: C_4  and  CA_5
REMARK    5  A    between atoms: CA_5  and  N_6
REMARK    6  A    between atoms: CA_5  and  C_7
REMARK    7  A    between atoms: C_7  and  O_8
REMARK                            x       y       z     vdW  Elec       q    Type
REMARK                         _______ _______ _______ _____ _____    ______ ____
ROOT
ATOM      1  CA  UNL     1     -11.266   6.356 130.119  0.00  0.00    +0.000 C 
ENDROOT
BRANCH   1   2
ATOM      2  N   UNL     1     -12.218   5.732 129.175  0.00  0.00    +0.000 NA
ATOM      3  H1  UNL     1     -12.525   6.373 128.449  0.00  0.00    +0.000 HD
ATOM      4  H2  UNL     1     -12.987   5.277 129.661  0.00  0.00    +0.000 HD
ENDBRANCH   1   2
BRANCH   1   5
ATOM      5  C   UNL     1     -11.904   6.560 131.518  0.00  0.00    +0.000 C 
ATOM      6  OXT UNL     1     -12.976   7.120 131.718  0.00  0.00    +0.000 OA
BRANCH   5   7
ATOM      7  O   UNL     1     -11.182   6.079 132.555  0.00  0.00    +0.000 OA
ATOM      8  H   UNL     1     -10.273   5.849 132.303  0.00  0.00    +0.000 HD
ENDBRANCH   5   7
ENDBRANCH   1   5
BRANCH   1   9
ATOM      9  C   UNL     1     -10.762   7.678 129.521  0.00  0.00    +0.000 C 
BRANCH   9  10
ATOM     10  C   UNL     1     -11.629   8.124 128.340  0.00  0.00    +0.000 C 
BRANCH  10  11
ATOM     11  C   UNL     1     -10.916   7.971 127.005  0.00  0.00    +0.000 C 
BRANCH  11  12
ATOM     12  N   UNL     1     -11.459   6.809 126.315  0.00  0.00    +0.000 NA
ATOM     13  H   UNL     1     -10.705   6.259 125.910  0.00  0.00    +0.000 HD
ATOM     14  H   UNL     1     -12.063   7.106 125.551  0.00  0.00    +0.000 HD
ENDBRANCH  11  12
ENDBRANCH  10  11
ENDBRANCH   9  10
ENDBRANCH   1   9
TORSDOF 7
ENDMDL
MODEL 3
REMARK VINA RESULT:      -4.5      2.323      3.016
REMARK  Name = Ornithine
REMARK  7 active torsions:
REMARK  status: ('A' for Active; 'I' for Inactive)
REMARK    1  A    between atoms: N_1  and  C_2
REMARK    2  A    between atoms: C_2  and  C_3
REMARK    3  A    between atoms: C_3  and  C_4
REMARK    4  A    between atoms: C_4  and  CA_5
REMARK    5  A    between atoms: CA_5  and  N_6
REMARK    6  A    between atoms: CA_5  and  C_7
REMARK    7  A    between atoms: C_7  and  O_8
REMARK                            x       y       z     vdW  Elec       q    Type
REMARK                         _______ _______ _______ _____ _____    ______ ____
ROOT
ATOM      1  CA  UNL     1     -11.253   7.696 128.100  0.00  0.00    +0.000 C 
ENDROOT
BRANCH   1   2
ATOM      2  N   UNL     1     -10.030   8.486 128.354  0.00  0.00    +0.000 NA
ATOM      3  H1  UNL     1      -9.319   8.346 127.642  0.00  0.00    +0.000 HD
ATOM      4  H2  UNL     1      -9.683   8.348 129.301  0.00  0.00    +0.000 HD
ENDBRANCH   1   2
BRANCH   1   5
ATOM      5  C   UNL     1     -11.464   7.446 126.584  0.00  0.00    +0.000 C 
ATOM      6  OXT UNL     1     -10.828   7.999 125.693  0.00  0.00    +0.000 OA
BRANCH   5   7
ATOM      7  O   UNL     1     -12.437   6.559 126.276  0.00  0.00    +0.000 OA
ATOM      8  H   UNL     1     -13.111   6.487 126.971  0.00  0.00    +0.000 HD
ENDBRANCH   5   7
ENDBRANCH   1   5
BRANCH   1   9
ATOM      9  C   UNL     1     -12.455   8.413 128.734  0.00  0.00    +0.000 C 
BRANCH   9  10
ATOM     10  C   UNL     1     -12.700   7.930 130.167  0.00  0.00    +0.000 C 
BRANCH  10  11
ATOM     11  C   UNL     1     -12.173   6.523 130.403  0.00  0.00    +0.000 C 
BRANCH  11  12
ATOM     12  N   UNL     1     -12.109   6.282 131.838  0.00  0.00    +0.000 NA
ATOM     13  H   UNL     1     -13.035   6.370 132.250  0.00  0.00    +0.000 HD
ATOM     14  H   UNL     1     -11.511   6.975 132.284  0.00  0.00    +0.000 HD
ENDBRANCH  11  12
ENDBRANCH  10  11
ENDBRANCH   9  10
ENDBRANCH   1   9
TORSDOF 7
ENDMDL
MODEL 4
REMARK VINA RESULT:      -4.4      2.936      3.924
REMARK  Name = Ornithine
REMARK  7 active torsions:
REMARK  status: ('A' for Active; 'I' for Inactive)
REMARK    1  A    between atoms: N_1  and  C_2
REMARK    2  A    between atoms: C_2  and  C_3
REMARK    3  A    between atoms: C_3  and  C_4
REMARK    4  A    between atoms: C_4  and  CA_5
REMARK    5  A    between atoms: CA_5  and  N_6
REMARK    6  A    between atoms: CA_5  and  C_7
REMARK    7  A    between atoms: C_7  and  O_8
REMARK                            x       y       z     vdW  Elec       q    Type
REMARK                         _______ _______ _______ _____ _____    ______ ____
ROOT
ATOM      1  CA  UNL     1     -12.553   6.949 130.147  0.00  0.00    +0.000 C 
ENDROOT
BRANCH   1   2
ATOM      2  N   UNL     1     -13.124   7.314 131.461  0.00  0.00    +0.000 NA
ATOM      3  H1  UNL     1     -14.079   7.653 131.390  0.00  0.00    +0.000 HD
ATOM      4  H2  UNL     1     -12.512   7.941 131.977  0.00  0.00    +0.000 HD
ENDBRANCH   1   2
BRANCH   1   5
ATOM      5  C   UNL     1     -11.551   5.771 130.270  0.00  0.00    +0.000 C 
ATOM      6  OXT UNL     1     -10.951   5.269 129.327  0.00  0.00    +0.000 OA
BRANCH   5   7
ATOM      7  O   UNL     1     -11.374   5.295 131.523  0.00  0.00    +0.000 OA
ATOM      8  H   UNL     1     -12.019   5.652 132.154  0.00  0.00    +0.000 HD
ENDBRANCH   5   7
ENDBRANCH   1   5
BRANCH   1   9
ATOM      9  C   UNL     1     -11.901   8.192 129.522  0.00  0.00    +0.000 C 
BRANCH   9  10
ATOM     10  C   UNL     1     -12.254   8.319 128.036  0.00  0.00    +0.000 C 
BRANCH  10  11
ATOM     11  C   UNL     1     -11.083   7.971 127.130  0.00  0.00    +0.000 C 
BRANCH  11  12
ATOM     12  N   UNL     1     -11.359   6.699 126.476  0.00  0.00    +0.000 NA
ATOM     13  H   UNL     1     -10.589   6.448 125.860  0.00  0.00    +0.000 HD
ATOM     14  H   UNL     1     -12.196   6.774 125.902  0.00  0.00    +0.000 HD
ENDBRANCH  11  12
ENDBRANCH  10  11
ENDBRANCH   9  10
ENDBRANCH   1   9
TORSDOF 7
ENDMDL
MODEL 5
REMARK VINA RESULT:      -4.4      2.352      3.213
REMARK  Name = Ornithine
REMARK  7 active torsions:
REMARK  status: ('A' for Active; 'I' for Inactive)
REMARK    1  A    between atoms: N_1  and  C_2
REMARK    2  A    between atoms: C_2  and  C_3
REMARK    3  A    between atoms: C_3  and  C_4
REMARK    4  A    between atoms: C_4  and  CA_5
REMARK    5  A    between atoms: CA_5  and  N_6
REMARK    6  A    between atoms: CA_5  and  C_7
REMARK    7  A    between atoms: C_7  and  O_8
REMARK                            x       y       z     vdW  Elec       q    Type
REMARK                         _______ _______ _______ _____ _____    ______ ____
ROOT
ATOM      1  CA  UNL     1     -12.049   8.193 127.744  0.00  0.00    +0.000 C 
ENDROOT
BRANCH   1   2
ATOM      2  N   UNL     1     -13.265   7.355 127.688  0.00  0.00    +0.000 NA
ATOM      3  H1  UNL     1     -13.676   7.201 128.604  0.00  0.00    +0.000 HD
ATOM      4  H2  UNL     1     -13.105   6.494 127.170  0.00  0.00    +0.000 HD
ENDBRANCH   1   2
BRANCH   1   5
ATOM      5  C   UNL     1     -10.937   7.647 126.811  0.00  0.00    +0.000 C 
ATOM      6  OXT UNL     1     -10.793   7.972 125.638  0.00  0.00    +0.000 OA
BRANCH   5   7
ATOM      7  O   UNL     1     -10.104   6.743 127.376  0.00  0.00    +0.000 OA
ATOM      8  H   UNL     1     -10.441   5.835 127.314  0.00  0.00    +0.000 HD
ENDBRANCH   5   7
ENDBRANCH   1   5
BRANCH   1   9
ATOM      9  C   UNL     1     -11.575   8.292 129.203  0.00  0.00    +0.000 C 
BRANCH   9  10
ATOM     10  C   UNL     1     -12.489   7.496 130.141  0.00  0.00    +0.000 C 
BRANCH  10  11
ATOM     11  C   UNL     1     -11.793   6.283 130.737  0.00  0.00    +0.000 C 
BRANCH  11  12
ATOM     12  N   UNL     1     -11.604   5.290 129.689  0.00  0.00    +0.000 NA
ATOM     13  H   UNL     1     -11.291   4.410 130.093  0.00  0.00    +0.000 HD
ATOM     14  H   UNL     1     -10.883   5.599 129.039  0.00  0.00    +0.000 HD
ENDBRANCH  11  12
ENDBRANCH  10  11
ENDBRANCH   9  10
ENDBRANCH   1   9
TORSDOF 7
ENDMDL
MODEL 6
REMARK VINA RESULT:      -4.2      3.069      3.585
REMARK  Name = Ornithine
REMARK  7 active torsions:
REMARK  status: ('A' for Active; 'I' for Inactive)
REMARK    1  A    between atoms: N_1  and  C_2
REMARK    2  A    between atoms: C_2  and  C_3
REMARK    3  A    between atoms: C_3  and  C_4
REMARK    4  A    between atoms: C_4  and  CA_5
REMARK    5  A    between atoms: CA_5  and  N_6
REMARK    6  A    between atoms: CA_5  and  C_7
REMARK    7  A    between atoms: C_7  and  O_8
REMARK                            x       y       z     vdW  Elec       q    Type
REMARK                         _______ _______ _______ _____ _____    ______ ____
ROOT
ATOM      1  CA  UNL     1     -11.825   6.270 129.856  0.00  0.00    +0.000 C 
ENDROOT
BRANCH   1   2
ATOM      2  N   UNL     1     -11.452   4.843 129.765  0.00  0.00    +0.000 NA
ATOM      3  H1  UNL     1     -11.668   4.439 128.858  0.00  0.00    +0.000 HD
ATOM      4  H2  UNL     1     -11.827   4.305 130.544  0.00  0.00    +0.000 HD
ENDBRANCH   1   2
BRANCH   1   5
ATOM      5  C   UNL     1     -12.079   6.699 131.324  0.00  0.00    +0.000 C 
ATOM      6  OXT UNL     1     -11.338   6.435 132.264  0.00  0.00    +0.000 OA
BRANCH   5   7
ATOM      7  O   UNL     1     -13.218   7.401 131.530  0.00  0.00    +0.000 OA
ATOM      8  H   UNL     1     -13.556   7.810 130.717  0.00  0.00    +0.000 HD
ENDBRANCH   5   7
ENDBRANCH   1   5
BRANCH   1   9
ATOM      9  C   UNL     1     -13.050   6.525 128.964  0.00  0.00    +0.000 C 
BRANCH   9  10
ATOM     10  C   UNL     1     -12.724   7.513 127.839  0.00  0.00    +0.000 C 
BRANCH  10  11
ATOM     11  C   UNL     1     -11.897   8.694 128.324  0.00  0.00    +0.000 C 
BRANCH  11  12
ATOM     12  N   UNL     1     -12.772   9.619 129.031  0.00  0.00    +0.000 NA
ATOM     13  H   UNL     1     -13.688   9.198 129.170  0.00  0.00    +0.000 HD
ATOM     14  H   UNL     1     -12.907  10.464 128.479  0.00  0.00    +0.000 HD
ENDBRANCH  11  12
ENDBRANCH  10  11
ENDBRANCH   9  10
ENDBRANCH   1   9
TORSDOF 7
ENDMDL
MODEL 7
REMARK VINA RESULT:      -4.1      2.943      3.406
REMARK  Name = Ornithine
REMARK  7 active torsions:
REMARK  status: ('A' for Active; 'I' for Inactive)
REMARK    1  A    between atoms: N_1  and  C_2
REMARK    2  A    between atoms: C_2  and  C_3
REMARK    3  A    between atoms: C_3  and  C_4
REMARK    4  A    between atoms: C_4  and  CA_5
REMARK    5  A    between atoms: CA_5  and  N_6
REMARK    6  A    between atoms: CA_5  and  C_7
REMARK    7  A    between atoms: C_7  and  O_8
REMARK                            x       y       z     vdW  Elec       q    Type
REMARK                         _______ _______ _______ _____ _____    ______ ____
ROOT
ATOM      1  CA  UNL     1     -11.350   5.929 130.690  0.00  0.00    +0.000 C 
ENDROOT
BRANCH   1   2
ATOM      2  N   UNL     1     -11.890   6.051 132.060  0.00  0.00    +0.000 NA
ATOM      3  H1  UNL     1     -12.620   6.755 132.131  0.00  0.00    +0.000 HD
ATOM      4  H2  UNL     1     -11.150   6.170 132.748  0.00  0.00    +0.000 HD
ENDBRANCH   1   2
BRANCH   1   5
ATOM      5  C   UNL     1      -9.927   6.538 130.584  0.00  0.00    +0.000 C 
ATOM      6  OXT UNL     1      -9.240   6.871 131.543  0.00  0.00    +0.000 OA
BRANCH   5   7
ATOM      7  O   UNL     1      -9.464   6.703 129.324  0.00  0.00    +0.000 OA
ATOM      8  H   UNL     1     -10.023   7.294 128.794  0.00  0.00    +0.000 HD
ENDBRANCH   5   7
ENDBRANCH   1   5
BRANCH   1   9
ATOM      9  C   UNL     1     -12.328   6.586 129.704  0.00  0.00    +0.000 C 
BRANCH   9  10
ATOM     10  C   UNL     1     -12.625   8.037 130.096  0.00  0.00    +0.000 C 
BRANCH  10  11
ATOM     11  C   UNL     1     -12.690   8.963 128.891  0.00  0.00    +0.000 C 
BRANCH  11  12
ATOM     12  N   UNL     1     -11.439   8.858 128.153  0.00  0.00    +0.000 NA
ATOM     13  H   UNL     1     -11.587   9.108 127.178  0.00  0.00    +0.000 HD
ATOM     14  H   UNL     1     -11.100   7.899 128.173  0.00  0.00    +0.000 HD
ENDBRANCH  11  12
ENDBRANCH  10  11
ENDBRANCH   9  10
ENDBRANCH   1   9
TORSDOF 7
ENDMDL
MODEL 8
REMARK VINA RESULT:      -4.1      2.576      3.868
REMARK  Name = Ornithine
REMARK  7 active torsions:
REMARK  status: ('A' for Active; 'I' for Inactive)
REMARK    1  A    between atoms: N_1  and  C_2
REMARK    2  A    between atoms: C_2  and  C_3
REMARK    3  A    between atoms: C_3  and  C_4
REMARK    4  A    between atoms: C_4  and  CA_5
REMARK    5  A    between atoms: CA_5  and  N_6
REMARK    6  A    between atoms: CA_5  and  C_7
REMARK    7  A    between atoms: C_7  and  O_8
REMARK                            x       y       z     vdW  Elec       q    Type
REMARK                         _______ _______ _______ _____ _____    ______ ____
ROOT
ATOM      1  CA  UNL     1     -11.857   7.970 129.765  0.00  0.00    +0.000 C 
ENDROOT
BRANCH   1   2
ATOM      2  N   UNL     1     -12.538   6.704 129.420  0.00  0.00    +0.000 NA
ATOM      3  H1  UNL     1     -12.851   6.193 130.240  0.00  0.00    +0.000 HD
ATOM      4  H2  UNL     1     -11.981   6.140 128.782  0.00  0.00    +0.000 HD
ENDBRANCH   1   2
BRANCH   1   5
ATOM      5  C   UNL     1     -12.757   9.199 129.470  0.00  0.00    +0.000 C 
ATOM      6  OXT UNL     1     -13.112  10.018 130.309  0.00  0.00    +0.000 OA
BRANCH   5   7
ATOM      7  O   UNL     1     -13.160   9.321 128.184  0.00  0.00    +0.000 OA
ATOM      8  H   UNL     1     -13.025  10.216 127.833  0.00  0.00    +0.000 HD
ENDBRANCH   5   7
ENDBRANCH   1   5
BRANCH   1   9
ATOM      9  C   UNL     1     -10.521   8.044 129.010  0.00  0.00    +0.000 C 
BRANCH   9  10
ATOM     10  C   UNL     1     -10.434   6.967 127.924  0.00  0.00    +0.000 C 
BRANCH  10  11
ATOM     11  C   UNL     1     -10.848   7.486 126.556  0.00  0.00    +0.000 C 
BRANCH  11  12
ATOM     12  N   UNL     1     -12.118   6.875 126.188  0.00  0.00    +0.000 NA
ATOM     13  H   UNL     1     -12.446   7.256 125.304  0.00  0.00    +0.000 HD
ATOM     14  H   UNL     1     -12.824   7.085 126.891  0.00  0.00    +0.000 HD
ENDBRANCH  11  12
ENDBRANCH  10  11
ENDBRANCH   9  10
ENDBRANCH   1   9
TORSDOF 7
ENDMDL
MODEL 9
REMARK VINA RESULT:      -4.0      1.828      2.341
REMARK  Name = Ornithine
REMARK  7 active torsions:
REMARK  status: ('A' for Active; 'I' for Inactive)
REMARK    1  A    between atoms: N_1  and  C_2
REMARK    2  A    between atoms: C_2  and  C_3
REMARK    3  A    between atoms: C_3  and  C_4
REMARK    4  A    between atoms: C_4  and  CA_5
REMARK    5  A    between atoms: CA_5  and  N_6
REMARK    6  A    between atoms: CA_5  and  C_7
REMARK    7  A    between atoms: C_7  and  O_8
REMARK                            x       y       z     vdW  Elec       q    Type
REMARK                         _______ _______ _______ _____ _____    ______ ____
ROOT
ATOM      1  CA  UNL     1     -10.351   6.799 128.673  0.00  0.00    +0.000 C 
ENDROOT
BRANCH   1   2
ATOM      2  N   UNL     1      -9.562   7.765 129.465  0.00  0.00    +0.000 NA
ATOM      3  H1  UNL     1      -9.543   8.691 129.047  0.00  0.00    +0.000 HD
ATOM      4  H2  UNL     1      -8.636   7.405 129.685  0.00  0.00    +0.000 HD
ENDBRANCH   1   2
BRANCH   1   5
ATOM      5  C   UNL     1     -10.525   7.274 127.207  0.00  0.00    +0.000 C 
ATOM      6  OXT UNL     1     -10.373   6.560 126.222  0.00  0.00    +0.000 OA
BRANCH   5   7
ATOM      7  O   UNL     1     -10.857   8.577 127.059  0.00  0.00    +0.000 OA
ATOM      8  H   UNL     1     -11.329   8.932 127.830  0.00  0.00    +0.000 HD
ENDBRANCH   5   7
ENDBRANCH   1   5
BRANCH   1   9
ATOM      9  C   UNL     1     -11.703   6.569 129.365  0.00  0.00    +0.000 C 
BRANCH   9  10
ATOM     10  C   UNL     1     -12.086   7.758 130.251  0.00  0.00    +0.000 C 
BRANCH  10  11
ATOM     11  C   UNL     1     -13.214   8.587 129.656  0.00  0.00    +0.000 C 
BRANCH  11  12
ATOM     12  N   UNL     1     -12.639   9.739 128.975  0.00  0.00    +0.000 NA
ATOM     13  H   UNL     1     -12.778   9.657 127.971  0.00  0.00    +0.000 HD
ATOM     14  H   UNL     1     -11.635   9.780 129.141  0.00  0.00    +0.000 HD
ENDBRANCH  11  12
ENDBRANCH  10  11
ENDBRANCH   9  10
ENDBRANCH   1   9
TORSDOF 7
ENDMDL
