MODEL 1
REMARK VINA RESULT:      -6.4      0.000      0.000
REMARK  Name = Orphenadrine
REMARK  9 active torsions:
REMARK  status: ('A' for Active; 'I' for Inactive)
REMARK    1  A    between atoms: C_1  and  N_2
REMARK    2  A    between atoms: N_2  and  C_3
REMARK    3  A    between atoms: N_2  and  C_4
REMARK    4  A    between atoms: C_4  and  C_5
REMARK    5  A    between atoms: C_5  and  O_6
REMARK    6  A    between atoms: O_6  and  C_7
REMARK    7  A    between atoms: C_7  and  C_8
REMARK    8  A    between atoms: C_7  and  C_14
REMARK    9  A    between atoms: C_19  and  C_20
REMARK                            x       y       z     vdW  Elec       q    Type
REMARK                         _______ _______ _______ _____ _____    ______ ____
ROOT
ATOM      1  C   UNL     1      -7.426  -0.720 125.966  0.00  0.00    +0.000 C 
ENDROOT
BRANCH   1   2
ATOM      2  C   UNL     1      -7.890  -1.600 127.174  0.00  0.00    +0.000 A 
ATOM      3  C   UNL     1      -7.391  -1.197 128.440  0.00  0.00    +0.000 A 
ATOM      4  C   UNL     1      -7.490  -2.015 129.571  0.00  0.00    +0.000 A 
ATOM      5  C   UNL     1      -8.116  -3.248 129.483  0.00  0.00    +0.000 A 
ATOM      6  C   UNL     1      -8.696  -3.630 128.287  0.00  0.00    +0.000 A 
ATOM      7  C   UNL     1      -8.672  -2.800 127.150  0.00  0.00    +0.000 A 
ATOM      8  C   UNL     1      -9.446  -3.404 126.000  0.00  0.00    +0.000 C 
ENDBRANCH   1   2
BRANCH   1   9
ATOM      9  C   UNL     1      -6.648  -1.428 124.859  0.00  0.00    +0.000 A 
ATOM     10  C   UNL     1      -7.154  -1.349 123.559  0.00  0.00    +0.000 A 
ATOM     11  C   UNL     1      -6.387  -1.778 122.482  0.00  0.00    +0.000 A 
ATOM     12  C   UNL     1      -5.353  -2.647 122.702  0.00  0.00    +0.000 A 
ATOM     13  C   UNL     1      -5.056  -3.048 124.007  0.00  0.00    +0.000 A 
ATOM     14  C   UNL     1      -5.624  -2.353 125.084  0.00  0.00    +0.000 A 
ENDBRANCH   1   9
BRANCH   1  15
ATOM     15  O   UNL     1      -6.549   0.340 126.489  0.00  0.00    +0.000 OA
BRANCH  15  16
ATOM     16  C   UNL     1      -6.902   1.621 125.958  0.00  0.00    +0.000 C 
BRANCH  16  17
ATOM     17  C   UNL     1      -8.274   2.152 126.341  0.00  0.00    +0.000 C 
BRANCH  17  19
ATOM     18  C   UNL     1      -7.987   3.303 124.255  0.00  0.00    +0.000 C 
ATOM     19  N   UNL     1      -8.970   2.693 125.145  0.00  0.00    +0.000 NA
ATOM     20  C   UNL     1      -9.725   1.671 124.401  0.00  0.00    +0.000 C 
ENDBRANCH  17  19
ENDBRANCH  16  17
ENDBRANCH  15  16
ENDBRANCH   1  15
TORSDOF 6
ENDMDL
MODEL 2
REMARK VINA RESULT:      -6.3      7.227      9.691
REMARK  Name = Orphenadrine
REMARK  9 active torsions:
REMARK  status: ('A' for Active; 'I' for Inactive)
REMARK    1  A    between atoms: C_1  and  N_2
REMARK    2  A    between atoms: N_2  and  C_3
REMARK    3  A    between atoms: N_2  and  C_4
REMARK    4  A    between atoms: C_4  and  C_5
REMARK    5  A    between atoms: C_5  and  O_6
REMARK    6  A    between atoms: O_6  and  C_7
REMARK    7  A    between atoms: C_7  and  C_8
REMARK    8  A    between atoms: C_7  and  C_14
REMARK    9  A    between atoms: C_19  and  C_20
REMARK                            x       y       z     vdW  Elec       q    Type
REMARK                         _______ _______ _______ _____ _____    ______ ____
ROOT
ATOM      1  C   UNL     1      -8.940   6.226 131.509  0.00  0.00    +0.000 C 
ENDROOT
BRANCH   1   2
ATOM      2  C   UNL     1      -8.979   4.680 131.757  0.00  0.00    +0.000 A 
ATOM      3  C   UNL     1      -9.249   3.893 130.607  0.00  0.00    +0.000 A 
ATOM      4  C   UNL     1      -9.576   2.536 130.698  0.00  0.00    +0.000 A 
ATOM      5  C   UNL     1      -9.616   1.913 131.935  0.00  0.00    +0.000 A 
ATOM      6  C   UNL     1      -9.267   2.629 133.066  0.00  0.00    +0.000 A 
ATOM      7  C   UNL     1      -8.867   3.976 132.999  0.00  0.00    +0.000 A 
ATOM      8  C   UNL     1      -8.455   4.506 134.354  0.00  0.00    +0.000 C 
ENDBRANCH   1   2
BRANCH   1   9
ATOM      9  C   UNL     1     -10.211   6.864 130.954  0.00  0.00    +0.000 A 
ATOM     10  C   UNL     1     -11.419   6.552 131.582  0.00  0.00    +0.000 A 
ATOM     11  C   UNL     1     -12.573   7.263 131.271  0.00  0.00    +0.000 A 
ATOM     12  C   UNL     1     -12.639   7.948 130.089  0.00  0.00    +0.000 A 
ATOM     13  C   UNL     1     -11.530   7.962 129.239  0.00  0.00    +0.000 A 
ATOM     14  C   UNL     1     -10.289   7.521 129.723  0.00  0.00    +0.000 A 
ENDBRANCH   1   9
BRANCH   1  15
ATOM     15  O   UNL     1      -7.868   6.501 130.538  0.00  0.00    +0.000 OA
BRANCH  15  16
ATOM     16  C   UNL     1      -6.637   6.818 131.194  0.00  0.00    +0.000 C 
BRANCH  16  17
ATOM     17  C   UNL     1      -5.396   6.113 130.673  0.00  0.00    +0.000 C 
BRANCH  17  19
ATOM     18  C   UNL     1      -4.252   8.121 130.024  0.00  0.00    +0.000 C 
ATOM     19  N   UNL     1      -4.815   6.867 129.532  0.00  0.00    +0.000 NA
ATOM     20  C   UNL     1      -3.770   6.119 128.813  0.00  0.00    +0.000 C 
ENDBRANCH  17  19
ENDBRANCH  16  17
ENDBRANCH  15  16
ENDBRANCH   1  15
TORSDOF 6
ENDMDL
MODEL 3
REMARK VINA RESULT:      -6.2      1.104      4.455
REMARK  Name = Orphenadrine
REMARK  9 active torsions:
REMARK  status: ('A' for Active; 'I' for Inactive)
REMARK    1  A    between atoms: C_1  and  N_2
REMARK    2  A    between atoms: N_2  and  C_3
REMARK    3  A    between atoms: N_2  and  C_4
REMARK    4  A    between atoms: C_4  and  C_5
REMARK    5  A    between atoms: C_5  and  O_6
REMARK    6  A    between atoms: O_6  and  C_7
REMARK    7  A    between atoms: C_7  and  C_8
REMARK    8  A    between atoms: C_7  and  C_14
REMARK    9  A    between atoms: C_19  and  C_20
REMARK                            x       y       z     vdW  Elec       q    Type
REMARK                         _______ _______ _______ _____ _____    ______ ____
ROOT
ATOM      1  C   UNL     1      -8.038  -1.058 125.898  0.00  0.00    +0.000 C 
ENDROOT
BRANCH   1   2
ATOM      2  C   UNL     1      -7.275  -1.718 124.701  0.00  0.00    +0.000 A 
ATOM      3  C   UNL     1      -6.013  -2.280 125.028  0.00  0.00    +0.000 A 
ATOM      4  C   UNL     1      -5.096  -2.667 124.044  0.00  0.00    +0.000 A 
ATOM      5  C   UNL     1      -5.420  -2.534 122.703  0.00  0.00    +0.000 A 
ATOM      6  C   UNL     1      -6.677  -2.077 122.351  0.00  0.00    +0.000 A 
ATOM      7  C   UNL     1      -7.645  -1.745 123.318  0.00  0.00    +0.000 A 
ATOM      8  C   UNL     1      -8.961  -1.357 122.682  0.00  0.00    +0.000 C 
ENDBRANCH   1   2
BRANCH   1   9
ATOM      9  C   UNL     1      -8.162  -1.888 127.174  0.00  0.00    +0.000 A 
ATOM     10  C   UNL     1      -7.461  -1.450 128.301  0.00  0.00    +0.000 A 
ATOM     11  C   UNL     1      -7.703  -2.028 129.542  0.00  0.00    +0.000 A 
ATOM     12  C   UNL     1      -8.277  -3.268 129.603  0.00  0.00    +0.000 A 
ATOM     13  C   UNL     1      -8.657  -3.910 128.421  0.00  0.00    +0.000 A 
ATOM     14  C   UNL     1      -8.704  -3.175 127.227  0.00  0.00    +0.000 A 
ENDBRANCH   1   9
BRANCH   1  15
ATOM     15  O   UNL     1      -9.409  -0.761 125.452  0.00  0.00    +0.000 OA
BRANCH  15  16
ATOM     16  C   UNL     1      -9.778   0.587 125.758  0.00  0.00    +0.000 C 
BRANCH  16  17
ATOM     17  C   UNL     1      -8.654   1.610 125.749  0.00  0.00    +0.000 C 
BRANCH  17  19
ATOM     18  C   UNL     1      -8.132   3.882 125.178  0.00  0.00    +0.000 C 
ATOM     19  N   UNL     1      -9.005   2.754 124.867  0.00  0.00    +0.000 NA
ATOM     20  C   UNL     1      -8.892   2.439 123.433  0.00  0.00    +0.000 C 
ENDBRANCH  17  19
ENDBRANCH  16  17
ENDBRANCH  15  16
ENDBRANCH   1  15
TORSDOF 6
ENDMDL
MODEL 4
REMARK VINA RESULT:      -6.2      0.901      1.725
REMARK  Name = Orphenadrine
REMARK  9 active torsions:
REMARK  status: ('A' for Active; 'I' for Inactive)
REMARK    1  A    between atoms: C_1  and  N_2
REMARK    2  A    between atoms: N_2  and  C_3
REMARK    3  A    between atoms: N_2  and  C_4
REMARK    4  A    between atoms: C_4  and  C_5
REMARK    5  A    between atoms: C_5  and  O_6
REMARK    6  A    between atoms: O_6  and  C_7
REMARK    7  A    between atoms: C_7  and  C_8
REMARK    8  A    between atoms: C_7  and  C_14
REMARK    9  A    between atoms: C_19  and  C_20
REMARK                            x       y       z     vdW  Elec       q    Type
REMARK                         _______ _______ _______ _____ _____    ______ ____
ROOT
ATOM      1  C   UNL     1      -7.420  -0.655 126.055  0.00  0.00    +0.000 C 
ENDROOT
BRANCH   1   2
ATOM      2  C   UNL     1      -7.875  -1.570 127.241  0.00  0.00    +0.000 A 
ATOM      3  C   UNL     1      -7.370  -1.199 128.515  0.00  0.00    +0.000 A 
ATOM      4  C   UNL     1      -7.462  -2.048 129.624  0.00  0.00    +0.000 A 
ATOM      5  C   UNL     1      -8.085  -3.280 129.506  0.00  0.00    +0.000 A 
ATOM      6  C   UNL     1      -8.670  -3.631 128.303  0.00  0.00    +0.000 A 
ATOM      7  C   UNL     1      -8.655  -2.770 127.189  0.00  0.00    +0.000 A 
ATOM      8  C   UNL     1      -9.433  -3.344 126.027  0.00  0.00    +0.000 C 
ENDBRANCH   1   2
BRANCH   1   9
ATOM      9  C   UNL     1      -6.759  -1.350 124.867  0.00  0.00    +0.000 A 
ATOM     10  C   UNL     1      -5.614  -2.111 125.118  0.00  0.00    +0.000 A 
ATOM     11  C   UNL     1      -5.096  -2.941 124.130  0.00  0.00    +0.000 A 
ATOM     12  C   UNL     1      -5.421  -2.708 122.822  0.00  0.00    +0.000 A 
ATOM     13  C   UNL     1      -6.305  -1.673 122.506  0.00  0.00    +0.000 A 
ATOM     14  C   UNL     1      -7.056  -1.076 123.530  0.00  0.00    +0.000 A 
ENDBRANCH   1   9
BRANCH   1  15
ATOM     15  O   UNL     1      -6.440   0.311 126.580  0.00  0.00    +0.000 OA
BRANCH  15  16
ATOM     16  C   UNL     1      -6.791   1.653 126.230  0.00  0.00    +0.000 C 
BRANCH  16  17
ATOM     17  C   UNL     1      -5.779   2.416 125.390  0.00  0.00    +0.000 C 
BRANCH  17  19
ATOM     18  C   UNL     1      -7.818   2.747 124.167  0.00  0.00    +0.000 C 
ATOM     19  N   UNL     1      -6.361   2.759 124.067  0.00  0.00    +0.000 NA
ATOM     20  C   UNL     1      -5.923   4.071 123.562  0.00  0.00    +0.000 C 
ENDBRANCH  17  19
ENDBRANCH  16  17
ENDBRANCH  15  16
ENDBRANCH   1  15
TORSDOF 6
ENDMDL
MODEL 5
REMARK VINA RESULT:      -6.1      1.981      2.540
REMARK  Name = Orphenadrine
REMARK  9 active torsions:
REMARK  status: ('A' for Active; 'I' for Inactive)
REMARK    1  A    between atoms: C_1  and  N_2
REMARK    2  A    between atoms: N_2  and  C_3
REMARK    3  A    between atoms: N_2  and  C_4
REMARK    4  A    between atoms: C_4  and  C_5
REMARK    5  A    between atoms: C_5  and  O_6
REMARK    6  A    between atoms: O_6  and  C_7
REMARK    7  A    between atoms: C_7  and  C_8
REMARK    8  A    between atoms: C_7  and  C_14
REMARK    9  A    between atoms: C_19  and  C_20
REMARK                            x       y       z     vdW  Elec       q    Type
REMARK                         _______ _______ _______ _____ _____    ______ ____
ROOT
ATOM      1  C   UNL     1      -6.817  -0.866 126.219  0.00  0.00    +0.000 C 
ENDROOT
BRANCH   1   2
ATOM      2  C   UNL     1      -7.555  -1.748 127.282  0.00  0.00    +0.000 A 
ATOM      3  C   UNL     1      -7.121  -1.566 128.621  0.00  0.00    +0.000 A 
ATOM      4  C   UNL     1      -7.483  -2.450 129.644  0.00  0.00    +0.000 A 
ATOM      5  C   UNL     1      -8.312  -3.527 129.370  0.00  0.00    +0.000 A 
ATOM      6  C   UNL     1      -8.827  -3.679 128.096  0.00  0.00    +0.000 A 
ATOM      7  C   UNL     1      -8.537  -2.767 127.063  0.00  0.00    +0.000 A 
ATOM      8  C   UNL     1      -9.288  -3.103 125.793  0.00  0.00    +0.000 C 
ENDBRANCH   1   2
BRANCH   1   9
ATOM      9  C   UNL     1      -6.260  -1.588 124.995  0.00  0.00    +0.000 A 
ATOM     10  C   UNL     1      -6.829  -1.291 123.754  0.00  0.00    +0.000 A 
ATOM     11  C   UNL     1      -6.229  -1.741 122.583  0.00  0.00    +0.000 A 
ATOM     12  C   UNL     1      -5.363  -2.799 122.640  0.00  0.00    +0.000 A 
ATOM     13  C   UNL     1      -5.058  -3.374 123.876  0.00  0.00    +0.000 A 
ATOM     14  C   UNL     1      -5.414  -2.699 125.054  0.00  0.00    +0.000 A 
ENDBRANCH   1   9
BRANCH   1  15
ATOM     15  O   UNL     1      -5.675  -0.217 126.885  0.00  0.00    +0.000 OA
BRANCH  15  16
ATOM     16  C   UNL     1      -5.411   1.074 126.328  0.00  0.00    +0.000 C 
BRANCH  16  17
ATOM     17  C   UNL     1      -4.642   2.043 127.212  0.00  0.00    +0.000 C 
BRANCH  17  19
ATOM     18  C   UNL     1      -4.347   4.166 126.134  0.00  0.00    +0.000 C 
ATOM     19  N   UNL     1      -3.723   2.872 126.391  0.00  0.00    +0.000 NA
ATOM     20  C   UNL     1      -2.411   3.087 127.025  0.00  0.00    +0.000 C 
ENDBRANCH  17  19
ENDBRANCH  16  17
ENDBRANCH  15  16
ENDBRANCH   1  15
TORSDOF 6
ENDMDL
MODEL 6
REMARK VINA RESULT:      -6.0      3.430      5.572
REMARK  Name = Orphenadrine
REMARK  9 active torsions:
REMARK  status: ('A' for Active; 'I' for Inactive)
REMARK    1  A    between atoms: C_1  and  N_2
REMARK    2  A    between atoms: N_2  and  C_3
REMARK    3  A    between atoms: N_2  and  C_4
REMARK    4  A    between atoms: C_4  and  C_5
REMARK    5  A    between atoms: C_5  and  O_6
REMARK    6  A    between atoms: O_6  and  C_7
REMARK    7  A    between atoms: C_7  and  C_8
REMARK    8  A    between atoms: C_7  and  C_14
REMARK    9  A    between atoms: C_19  and  C_20
REMARK                            x       y       z     vdW  Elec       q    Type
REMARK                         _______ _______ _______ _____ _____    ______ ____
ROOT
ATOM      1  C   UNL     1      -7.579   2.390 123.550  0.00  0.00    +0.000 C 
ENDROOT
BRANCH   1   2
ATOM      2  C   UNL     1      -7.814   0.843 123.578  0.00  0.00    +0.000 A 
ATOM      3  C   UNL     1      -6.706   0.074 124.021  0.00  0.00    +0.000 A 
ATOM      4  C   UNL     1      -6.656  -1.315 123.860  0.00  0.00    +0.000 A 
ATOM      5  C   UNL     1      -7.720  -1.985 123.278  0.00  0.00    +0.000 A 
ATOM      6  C   UNL     1      -8.853  -1.277 122.920  0.00  0.00    +0.000 A 
ATOM      7  C   UNL     1      -8.961   0.110 123.134  0.00  0.00    +0.000 A 
ATOM      8  C   UNL     1     -10.325   0.632 122.741  0.00  0.00    +0.000 C 
ENDBRANCH   1   2
BRANCH   1   9
ATOM      9  C   UNL     1      -7.402   3.032 122.176  0.00  0.00    +0.000 A 
ATOM     10  C   UNL     1      -6.140   3.540 121.856  0.00  0.00    +0.000 A 
ATOM     11  C   UNL     1      -5.854   3.934 120.554  0.00  0.00    +0.000 A 
ATOM     12  C   UNL     1      -6.884   4.229 119.703  0.00  0.00    +0.000 A 
ATOM     13  C   UNL     1      -8.203   4.083 120.141  0.00  0.00    +0.000 A 
ATOM     14  C   UNL     1      -8.457   3.379 121.327  0.00  0.00    +0.000 A 
ENDBRANCH   1   9
BRANCH   1  15
ATOM     15  O   UNL     1      -6.352   2.675 124.312  0.00  0.00    +0.000 OA
BRANCH  15  16
ATOM     16  C   UNL     1      -6.619   3.520 125.435  0.00  0.00    +0.000 C 
BRANCH  16  17
ATOM     17  C   UNL     1      -5.675   3.383 126.619  0.00  0.00    +0.000 C 
BRANCH  17  19
ATOM     18  C   UNL     1      -4.286   5.219 127.298  0.00  0.00    +0.000 C 
ATOM     19  N   UNL     1      -4.407   4.111 126.354  0.00  0.00    +0.000 NA
ATOM     20  C   UNL     1      -3.213   3.256 126.461  0.00  0.00    +0.000 C 
ENDBRANCH  17  19
ENDBRANCH  16  17
ENDBRANCH  15  16
ENDBRANCH   1  15
TORSDOF 6
ENDMDL
MODEL 7
REMARK VINA RESULT:      -5.9      2.216      4.563
REMARK  Name = Orphenadrine
REMARK  9 active torsions:
REMARK  status: ('A' for Active; 'I' for Inactive)
REMARK    1  A    between atoms: C_1  and  N_2
REMARK    2  A    between atoms: N_2  and  C_3
REMARK    3  A    between atoms: N_2  and  C_4
REMARK    4  A    between atoms: C_4  and  C_5
REMARK    5  A    between atoms: C_5  and  O_6
REMARK    6  A    between atoms: O_6  and  C_7
REMARK    7  A    between atoms: C_7  and  C_8
REMARK    8  A    between atoms: C_7  and  C_14
REMARK    9  A    between atoms: C_19  and  C_20
REMARK                            x       y       z     vdW  Elec       q    Type
REMARK                         _______ _______ _______ _____ _____    ______ ____
ROOT
ATOM      1  C   UNL     1      -6.825  -1.444 127.689  0.00  0.00    +0.000 C 
ENDROOT
BRANCH   1   2
ATOM      2  C   UNL     1      -7.439  -2.038 126.377  0.00  0.00    +0.000 A 
ATOM      3  C   UNL     1      -8.820  -2.357 126.449  0.00  0.00    +0.000 A 
ATOM      4  C   UNL     1      -9.455  -3.129 125.469  0.00  0.00    +0.000 A 
ATOM      5  C   UNL     1      -8.740  -3.582 124.372  0.00  0.00    +0.000 A 
ATOM      6  C   UNL     1      -7.416  -3.211 124.225  0.00  0.00    +0.000 A 
ATOM      7  C   UNL     1      -6.769  -2.379 125.158  0.00  0.00    +0.000 A 
ATOM      8  C   UNL     1      -5.357  -2.048 124.728  0.00  0.00    +0.000 C 
ENDBRANCH   1   2
BRANCH   1   9
ATOM      9  C   UNL     1      -6.153  -2.432 128.640  0.00  0.00    +0.000 A 
ATOM     10  C   UNL     1      -4.792  -2.688 128.451  0.00  0.00    +0.000 A 
ATOM     11  C   UNL     1      -4.075  -3.399 129.406  0.00  0.00    +0.000 A 
ATOM     12  C   UNL     1      -4.748  -4.198 130.290  0.00  0.00    +0.000 A 
ATOM     13  C   UNL     1      -6.144  -4.247 130.250  0.00  0.00    +0.000 A 
ATOM     14  C   UNL     1      -6.843  -3.283 129.508  0.00  0.00    +0.000 A 
ENDBRANCH   1   9
BRANCH   1  15
ATOM     15  O   UNL     1      -7.912  -0.800 128.445  0.00  0.00    +0.000 OA
BRANCH  15  16
ATOM     16  C   UNL     1      -7.642   0.587 128.668  0.00  0.00    +0.000 C 
BRANCH  16  17
ATOM     17  C   UNL     1      -8.215   1.556 127.647  0.00  0.00    +0.000 C 
BRANCH  17  19
ATOM     18  C   UNL     1      -8.909   2.491 129.745  0.00  0.00    +0.000 C 
ATOM     19  N   UNL     1      -8.731   2.774 128.324  0.00  0.00    +0.000 NA
ATOM     20  C   UNL     1      -7.848   3.942 128.172  0.00  0.00    +0.000 C 
ENDBRANCH  17  19
ENDBRANCH  16  17
ENDBRANCH  15  16
ENDBRANCH   1  15
TORSDOF 6
ENDMDL
MODEL 8
REMARK VINA RESULT:      -5.9      1.977      4.303
REMARK  Name = Orphenadrine
REMARK  9 active torsions:
REMARK  status: ('A' for Active; 'I' for Inactive)
REMARK    1  A    between atoms: C_1  and  N_2
REMARK    2  A    between atoms: N_2  and  C_3
REMARK    3  A    between atoms: N_2  and  C_4
REMARK    4  A    between atoms: C_4  and  C_5
REMARK    5  A    between atoms: C_5  and  O_6
REMARK    6  A    between atoms: O_6  and  C_7
REMARK    7  A    between atoms: C_7  and  C_8
REMARK    8  A    between atoms: C_7  and  C_14
REMARK    9  A    between atoms: C_19  and  C_20
REMARK                            x       y       z     vdW  Elec       q    Type
REMARK                         _______ _______ _______ _____ _____    ______ ____
ROOT
ATOM      1  C   UNL     1      -6.162  -1.475 127.504  0.00  0.00    +0.000 C 
ENDROOT
BRANCH   1   2
ATOM      2  C   UNL     1      -6.623  -2.020 126.110  0.00  0.00    +0.000 A 
ATOM      3  C   UNL     1      -5.773  -1.686 125.023  0.00  0.00    +0.000 A 
ATOM      4  C   UNL     1      -6.169  -1.864 123.692  0.00  0.00    +0.000 A 
ATOM      5  C   UNL     1      -7.411  -2.407 123.404  0.00  0.00    +0.000 A 
ATOM      6  C   UNL     1      -8.223  -2.829 124.440  0.00  0.00    +0.000 A 
ATOM      7  C   UNL     1      -7.825  -2.727 125.786  0.00  0.00    +0.000 A 
ATOM      8  C   UNL     1      -8.848  -3.334 126.720  0.00  0.00    +0.000 C 
ENDBRANCH   1   2
BRANCH   1   9
ATOM      9  C   UNL     1      -5.728  -2.513 128.537  0.00  0.00    +0.000 A 
ATOM     10  C   UNL     1      -6.651  -2.868 129.524  0.00  0.00    +0.000 A 
ATOM     11  C   UNL     1      -6.403  -3.956 130.354  0.00  0.00    +0.000 A 
ATOM     12  C   UNL     1      -5.119  -4.405 130.503  0.00  0.00    +0.000 A 
ATOM     13  C   UNL     1      -4.088  -3.796 129.783  0.00  0.00    +0.000 A 
ATOM     14  C   UNL     1      -4.408  -2.935 128.722  0.00  0.00    +0.000 A 
ENDBRANCH   1   9
BRANCH   1  15
ATOM     15  O   UNL     1      -7.288  -0.734 128.095  0.00  0.00    +0.000 OA
BRANCH  15  16
ATOM     16  C   UNL     1      -7.205   0.664 127.801  0.00  0.00    +0.000 C 
BRANCH  16  17
ATOM     17  C   UNL     1      -8.527   1.398 127.648  0.00  0.00    +0.000 C 
BRANCH  17  19
ATOM     18  C   UNL     1      -7.589   1.673 125.456  0.00  0.00    +0.000 C 
ATOM     19  N   UNL     1      -8.838   1.607 126.210  0.00  0.00    +0.000 NA
ATOM     20  C   UNL     1      -9.689   0.550 125.640  0.00  0.00    +0.000 C 
ENDBRANCH  17  19
ENDBRANCH  16  17
ENDBRANCH  15  16
ENDBRANCH   1  15
TORSDOF 6
ENDMDL
MODEL 9
REMARK VINA RESULT:      -5.9      0.982      2.238
REMARK  Name = Orphenadrine
REMARK  9 active torsions:
REMARK  status: ('A' for Active; 'I' for Inactive)
REMARK    1  A    between atoms: C_1  and  N_2
REMARK    2  A    between atoms: N_2  and  C_3
REMARK    3  A    between atoms: N_2  and  C_4
REMARK    4  A    between atoms: C_4  and  C_5
REMARK    5  A    between atoms: C_5  and  O_6
REMARK    6  A    between atoms: O_6  and  C_7
REMARK    7  A    between atoms: C_7  and  C_8
REMARK    8  A    between atoms: C_7  and  C_14
REMARK    9  A    between atoms: C_19  and  C_20
REMARK                            x       y       z     vdW  Elec       q    Type
REMARK                         _______ _______ _______ _____ _____    ______ ____
ROOT
ATOM      1  C   UNL     1      -7.913  -1.298 125.618  0.00  0.00    +0.000 C 
ENDROOT
BRANCH   1   2
ATOM      2  C   UNL     1      -7.942  -2.084 126.972  0.00  0.00    +0.000 A 
ATOM      3  C   UNL     1      -8.738  -3.260 126.969  0.00  0.00    +0.000 A 
ATOM      4  C   UNL     1      -9.081  -3.926 128.151  0.00  0.00    +0.000 A 
ATOM      5  C   UNL     1      -8.618  -3.458 129.371  0.00  0.00    +0.000 A 
ATOM      6  C   UNL     1      -7.765  -2.370 129.400  0.00  0.00    +0.000 A 
ATOM      7  C   UNL     1      -7.346  -1.721 128.223  0.00  0.00    +0.000 A 
ATOM      8  C   UNL     1      -6.350  -0.621 128.515  0.00  0.00    +0.000 C 
ENDBRANCH   1   2
BRANCH   1   9
ATOM      9  C   UNL     1      -6.967  -1.822 124.541  0.00  0.00    +0.000 A 
ATOM     10  C   UNL     1      -5.794  -2.456 124.962  0.00  0.00    +0.000 A 
ATOM     11  C   UNL     1      -5.005  -3.145 124.048  0.00  0.00    +0.000 A 
ATOM     12  C   UNL     1      -5.121  -2.859 122.715  0.00  0.00    +0.000 A 
ATOM     13  C   UNL     1      -6.063  -1.918 122.291  0.00  0.00    +0.000 A 
ATOM     14  C   UNL     1      -7.056  -1.491 123.186  0.00  0.00    +0.000 A 
ENDBRANCH   1   9
BRANCH   1  15
ATOM     15  O   UNL     1      -7.501   0.085 125.907  0.00  0.00    +0.000 OA
BRANCH  15  16
ATOM     16  C   UNL     1      -8.570   1.008 125.675  0.00  0.00    +0.000 C 
BRANCH  16  17
ATOM     17  C   UNL     1      -8.284   2.136 124.697  0.00  0.00    +0.000 C 
BRANCH  17  19
ATOM     18  C   UNL     1     -10.049   1.197 123.370  0.00  0.00    +0.000 C 
ATOM     19  N   UNL     1      -8.697   1.747 123.324  0.00  0.00    +0.000 NA
ATOM     20  C   UNL     1      -8.665   2.867 122.368  0.00  0.00    +0.000 C 
ENDBRANCH  17  19
ENDBRANCH  16  17
ENDBRANCH  15  16
ENDBRANCH   1  15
TORSDOF 6
ENDMDL
