MODEL 1
REMARK VINA RESULT:      -6.3      0.000      0.000
REMARK  Name = Oseltamivir
REMARK  13 active torsions:
REMARK  status: ('A' for Active; 'I' for Inactive)
REMARK    1  A    between atoms: C_1  and  C_2
REMARK    2  A    between atoms: C_2  and  O_3
REMARK    3  A    between atoms: O_3  and  C_4
REMARK    4  A    between atoms: C_4  and  C_6
REMARK    5  A    between atoms: C_8  and  O_9
REMARK    6  A    between atoms: O_9  and  C_10
REMARK    7  A    between atoms: C_10  and  C_11
REMARK    8  A    between atoms: C_10  and  C_13
REMARK    9  A    between atoms: C_11  and  C_12
REMARK   10  A    between atoms: C_13  and  C_14
REMARK   11  A    between atoms: C_15  and  N_16
REMARK   12  A    between atoms: C_17  and  C_18
REMARK   13  A    between atoms: C_20  and  N_21
REMARK                            x       y       z     vdW  Elec       q    Type
REMARK                         _______ _______ _______ _____ _____    ______ ____
ROOT
ATOM      1  C   UNL     1     -10.989   7.210 129.946  0.00  0.00    +0.000 C 
ATOM      2  C   UNL     1      -9.831   6.708 129.558  0.00  0.00    +0.000 C 
ATOM      3  C   UNL     1      -9.231   5.394 129.957  0.00  0.00    +0.000 C 
ATOM      4  C   UNL     1      -9.706   4.827 131.292  0.00  0.00    +0.000 C 
ATOM      5  C   UNL     1     -10.801   5.716 131.947  0.00  0.00    +0.000 C 
ATOM      6  C   UNL     1     -11.619   6.750 131.167  0.00  0.00    +0.000 C 
ENDROOT
BRANCH   4   7
ATOM      7  N   UNL     1     -10.127   3.405 131.237  0.00  0.00    +0.000 N 
ATOM      8  C   UNL     1      -9.775   2.398 132.098  0.00  0.00    +0.000 C 
ATOM      9  C   UNL     1      -8.866   2.687 133.268  0.00  0.00    +0.000 C 
ATOM     10  O   UNL     1     -10.243   1.273 131.932  0.00  0.00    +0.000 OA
ATOM     11  H   UNL     1     -10.724   3.084 130.480  0.00  0.00    +0.000 HD
ENDBRANCH   4   7
BRANCH   5  12
ATOM     12  N   UNL     1     -10.142   6.437 133.063  0.00  0.00    +0.000 NA
ATOM     13  H   UNL     1      -9.862   5.740 133.758  0.00  0.00    +0.000 HD
ATOM     14  H   UNL     1     -10.828   6.988 133.582  0.00  0.00    +0.000 HD
ENDBRANCH   5  12
BRANCH   1  15
ATOM     15  C   UNL     1     -11.538   8.309 129.148  0.00  0.00    +0.000 C 
ATOM     16  O   UNL     1     -11.078   8.677 128.062  0.00  0.00    +0.000 OA
BRANCH  15  17
ATOM     17  O   UNL     1     -12.552   8.855 129.830  0.00  0.00    +0.000 OA
BRANCH  17  19
ATOM     18  C   UNL     1     -13.490  11.002 130.084  0.00  0.00    +0.000 C 
ATOM     19  C   UNL     1     -13.270   9.859 129.119  0.00  0.00    +0.000 C 
ENDBRANCH  17  19
ENDBRANCH  15  17
ENDBRANCH   1  15
BRANCH   3  20
ATOM     20  O   UNL     1      -7.833   5.622 129.975  0.00  0.00    +0.000 OA
BRANCH  20  21
ATOM     21  C   UNL     1      -7.209   5.126 131.167  0.00  0.00    +0.000 C 
BRANCH  21  22
ATOM     22  C   UNL     1      -6.147   3.999 130.953  0.00  0.00    +0.000 C 
ATOM     23  C   UNL     1      -5.348   3.512 132.193  0.00  0.00    +0.000 C 
ENDBRANCH  21  22
BRANCH  21  24
ATOM     24  C   UNL     1      -6.587   6.386 131.781  0.00  0.00    +0.000 C 
ATOM     25  C   UNL     1      -5.750   7.118 130.759  0.00  0.00    +0.000 C 
ENDBRANCH  21  24
ENDBRANCH  20  21
ENDBRANCH   3  20
TORSDOF 9
ENDMDL
MODEL 2
REMARK VINA RESULT:      -6.2      8.689      9.770
REMARK  Name = Oseltamivir
REMARK  13 active torsions:
REMARK  status: ('A' for Active; 'I' for Inactive)
REMARK    1  A    between atoms: C_1  and  C_2
REMARK    2  A    between atoms: C_2  and  O_3
REMARK    3  A    between atoms: O_3  and  C_4
REMARK    4  A    between atoms: C_4  and  C_6
REMARK    5  A    between atoms: C_8  and  O_9
REMARK    6  A    between atoms: O_9  and  C_10
REMARK    7  A    between atoms: C_10  and  C_11
REMARK    8  A    between atoms: C_10  and  C_13
REMARK    9  A    between atoms: C_11  and  C_12
REMARK   10  A    between atoms: C_13  and  C_14
REMARK   11  A    between atoms: C_15  and  N_16
REMARK   12  A    between atoms: C_17  and  C_18
REMARK   13  A    between atoms: C_20  and  N_21
REMARK                            x       y       z     vdW  Elec       q    Type
REMARK                         _______ _______ _______ _____ _____    ______ ____
ROOT
ATOM      1  C   UNL     1      -7.124   2.418 122.984  0.00  0.00    +0.000 C 
ATOM      2  C   UNL     1      -6.613   1.570 123.857  0.00  0.00    +0.000 C 
ATOM      3  C   UNL     1      -7.159   0.230 124.250  0.00  0.00    +0.000 C 
ATOM      4  C   UNL     1      -8.661   0.043 124.050  0.00  0.00    +0.000 C 
ATOM      5  C   UNL     1      -9.321   1.288 123.393  0.00  0.00    +0.000 C 
ATOM      6  C   UNL     1      -8.528   2.354 122.631  0.00  0.00    +0.000 C 
ENDROOT
BRANCH   4   7
ATOM      7  N   UNL     1      -9.032  -1.204 123.338  0.00  0.00    +0.000 N 
ATOM      8  C   UNL     1      -9.318  -2.425 123.891  0.00  0.00    +0.000 C 
ATOM      9  C   UNL     1      -9.284  -2.604 125.389  0.00  0.00    +0.000 C 
ATOM     10  O   UNL     1      -9.647  -3.356 123.157  0.00  0.00    +0.000 OA
ATOM     11  H   UNL     1      -9.068  -1.215 122.323  0.00  0.00    +0.000 HD
ENDBRANCH   4   7
BRANCH   5  12
ATOM     12  N   UNL     1     -10.063   1.987 124.470  0.00  0.00    +0.000 NA
ATOM     13  H   UNL     1     -11.060   1.809 124.324  0.00  0.00    +0.000 HD
ATOM     14  H   UNL     1     -10.008   2.999 124.339  0.00  0.00    +0.000 HD
ENDBRANCH   5  12
BRANCH   1  15
ATOM     15  C   UNL     1      -6.238   3.472 122.484  0.00  0.00    +0.000 C 
ATOM     16  O   UNL     1      -5.889   4.457 123.143  0.00  0.00    +0.000 OA
BRANCH  15  17
ATOM     17  O   UNL     1      -5.947   3.202 121.206  0.00  0.00    +0.000 OA
BRANCH  17  19
ATOM     18  C   UNL     1      -7.088   4.297 119.459  0.00  0.00    +0.000 C 
ATOM     19  C   UNL     1      -5.876   4.347 120.362  0.00  0.00    +0.000 C 
ENDBRANCH  17  19
ENDBRANCH  15  17
ENDBRANCH   1  15
BRANCH   3  20
ATOM     20  O   UNL     1      -6.809   0.080 125.614  0.00  0.00    +0.000 OA
BRANCH  20  21
ATOM     21  C   UNL     1      -6.257  -1.212 125.903  0.00  0.00    +0.000 C 
BRANCH  21  22
ATOM     22  C   UNL     1      -5.342  -1.817 124.790  0.00  0.00    +0.000 C 
ATOM     23  C   UNL     1      -5.694  -3.232 124.253  0.00  0.00    +0.000 C 
ENDBRANCH  21  22
BRANCH  21  24
ATOM     24  C   UNL     1      -5.489  -0.975 127.207  0.00  0.00    +0.000 C 
ATOM     25  C   UNL     1      -5.212  -2.284 127.908  0.00  0.00    +0.000 C 
ENDBRANCH  21  24
ENDBRANCH  20  21
ENDBRANCH   3  20
TORSDOF 9
ENDMDL
MODEL 3
REMARK VINA RESULT:      -6.2      7.914     10.538
REMARK  Name = Oseltamivir
REMARK  13 active torsions:
REMARK  status: ('A' for Active; 'I' for Inactive)
REMARK    1  A    between atoms: C_1  and  C_2
REMARK    2  A    between atoms: C_2  and  O_3
REMARK    3  A    between atoms: O_3  and  C_4
REMARK    4  A    between atoms: C_4  and  C_6
REMARK    5  A    between atoms: C_8  and  O_9
REMARK    6  A    between atoms: O_9  and  C_10
REMARK    7  A    between atoms: C_10  and  C_11
REMARK    8  A    between atoms: C_10  and  C_13
REMARK    9  A    between atoms: C_11  and  C_12
REMARK   10  A    between atoms: C_13  and  C_14
REMARK   11  A    between atoms: C_15  and  N_16
REMARK   12  A    between atoms: C_17  and  C_18
REMARK   13  A    between atoms: C_20  and  N_21
REMARK                            x       y       z     vdW  Elec       q    Type
REMARK                         _______ _______ _______ _____ _____    ______ ____
ROOT
ATOM      1  C   UNL     1      -7.748   0.306 126.504  0.00  0.00    +0.000 C 
ATOM      2  C   UNL     1      -7.383  -0.219 125.349  0.00  0.00    +0.000 C 
ATOM      3  C   UNL     1      -6.959   0.513 124.111  0.00  0.00    +0.000 C 
ATOM      4  C   UNL     1      -7.479   1.941 123.975  0.00  0.00    +0.000 C 
ATOM      5  C   UNL     1      -8.303   2.382 125.218  0.00  0.00    +0.000 C 
ATOM      6  C   UNL     1      -8.220   1.674 126.574  0.00  0.00    +0.000 C 
ENDROOT
BRANCH   4   7
ATOM      7  N   UNL     1      -6.437   2.941 123.635  0.00  0.00    +0.000 N 
ATOM      8  C   UNL     1      -6.333   3.677 122.484  0.00  0.00    +0.000 C 
ATOM      9  C   UNL     1      -7.361   3.520 121.390  0.00  0.00    +0.000 C 
ATOM     10  O   UNL     1      -5.423   4.497 122.374  0.00  0.00    +0.000 OA
ATOM     11  H   UNL     1      -5.677   3.119 124.286  0.00  0.00    +0.000 HD
ENDBRANCH   4   7
BRANCH   5  12
ATOM     12  N   UNL     1      -9.727   2.363 124.805  0.00  0.00    +0.000 NA
ATOM     13  H   UNL     1      -9.971   1.394 124.584  0.00  0.00    +0.000 HD
ATOM     14  H   UNL     1      -9.839   2.820 123.898  0.00  0.00    +0.000 HD
ENDBRANCH   5  12
BRANCH   1  15
ATOM     15  C   UNL     1      -7.751  -0.583 127.668  0.00  0.00    +0.000 C 
ATOM     16  O   UNL     1      -7.739  -0.194 128.840  0.00  0.00    +0.000 OA
BRANCH  15  17
ATOM     17  O   UNL     1      -7.704  -1.847 127.228  0.00  0.00    +0.000 OA
BRANCH  17  19
ATOM     18  C   UNL     1      -8.900  -3.830 127.664  0.00  0.00    +0.000 C 
ATOM     19  C   UNL     1      -7.920  -2.831 128.236  0.00  0.00    +0.000 C 
ENDBRANCH  17  19
ENDBRANCH  15  17
ENDBRANCH   1  15
BRANCH   3  20
ATOM     20  O   UNL     1      -7.413  -0.294 123.038  0.00  0.00    +0.000 OA
BRANCH  20  21
ATOM     21  C   UNL     1      -7.255  -1.696 123.297  0.00  0.00    +0.000 C 
BRANCH  21  22
ATOM     22  C   UNL     1      -8.456  -2.599 122.869  0.00  0.00    +0.000 C 
ATOM     23  C   UNL     1      -9.332  -3.220 123.992  0.00  0.00    +0.000 C 
ENDBRANCH  21  22
BRANCH  21  24
ATOM     24  C   UNL     1      -5.976  -2.046 122.530  0.00  0.00    +0.000 C 
ATOM     25  C   UNL     1      -5.147  -3.044 123.303  0.00  0.00    +0.000 C 
ENDBRANCH  21  24
ENDBRANCH  20  21
ENDBRANCH   3  20
TORSDOF 9
ENDMDL
MODEL 4
REMARK VINA RESULT:      -6.1      1.133      1.713
REMARK  Name = Oseltamivir
REMARK  13 active torsions:
REMARK  status: ('A' for Active; 'I' for Inactive)
REMARK    1  A    between atoms: C_1  and  C_2
REMARK    2  A    between atoms: C_2  and  O_3
REMARK    3  A    between atoms: O_3  and  C_4
REMARK    4  A    between atoms: C_4  and  C_6
REMARK    5  A    between atoms: C_8  and  O_9
REMARK    6  A    between atoms: O_9  and  C_10
REMARK    7  A    between atoms: C_10  and  C_11
REMARK    8  A    between atoms: C_10  and  C_13
REMARK    9  A    between atoms: C_11  and  C_12
REMARK   10  A    between atoms: C_13  and  C_14
REMARK   11  A    between atoms: C_15  and  N_16
REMARK   12  A    between atoms: C_17  and  C_18
REMARK   13  A    between atoms: C_20  and  N_21
REMARK                            x       y       z     vdW  Elec       q    Type
REMARK                         _______ _______ _______ _____ _____    ______ ____
ROOT
ATOM      1  C   UNL     1     -11.423   7.213 130.336  0.00  0.00    +0.000 C 
ATOM      2  C   UNL     1     -10.359   6.760 129.700  0.00  0.00    +0.000 C 
ATOM      3  C   UNL     1      -9.656   5.454 129.919  0.00  0.00    +0.000 C 
ATOM      4  C   UNL     1      -9.829   4.833 131.302  0.00  0.00    +0.000 C 
ATOM      5  C   UNL     1     -10.785   5.668 132.200  0.00  0.00    +0.000 C 
ATOM      6  C   UNL     1     -11.773   6.697 131.644  0.00  0.00    +0.000 C 
ENDROOT
BRANCH   4   7
ATOM      7  N   UNL     1     -10.215   3.401 131.285  0.00  0.00    +0.000 N 
ATOM      8  C   UNL     1      -9.754   2.404 132.105  0.00  0.00    +0.000 C 
ATOM      9  C   UNL     1      -8.742   2.716 133.180  0.00  0.00    +0.000 C 
ATOM     10  O   UNL     1     -10.208   1.267 131.983  0.00  0.00    +0.000 OA
ATOM     11  H   UNL     1     -10.876   3.064 130.590  0.00  0.00    +0.000 HD
ENDBRANCH   4   7
BRANCH   5  12
ATOM     12  N   UNL     1      -9.927   6.376 133.181  0.00  0.00    +0.000 NA
ATOM     13  H   UNL     1      -9.117   5.780 133.370  0.00  0.00    +0.000 HD
ATOM     14  H   UNL     1     -10.384   6.407 134.094  0.00  0.00    +0.000 HD
ENDBRANCH   5  12
BRANCH   1  15
ATOM     15  C   UNL     1     -12.154   8.317 129.708  0.00  0.00    +0.000 C 
ATOM     16  O   UNL     1     -12.841   9.136 130.327  0.00  0.00    +0.000 OA
BRANCH  15  17
ATOM     17  O   UNL     1     -11.989   8.227 128.383  0.00  0.00    +0.000 OA
BRANCH  17  19
ATOM     18  C   UNL     1     -12.590   6.982 126.475  0.00  0.00    +0.000 C 
ATOM     19  C   UNL     1     -13.121   7.725 127.680  0.00  0.00    +0.000 C 
ENDBRANCH  17  19
ENDBRANCH  15  17
ENDBRANCH   1  15
BRANCH   3  20
ATOM     20  O   UNL     1      -8.291   5.726 129.654  0.00  0.00    +0.000 OA
BRANCH  20  21
ATOM     21  C   UNL     1      -7.407   5.008 130.526  0.00  0.00    +0.000 C 
BRANCH  21  22
ATOM     22  C   UNL     1      -6.656   3.801 129.878  0.00  0.00    +0.000 C 
ATOM     23  C   UNL     1      -5.149   3.980 129.544  0.00  0.00    +0.000 C 
ENDBRANCH  21  22
BRANCH  21  24
ATOM     24  C   UNL     1      -6.437   6.094 131.003  0.00  0.00    +0.000 C 
ATOM     25  C   UNL     1      -6.356   6.111 132.511  0.00  0.00    +0.000 C 
ENDBRANCH  21  24
ENDBRANCH  20  21
ENDBRANCH   3  20
TORSDOF 9
ENDMDL
MODEL 5
REMARK VINA RESULT:      -6.1      1.554      2.255
REMARK  Name = Oseltamivir
REMARK  13 active torsions:
REMARK  status: ('A' for Active; 'I' for Inactive)
REMARK    1  A    between atoms: C_1  and  C_2
REMARK    2  A    between atoms: C_2  and  O_3
REMARK    3  A    between atoms: O_3  and  C_4
REMARK    4  A    between atoms: C_4  and  C_6
REMARK    5  A    between atoms: C_8  and  O_9
REMARK    6  A    between atoms: O_9  and  C_10
REMARK    7  A    between atoms: C_10  and  C_11
REMARK    8  A    between atoms: C_10  and  C_13
REMARK    9  A    between atoms: C_11  and  C_12
REMARK   10  A    between atoms: C_13  and  C_14
REMARK   11  A    between atoms: C_15  and  N_16
REMARK   12  A    between atoms: C_17  and  C_18
REMARK   13  A    between atoms: C_20  and  N_21
REMARK                            x       y       z     vdW  Elec       q    Type
REMARK                         _______ _______ _______ _____ _____    ______ ____
ROOT
ATOM      1  C   UNL     1     -10.141   7.202 130.019  0.00  0.00    +0.000 C 
ATOM      2  C   UNL     1      -8.830   7.301 130.134  0.00  0.00    +0.000 C 
ATOM      3  C   UNL     1      -7.895   6.314 130.765  0.00  0.00    +0.000 C 
ATOM      4  C   UNL     1      -8.514   5.391 131.811  0.00  0.00    +0.000 C 
ATOM      5  C   UNL     1     -10.044   5.622 131.959  0.00  0.00    +0.000 C 
ATOM      6  C   UNL     1     -10.892   6.329 130.898  0.00  0.00    +0.000 C 
ENDROOT
BRANCH   4   7
ATOM      7  N   UNL     1      -8.200   3.954 131.622  0.00  0.00    +0.000 N 
ATOM      8  C   UNL     1      -7.891   3.034 132.590  0.00  0.00    +0.000 C 
ATOM      9  C   UNL     1      -7.855   3.447 134.042  0.00  0.00    +0.000 C 
ATOM     10  O   UNL     1      -7.691   1.864 132.267  0.00  0.00    +0.000 OA
ATOM     11  H   UNL     1      -8.172   3.562 130.685  0.00  0.00    +0.000 HD
ENDBRANCH   4   7
BRANCH   5  12
ATOM     12  N   UNL     1     -10.236   6.361 133.231  0.00  0.00    +0.000 NA
ATOM     13  H   UNL     1      -9.329   6.408 133.700  0.00  0.00    +0.000 HD
ATOM     14  H   UNL     1     -10.784   5.800 133.887  0.00  0.00    +0.000 HD
ENDBRANCH   5  12
BRANCH   1  15
ATOM     15  C   UNL     1     -10.792   8.084 129.047  0.00  0.00    +0.000 C 
ATOM     16  O   UNL     1     -10.252   8.503 128.018  0.00  0.00    +0.000 OA
BRANCH  15  17
ATOM     17  O   UNL     1     -12.012   8.385 129.508  0.00  0.00    +0.000 OA
BRANCH  17  19
ATOM     18  C   UNL     1     -13.614   7.232 128.221  0.00  0.00    +0.000 C 
ATOM     19  C   UNL     1     -12.993   8.583 128.494  0.00  0.00    +0.000 C 
ENDBRANCH  17  19
ENDBRANCH  15  17
ENDBRANCH   1  15
BRANCH   3  20
ATOM     20  O   UNL     1      -6.862   7.100 131.333  0.00  0.00    +0.000 OA
BRANCH  20  21
ATOM     21  C   UNL     1      -5.557   6.565 131.075  0.00  0.00    +0.000 C 
BRANCH  21  22
ATOM     22  C   UNL     1      -4.557   7.536 130.370  0.00  0.00    +0.000 C 
ATOM     23  C   UNL     1      -3.328   8.027 131.184  0.00  0.00    +0.000 C 
ENDBRANCH  21  22
BRANCH  21  24
ATOM     24  C   UNL     1      -5.070   6.159 132.471  0.00  0.00    +0.000 C 
ATOM     25  C   UNL     1      -4.597   4.725 132.475  0.00  0.00    +0.000 C 
ENDBRANCH  21  24
ENDBRANCH  20  21
ENDBRANCH   3  20
TORSDOF 9
ENDMDL
MODEL 6
REMARK VINA RESULT:      -6.0      6.448      7.794
REMARK  Name = Oseltamivir
REMARK  13 active torsions:
REMARK  status: ('A' for Active; 'I' for Inactive)
REMARK    1  A    between atoms: C_1  and  C_2
REMARK    2  A    between atoms: C_2  and  O_3
REMARK    3  A    between atoms: O_3  and  C_4
REMARK    4  A    between atoms: C_4  and  C_6
REMARK    5  A    between atoms: C_8  and  O_9
REMARK    6  A    between atoms: O_9  and  C_10
REMARK    7  A    between atoms: C_10  and  C_11
REMARK    8  A    between atoms: C_10  and  C_13
REMARK    9  A    between atoms: C_11  and  C_12
REMARK   10  A    between atoms: C_13  and  C_14
REMARK   11  A    between atoms: C_15  and  N_16
REMARK   12  A    between atoms: C_17  and  C_18
REMARK   13  A    between atoms: C_20  and  N_21
REMARK                            x       y       z     vdW  Elec       q    Type
REMARK                         _______ _______ _______ _____ _____    ______ ____
ROOT
ATOM      1  C   UNL     1      -6.067   3.920 123.429  0.00  0.00    +0.000 C 
ATOM      2  C   UNL     1      -5.252   4.165 124.438  0.00  0.00    +0.000 C 
ATOM      3  C   UNL     1      -5.376   3.670 125.848  0.00  0.00    +0.000 C 
ATOM      4  C   UNL     1      -6.788   3.308 126.300  0.00  0.00    +0.000 C 
ATOM      5  C   UNL     1      -7.825   3.459 125.152  0.00  0.00    +0.000 C 
ATOM      6  C   UNL     1      -7.435   3.511 123.671  0.00  0.00    +0.000 C 
ENDROOT
BRANCH   4   7
ATOM      7  N   UNL     1      -6.898   1.982 126.956  0.00  0.00    +0.000 N 
ATOM      8  C   UNL     1      -7.592   1.671 128.096  0.00  0.00    +0.000 C 
ATOM      9  C   UNL     1      -8.369   2.742 128.824  0.00  0.00    +0.000 C 
ATOM     10  O   UNL     1      -7.612   0.506 128.490  0.00  0.00    +0.000 OA
ATOM     11  H   UNL     1      -6.400   1.184 126.570  0.00  0.00    +0.000 HD
ENDBRANCH   4   7
BRANCH   5  12
ATOM     12  N   UNL     1      -8.593   4.694 125.441  0.00  0.00    +0.000 NA
ATOM     13  H   UNL     1      -9.555   4.417 125.651  0.00  0.00    +0.000 HD
ATOM     14  H   UNL     1      -8.714   5.245 124.589  0.00  0.00    +0.000 HD
ENDBRANCH   5  12
BRANCH   1  15
ATOM     15  C   UNL     1      -5.555   4.182 122.081  0.00  0.00    +0.000 C 
ATOM     16  O   UNL     1      -4.693   5.027 121.818  0.00  0.00    +0.000 OA
BRANCH  15  17
ATOM     17  O   UNL     1      -6.225   3.405 121.222  0.00  0.00    +0.000 OA
BRANCH  17  19
ATOM     18  C   UNL     1      -8.163   4.042 120.043  0.00  0.00    +0.000 C 
ATOM     19  C   UNL     1      -6.652   4.069 120.035  0.00  0.00    +0.000 C 
ENDBRANCH  17  19
ENDBRANCH  15  17
ENDBRANCH   1  15
BRANCH   3  20
ATOM     20  O   UNL     1      -4.841   4.710 126.647  0.00  0.00    +0.000 OA
BRANCH  20  21
ATOM     21  C   UNL     1      -3.894   4.232 127.613  0.00  0.00    +0.000 C 
BRANCH  21  22
ATOM     22  C   UNL     1      -3.133   2.925 127.220  0.00  0.00    +0.000 C 
ATOM     23  C   UNL     1      -1.711   3.070 126.611  0.00  0.00    +0.000 C 
ENDBRANCH  21  22
BRANCH  21  24
ATOM     24  C   UNL     1      -2.940   5.420 127.777  0.00  0.00    +0.000 C 
ATOM     25  C   UNL     1      -2.636   5.661 129.237  0.00  0.00    +0.000 C 
ENDBRANCH  21  24
ENDBRANCH  20  21
ENDBRANCH   3  20
TORSDOF 9
ENDMDL
MODEL 7
REMARK VINA RESULT:      -5.8      7.750     10.640
REMARK  Name = Oseltamivir
REMARK  13 active torsions:
REMARK  status: ('A' for Active; 'I' for Inactive)
REMARK    1  A    between atoms: C_1  and  C_2
REMARK    2  A    between atoms: C_2  and  O_3
REMARK    3  A    between atoms: O_3  and  C_4
REMARK    4  A    between atoms: C_4  and  C_6
REMARK    5  A    between atoms: C_8  and  O_9
REMARK    6  A    between atoms: O_9  and  C_10
REMARK    7  A    between atoms: C_10  and  C_11
REMARK    8  A    between atoms: C_10  and  C_13
REMARK    9  A    between atoms: C_11  and  C_12
REMARK   10  A    between atoms: C_13  and  C_14
REMARK   11  A    between atoms: C_15  and  N_16
REMARK   12  A    between atoms: C_17  and  C_18
REMARK   13  A    between atoms: C_20  and  N_21
REMARK                            x       y       z     vdW  Elec       q    Type
REMARK                         _______ _______ _______ _____ _____    ______ ____
ROOT
ATOM      1  C   UNL     1      -7.559  -1.765 127.540  0.00  0.00    +0.000 C 
ATOM      2  C   UNL     1      -6.966  -1.865 126.365  0.00  0.00    +0.000 C 
ATOM      3  C   UNL     1      -5.971  -0.918 125.765  0.00  0.00    +0.000 C 
ATOM      4  C   UNL     1      -6.030   0.518 126.279  0.00  0.00    +0.000 C 
ATOM      5  C   UNL     1      -7.089   0.691 127.403  0.00  0.00    +0.000 C 
ATOM      6  C   UNL     1      -7.661  -0.482 128.205  0.00  0.00    +0.000 C 
ENDROOT
BRANCH   4   7
ATOM      7  N   UNL     1      -4.716   1.077 126.683  0.00  0.00    +0.000 N 
ATOM      8  C   UNL     1      -4.221   2.324 126.406  0.00  0.00    +0.000 C 
ATOM      9  C   UNL     1      -5.047   3.307 125.612  0.00  0.00    +0.000 C 
ATOM     10  O   UNL     1      -3.120   2.647 126.850  0.00  0.00    +0.000 OA
ATOM     11  H   UNL     1      -4.061   0.501 127.204  0.00  0.00    +0.000 HD
ENDBRANCH   4   7
BRANCH   5  12
ATOM     12  N   UNL     1      -8.239   1.399 126.790  0.00  0.00    +0.000 NA
ATOM     13  H   UNL     1      -7.914   1.814 125.913  0.00  0.00    +0.000 HD
ATOM     14  H   UNL     1      -8.480   2.227 127.339  0.00  0.00    +0.000 HD
ENDBRANCH   5  12
BRANCH   1  15
ATOM     15  C   UNL     1      -8.188  -2.975 128.073  0.00  0.00    +0.000 C 
ATOM     16  O   UNL     1      -8.844  -3.773 127.395  0.00  0.00    +0.000 OA
BRANCH  15  17
ATOM     17  O   UNL     1      -7.977  -3.009 129.394  0.00  0.00    +0.000 OA
BRANCH  17  19
ATOM     18  C   UNL     1      -6.531  -3.344 131.225  0.00  0.00    +0.000 C 
ATOM     19  C   UNL     1      -6.805  -3.719 129.786  0.00  0.00    +0.000 C 
ENDBRANCH  17  19
ENDBRANCH  15  17
ENDBRANCH   1  15
BRANCH   3  20
ATOM     20  O   UNL     1      -6.217  -0.966 124.371  0.00  0.00    +0.000 OA
BRANCH  20  21
ATOM     21  C   UNL     1      -6.604  -2.273 123.923  0.00  0.00    +0.000 C 
BRANCH  21  22
ATOM     22  C   UNL     1      -7.869  -2.324 123.007  0.00  0.00    +0.000 C 
ATOM     23  C   UNL     1      -9.113  -3.093 123.532  0.00  0.00    +0.000 C 
ENDBRANCH  21  22
BRANCH  21  24
ATOM     24  C   UNL     1      -5.351  -2.772 123.195  0.00  0.00    +0.000 C 
ATOM     25  C   UNL     1      -4.820  -4.026 123.849  0.00  0.00    +0.000 C 
ENDBRANCH  21  24
ENDBRANCH  20  21
ENDBRANCH   3  20
TORSDOF 9
ENDMDL
MODEL 8
REMARK VINA RESULT:      -5.7      7.764      9.406
REMARK  Name = Oseltamivir
REMARK  13 active torsions:
REMARK  status: ('A' for Active; 'I' for Inactive)
REMARK    1  A    between atoms: C_1  and  C_2
REMARK    2  A    between atoms: C_2  and  O_3
REMARK    3  A    between atoms: O_3  and  C_4
REMARK    4  A    between atoms: C_4  and  C_6
REMARK    5  A    between atoms: C_8  and  O_9
REMARK    6  A    between atoms: O_9  and  C_10
REMARK    7  A    between atoms: C_10  and  C_11
REMARK    8  A    between atoms: C_10  and  C_13
REMARK    9  A    between atoms: C_11  and  C_12
REMARK   10  A    between atoms: C_13  and  C_14
REMARK   11  A    between atoms: C_15  and  N_16
REMARK   12  A    between atoms: C_17  and  C_18
REMARK   13  A    between atoms: C_20  and  N_21
REMARK                            x       y       z     vdW  Elec       q    Type
REMARK                         _______ _______ _______ _____ _____    ______ ____
ROOT
ATOM      1  C   UNL     1      -7.518   1.585 125.416  0.00  0.00    +0.000 C 
ATOM      2  C   UNL     1      -7.179   0.439 124.856  0.00  0.00    +0.000 C 
ATOM      3  C   UNL     1      -6.750  -0.820 125.548  0.00  0.00    +0.000 C 
ATOM      4  C   UNL     1      -6.146  -0.638 126.938  0.00  0.00    +0.000 C 
ATOM      5  C   UNL     1      -6.170   0.849 127.394  0.00  0.00    +0.000 C 
ATOM      6  C   UNL     1      -7.077   1.906 126.758  0.00  0.00    +0.000 C 
ENDROOT
BRANCH   4   7
ATOM      7  N   UNL     1      -6.720  -1.530 127.974  0.00  0.00    +0.000 N 
ATOM      8  C   UNL     1      -6.070  -2.504 128.688  0.00  0.00    +0.000 C 
ATOM      9  C   UNL     1      -4.599  -2.754 128.460  0.00  0.00    +0.000 C 
ATOM     10  O   UNL     1      -6.687  -3.135 129.544  0.00  0.00    +0.000 OA
ATOM     11  H   UNL     1      -7.709  -1.471 128.201  0.00  0.00    +0.000 HD
ENDBRANCH   4   7
BRANCH   5  12
ATOM     12  N   UNL     1      -4.777   1.345 127.277  0.00  0.00    +0.000 NA
ATOM     13  H   UNL     1      -4.592   1.937 128.090  0.00  0.00    +0.000 HD
ATOM     14  H   UNL     1      -4.703   2.014 126.508  0.00  0.00    +0.000 HD
ENDBRANCH   5  12
BRANCH   1  15
ATOM     15  C   UNL     1      -8.258   2.539 124.585  0.00  0.00    +0.000 C 
ATOM     16  O   UNL     1      -8.848   3.531 125.024  0.00  0.00    +0.000 OA
BRANCH  15  17
ATOM     17  O   UNL     1      -8.224   2.104 123.320  0.00  0.00    +0.000 OA
BRANCH  17  19
ATOM     18  C   UNL     1      -6.516   3.366 122.296  0.00  0.00    +0.000 C 
ATOM     19  C   UNL     1      -8.008   3.126 122.350  0.00  0.00    +0.000 C 
ENDBRANCH  17  19
ENDBRANCH  15  17
ENDBRANCH   1  15
BRANCH   3  20
ATOM     20  O   UNL     1      -5.816  -1.419 124.667  0.00  0.00    +0.000 OA
BRANCH  20  21
ATOM     21  C   UNL     1      -5.891  -2.852 124.675  0.00  0.00    +0.000 C 
BRANCH  21  22
ATOM     22  C   UNL     1      -7.333  -3.451 124.614  0.00  0.00    +0.000 C 
ATOM     23  C   UNL     1      -8.268  -2.973 123.469  0.00  0.00    +0.000 C 
ENDBRANCH  21  22
BRANCH  21  24
ATOM     24  C   UNL     1      -5.056  -3.247 123.452  0.00  0.00    +0.000 C 
ATOM     25  C   UNL     1      -4.408  -4.595 123.664  0.00  0.00    +0.000 C 
ENDBRANCH  21  24
ENDBRANCH  20  21
ENDBRANCH   3  20
TORSDOF 9
ENDMDL
MODEL 9
REMARK VINA RESULT:      -5.7      2.295      3.176
REMARK  Name = Oseltamivir
REMARK  13 active torsions:
REMARK  status: ('A' for Active; 'I' for Inactive)
REMARK    1  A    between atoms: C_1  and  C_2
REMARK    2  A    between atoms: C_2  and  O_3
REMARK    3  A    between atoms: O_3  and  C_4
REMARK    4  A    between atoms: C_4  and  C_6
REMARK    5  A    between atoms: C_8  and  O_9
REMARK    6  A    between atoms: O_9  and  C_10
REMARK    7  A    between atoms: C_10  and  C_11
REMARK    8  A    between atoms: C_10  and  C_13
REMARK    9  A    between atoms: C_11  and  C_12
REMARK   10  A    between atoms: C_13  and  C_14
REMARK   11  A    between atoms: C_15  and  N_16
REMARK   12  A    between atoms: C_17  and  C_18
REMARK   13  A    between atoms: C_20  and  N_21
REMARK                            x       y       z     vdW  Elec       q    Type
REMARK                         _______ _______ _______ _____ _____    ______ ____
ROOT
ATOM      1  C   UNL     1     -11.270   6.014 130.859  0.00  0.00    +0.000 C 
ATOM      2  C   UNL     1     -10.313   6.427 131.669  0.00  0.00    +0.000 C 
ATOM      3  C   UNL     1      -8.902   5.924 131.741  0.00  0.00    +0.000 C 
ATOM      4  C   UNL     1      -8.681   4.500 131.240  0.00  0.00    +0.000 C 
ATOM      5  C   UNL     1      -9.986   3.872 130.673  0.00  0.00    +0.000 C 
ATOM      6  C   UNL     1     -11.200   4.703 130.247  0.00  0.00    +0.000 C 
ENDROOT
BRANCH   4   7
ATOM      7  N   UNL     1      -7.554   4.355 130.287  0.00  0.00    +0.000 N 
ATOM      8  C   UNL     1      -6.625   3.348 130.241  0.00  0.00    +0.000 C 
ATOM      9  C   UNL     1      -6.692   2.213 131.233  0.00  0.00    +0.000 C 
ATOM     10  O   UNL     1      -5.770   3.358 129.358  0.00  0.00    +0.000 OA
ATOM     11  H   UNL     1      -7.392   5.071 129.583  0.00  0.00    +0.000 HD
ENDBRANCH   4   7
BRANCH   5  12
ATOM     12  N   UNL     1     -10.460   2.901 131.689  0.00  0.00    +0.000 NA
ATOM     13  H   UNL     1     -10.938   3.431 132.422  0.00  0.00    +0.000 HD
ATOM     14  H   UNL     1      -9.667   2.506 132.198  0.00  0.00    +0.000 HD
ENDBRANCH   5  12
BRANCH   1  15
ATOM     15  C   UNL     1     -12.433   6.891 130.702  0.00  0.00    +0.000 C 
ATOM     16  O   UNL     1     -13.217   7.175 131.613  0.00  0.00    +0.000 OA
BRANCH  15  17
ATOM     17  O   UNL     1     -12.511   7.255 129.416  0.00  0.00    +0.000 OA
BRANCH  17  19
ATOM     18  C   UNL     1     -10.924   8.476 128.174  0.00  0.00    +0.000 C 
ATOM     19  C   UNL     1     -12.073   8.584 129.151  0.00  0.00    +0.000 C 
ENDBRANCH  17  19
ENDBRANCH  15  17
ENDBRANCH   1  15
BRANCH   3  20
ATOM     20  O   UNL     1      -8.543   6.040 133.106  0.00  0.00    +0.000 OA
BRANCH  20  21
ATOM     21  C   UNL     1      -7.470   5.161 133.471  0.00  0.00    +0.000 C 
BRANCH  21  22
ATOM     22  C   UNL     1      -6.049   5.809 133.502  0.00  0.00    +0.000 C 
ATOM     23  C   UNL     1      -4.853   4.956 132.995  0.00  0.00    +0.000 C 
ENDBRANCH  21  22
BRANCH  21  24
ATOM     24  C   UNL     1      -7.896   4.653 134.853  0.00  0.00    +0.000 C 
ATOM     25  C   UNL     1      -7.607   5.689 135.913  0.00  0.00    +0.000 C 
ENDBRANCH  21  24
ENDBRANCH  20  21
ENDBRANCH   3  20
TORSDOF 9
ENDMDL
