MODEL 1
REMARK VINA RESULT:      -6.4      0.000      0.000
REMARK  Name = Osilodrostat
REMARK  2 active torsions:
REMARK  status: ('A' for Active; 'I' for Inactive)
REMARK    1  A    between atoms: C_3  and  C_10
REMARK    2  A    between atoms: C_6  and  C_8
REMARK                            x       y       z     vdW  Elec       q    Type
REMARK                         _______ _______ _______ _____ _____    ______ ____
ROOT
ATOM      1  F   UNL     1      -9.356  -3.280 124.832  0.00  0.00    +0.000 F 
ATOM      2  C   UNL     1      -8.076  -2.885 124.769  0.00  0.00    +0.000 A 
ATOM      3  C   UNL     1      -7.733  -1.566 125.087  0.00  0.00    +0.000 A 
ATOM      4  C   UNL     1      -6.381  -1.211 124.967  0.00  0.00    +0.000 A 
ATOM      5  C   UNL     1      -5.404  -2.131 124.618  0.00  0.00    +0.000 A 
ATOM      6  C   UNL     1      -5.776  -3.420 124.262  0.00  0.00    +0.000 A 
ATOM      7  C   UNL     1      -7.115  -3.808 124.352  0.00  0.00    +0.000 A 
ENDROOT
BRANCH   3   8
ATOM      8  C   UNL     1      -8.793  -0.575 125.533  0.00  0.00    +0.000 C 
ATOM      9  C   UNL     1      -8.348   0.298 126.754  0.00  0.00    +0.000 C 
ATOM     10  C   UNL     1      -8.374   1.781 126.318  0.00  0.00    +0.000 C 
ATOM     11  C   UNL     1      -8.801   1.714 124.924  0.00  0.00    +0.000 A 
ATOM     12  C   UNL     1      -8.995   2.512 123.837  0.00  0.00    +0.000 A 
ATOM     13  N   UNL     1      -9.377   1.735 122.765  0.00  0.00    +0.000 NA
ATOM     14  C   UNL     1      -9.449   0.496 123.220  0.00  0.00    +0.000 A 
ATOM     15  N   UNL     1      -9.092   0.450 124.524  0.00  0.00    +0.000 N 
ENDBRANCH   3   8
BRANCH   6  16
ATOM     16  C   UNL     1      -4.793  -4.298 123.701  0.00  0.00    +0.000 C 
ATOM     17  N   UNL     1      -4.044  -5.058 123.259  0.00  0.00    +0.000 NA
ENDBRANCH   6  16
TORSDOF 2
ENDMDL
MODEL 2
REMARK VINA RESULT:      -6.2      1.713      1.988
REMARK  Name = Osilodrostat
REMARK  2 active torsions:
REMARK  status: ('A' for Active; 'I' for Inactive)
REMARK    1  A    between atoms: C_3  and  C_10
REMARK    2  A    between atoms: C_6  and  C_8
REMARK                            x       y       z     vdW  Elec       q    Type
REMARK                         _______ _______ _______ _____ _____    ______ ____
ROOT
ATOM      1  F   UNL     1      -6.515  -1.381 126.700  0.00  0.00    +0.000 F 
ATOM      2  C   UNL     1      -6.252  -1.660 125.415  0.00  0.00    +0.000 A 
ATOM      3  C   UNL     1      -6.781  -0.853 124.401  0.00  0.00    +0.000 A 
ATOM      4  C   UNL     1      -6.495  -1.222 123.078  0.00  0.00    +0.000 A 
ATOM      5  C   UNL     1      -5.670  -2.294 122.771  0.00  0.00    +0.000 A 
ATOM      6  C   UNL     1      -5.197  -3.106 123.793  0.00  0.00    +0.000 A 
ATOM      7  C   UNL     1      -5.475  -2.782 125.123  0.00  0.00    +0.000 A 
ENDROOT
BRANCH   3   8
ATOM      8  C   UNL     1      -7.630   0.359 124.737  0.00  0.00    +0.000 C 
ATOM      9  C   UNL     1      -6.874   1.716 124.543  0.00  0.00    +0.000 C 
ATOM     10  C   UNL     1      -7.642   2.546 123.488  0.00  0.00    +0.000 C 
ATOM     11  C   UNL     1      -8.754   1.675 123.120  0.00  0.00    +0.000 A 
ATOM     12  C   UNL     1      -9.801   1.605 122.251  0.00  0.00    +0.000 A 
ATOM     13  N   UNL     1     -10.455   0.405 122.423  0.00  0.00    +0.000 NA
ATOM     14  C   UNL     1      -9.829  -0.214 123.409  0.00  0.00    +0.000 A 
ATOM     15  N   UNL     1      -8.783   0.527 123.844  0.00  0.00    +0.000 N 
ENDBRANCH   3   8
BRANCH   6  16
ATOM     16  C   UNL     1      -4.527  -4.326 123.458  0.00  0.00    +0.000 C 
ATOM     17  N   UNL     1      -4.041  -5.328 123.151  0.00  0.00    +0.000 NA
ENDBRANCH   6  16
TORSDOF 2
ENDMDL
MODEL 3
REMARK VINA RESULT:      -6.2      3.321      4.609
REMARK  Name = Osilodrostat
REMARK  2 active torsions:
REMARK  status: ('A' for Active; 'I' for Inactive)
REMARK    1  A    between atoms: C_3  and  C_10
REMARK    2  A    between atoms: C_6  and  C_8
REMARK                            x       y       z     vdW  Elec       q    Type
REMARK                         _______ _______ _______ _____ _____    ______ ____
ROOT
ATOM      1  F   UNL     1      -5.252  -1.701 126.456  0.00  0.00    +0.000 F 
ATOM      2  C   UNL     1      -6.306  -2.246 127.081  0.00  0.00    +0.000 A 
ATOM      3  C   UNL     1      -7.383  -2.740 126.336  0.00  0.00    +0.000 A 
ATOM      4  C   UNL     1      -8.468  -3.265 127.055  0.00  0.00    +0.000 A 
ATOM      5  C   UNL     1      -8.460  -3.362 128.438  0.00  0.00    +0.000 A 
ATOM      6  C   UNL     1      -7.401  -2.823 129.155  0.00  0.00    +0.000 A 
ATOM      7  C   UNL     1      -6.310  -2.276 128.476  0.00  0.00    +0.000 A 
ENDROOT
BRANCH   3   8
ATOM      8  C   UNL     1      -7.365  -2.694 124.819  0.00  0.00    +0.000 C 
ATOM      9  C   UNL     1      -8.378  -3.687 124.158  0.00  0.00    +0.000 C 
ATOM     10  C   UNL     1      -9.375  -2.861 123.313  0.00  0.00    +0.000 C 
ATOM     11  C   UNL     1      -8.930  -1.486 123.515  0.00  0.00    +0.000 A 
ATOM     12  C   UNL     1      -9.280  -0.204 123.212  0.00  0.00    +0.000 A 
ATOM     13  N   UNL     1      -8.387   0.662 123.805  0.00  0.00    +0.000 NA
ATOM     14  C   UNL     1      -7.496  -0.096 124.419  0.00  0.00    +0.000 A 
ATOM     15  N   UNL     1      -7.805  -1.405 124.272  0.00  0.00    +0.000 N 
ENDBRANCH   3   8
BRANCH   6  16
ATOM     16  C   UNL     1      -7.498  -2.737 130.581  0.00  0.00    +0.000 C 
ATOM     17  N   UNL     1      -7.517  -2.702 131.735  0.00  0.00    +0.000 NA
ENDBRANCH   6  16
TORSDOF 2
ENDMDL
MODEL 4
REMARK VINA RESULT:      -6.1      8.649      9.789
REMARK  Name = Osilodrostat
REMARK  2 active torsions:
REMARK  status: ('A' for Active; 'I' for Inactive)
REMARK    1  A    between atoms: C_3  and  C_10
REMARK    2  A    between atoms: C_6  and  C_8
REMARK                            x       y       z     vdW  Elec       q    Type
REMARK                         _______ _______ _______ _____ _____    ______ ____
ROOT
ATOM      1  F   UNL     1      -9.788   3.601 129.704  0.00  0.00    +0.000 F 
ATOM      2  C   UNL     1      -9.101   4.662 130.152  0.00  0.00    +0.000 A 
ATOM      3  C   UNL     1      -9.769   5.859 130.438  0.00  0.00    +0.000 A 
ATOM      4  C   UNL     1      -8.984   6.940 130.869  0.00  0.00    +0.000 A 
ATOM      5  C   UNL     1      -7.618   6.825 131.075  0.00  0.00    +0.000 A 
ATOM      6  C   UNL     1      -6.973   5.643 130.739  0.00  0.00    +0.000 A 
ATOM      7  C   UNL     1      -7.716   4.549 130.290  0.00  0.00    +0.000 A 
ENDROOT
BRANCH   3   8
ATOM      8  C   UNL     1     -11.274   5.966 130.275  0.00  0.00    +0.000 C 
ATOM      9  C   UNL     1     -12.001   6.470 131.566  0.00  0.00    +0.000 C 
ATOM     10  C   UNL     1     -12.735   7.786 131.220  0.00  0.00    +0.000 C 
ATOM     11  C   UNL     1     -12.413   7.990 129.812  0.00  0.00    +0.000 A 
ATOM     12  C   UNL     1     -12.580   8.896 128.807  0.00  0.00    +0.000 A 
ATOM     13  N   UNL     1     -11.930   8.448 127.678  0.00  0.00    +0.000 NA
ATOM     14  C   UNL     1     -11.417   7.273 127.995  0.00  0.00    +0.000 A 
ATOM     15  N   UNL     1     -11.682   6.973 129.287  0.00  0.00    +0.000 N 
ENDBRANCH   3   8
BRANCH   6  16
ATOM     16  C   UNL     1      -5.542   5.603 130.754  0.00  0.00    +0.000 C 
ATOM     17  N   UNL     1      -4.391   5.510 130.798  0.00  0.00    +0.000 NA
ENDBRANCH   6  16
TORSDOF 2
ENDMDL
MODEL 5
REMARK VINA RESULT:      -6.0      8.248     11.342
REMARK  Name = Osilodrostat
REMARK  2 active torsions:
REMARK  status: ('A' for Active; 'I' for Inactive)
REMARK    1  A    between atoms: C_3  and  C_10
REMARK    2  A    between atoms: C_6  and  C_8
REMARK                            x       y       z     vdW  Elec       q    Type
REMARK                         _______ _______ _______ _____ _____    ______ ____
ROOT
ATOM      1  F   UNL     1     -11.629   6.035 132.317  0.00  0.00    +0.000 F 
ATOM      2  C   UNL     1     -11.330   6.745 131.219  0.00  0.00    +0.000 A 
ATOM      3  C   UNL     1     -10.025   6.731 130.710  0.00  0.00    +0.000 A 
ATOM      4  C   UNL     1      -9.774   7.524 129.580  0.00  0.00    +0.000 A 
ATOM      5  C   UNL     1     -10.775   8.238 128.941  0.00  0.00    +0.000 A 
ATOM      6  C   UNL     1     -12.049   8.273 129.492  0.00  0.00    +0.000 A 
ATOM      7  C   UNL     1     -12.335   7.511 130.627  0.00  0.00    +0.000 A 
ENDROOT
BRANCH   3   8
ATOM      8  C   UNL     1      -8.943   5.898 131.370  0.00  0.00    +0.000 C 
ATOM      9  C   UNL     1      -8.996   5.944 132.934  0.00  0.00    +0.000 C 
ATOM     10  C   UNL     1      -9.217   4.503 133.450  0.00  0.00    +0.000 C 
ATOM     11  C   UNL     1      -9.292   3.716 132.224  0.00  0.00    +0.000 A 
ATOM     12  C   UNL     1      -9.535   2.446 131.794  0.00  0.00    +0.000 A 
ATOM     13  N   UNL     1      -9.494   2.416 130.417  0.00  0.00    +0.000 NA
ATOM     14  C   UNL     1      -9.192   3.644 130.034  0.00  0.00    +0.000 A 
ATOM     15  N   UNL     1      -9.075   4.459 131.108  0.00  0.00    +0.000 N 
ENDBRANCH   3   8
BRANCH   6  16
ATOM     16  C   UNL     1     -13.018   9.177 128.950  0.00  0.00    +0.000 C 
ATOM     17  N   UNL     1     -13.758   9.959 128.532  0.00  0.00    +0.000 NA
ENDBRANCH   6  16
TORSDOF 2
ENDMDL
MODEL 6
REMARK VINA RESULT:      -5.9      8.497     11.400
REMARK  Name = Osilodrostat
REMARK  2 active torsions:
REMARK  status: ('A' for Active; 'I' for Inactive)
REMARK    1  A    between atoms: C_3  and  C_10
REMARK    2  A    between atoms: C_6  and  C_8
REMARK                            x       y       z     vdW  Elec       q    Type
REMARK                         _______ _______ _______ _____ _____    ______ ____
ROOT
ATOM      1  F   UNL     1     -12.023   6.181 132.303  0.00  0.00    +0.000 F 
ATOM      2  C   UNL     1     -11.702   6.803 131.159  0.00  0.00    +0.000 A 
ATOM      3  C   UNL     1     -10.491   6.513 130.519  0.00  0.00    +0.000 A 
ATOM      4  C   UNL     1     -10.203   7.226 129.346  0.00  0.00    +0.000 A 
ATOM      5  C   UNL     1     -11.096   8.131 128.793  0.00  0.00    +0.000 A 
ATOM      6  C   UNL     1     -12.268   8.436 129.471  0.00  0.00    +0.000 A 
ATOM      7  C   UNL     1     -12.583   7.760 130.652  0.00  0.00    +0.000 A 
ENDROOT
BRANCH   3   8
ATOM      8  C   UNL     1      -9.543   5.475 131.089  0.00  0.00    +0.000 C 
ATOM      9  C   UNL     1      -9.623   4.095 130.355  0.00  0.00    +0.000 C 
ATOM     10  C   UNL     1      -8.230   3.786 129.759  0.00  0.00    +0.000 C 
ATOM     11  C   UNL     1      -7.436   4.948 130.143  0.00  0.00    +0.000 A 
ATOM     12  C   UNL     1      -6.198   5.490 129.966  0.00  0.00    +0.000 A 
ATOM     13  N   UNL     1      -6.139   6.708 130.609  0.00  0.00    +0.000 NA
ATOM     14  C   UNL     1      -7.313   6.869 131.192  0.00  0.00    +0.000 A 
ATOM     15  N   UNL     1      -8.127   5.824 130.917  0.00  0.00    +0.000 N 
ENDBRANCH   3   8
BRANCH   6  16
ATOM     16  C   UNL     1     -13.079   9.520 129.006  0.00  0.00    +0.000 C 
ATOM     17  N   UNL     1     -13.774  10.385 128.685  0.00  0.00    +0.000 NA
ENDBRANCH   6  16
TORSDOF 2
ENDMDL
MODEL 7
REMARK VINA RESULT:      -5.9      4.567      6.322
REMARK  Name = Osilodrostat
REMARK  2 active torsions:
REMARK  status: ('A' for Active; 'I' for Inactive)
REMARK    1  A    between atoms: C_3  and  C_10
REMARK    2  A    between atoms: C_6  and  C_8
REMARK                            x       y       z     vdW  Elec       q    Type
REMARK                         _______ _______ _______ _____ _____    ______ ____
ROOT
ATOM      1  F   UNL     1      -6.924  -0.138 127.631  0.00  0.00    +0.000 F 
ATOM      2  C   UNL     1      -7.582  -1.292 127.444  0.00  0.00    +0.000 A 
ATOM      3  C   UNL     1      -7.615  -2.252 128.463  0.00  0.00    +0.000 A 
ATOM      4  C   UNL     1      -8.291  -3.450 128.188  0.00  0.00    +0.000 A 
ATOM      5  C   UNL     1      -8.962  -3.663 126.993  0.00  0.00    +0.000 A 
ATOM      6  C   UNL     1      -8.874  -2.716 125.982  0.00  0.00    +0.000 A 
ATOM      7  C   UNL     1      -8.195  -1.516 126.210  0.00  0.00    +0.000 A 
ENDROOT
BRANCH   3   8
ATOM      8  C   UNL     1      -6.936  -1.993 129.795  0.00  0.00    +0.000 C 
ATOM      9  C   UNL     1      -7.525  -2.850 130.965  0.00  0.00    +0.000 C 
ATOM     10  C   UNL     1      -6.388  -3.729 131.534  0.00  0.00    +0.000 C 
ATOM     11  C   UNL     1      -5.241  -3.373 130.706  0.00  0.00    +0.000 A 
ATOM     12  C   UNL     1      -3.940  -3.718 130.494  0.00  0.00    +0.000 A 
ATOM     13  N   UNL     1      -3.433  -2.965 129.458  0.00  0.00    +0.000 NA
ATOM     14  C   UNL     1      -4.408  -2.155 129.085  0.00  0.00    +0.000 A 
ATOM     15  N   UNL     1      -5.523  -2.388 129.815  0.00  0.00    +0.000 N 
ENDBRANCH   3   8
BRANCH   6  16
ATOM     16  C   UNL     1      -9.387  -3.034 124.684  0.00  0.00    +0.000 C 
ATOM     17  N   UNL     1      -9.737  -3.287 123.613  0.00  0.00    +0.000 NA
ENDBRANCH   6  16
TORSDOF 2
ENDMDL
MODEL 8
REMARK VINA RESULT:      -5.8      2.322      5.598
REMARK  Name = Osilodrostat
REMARK  2 active torsions:
REMARK  status: ('A' for Active; 'I' for Inactive)
REMARK    1  A    between atoms: C_3  and  C_10
REMARK    2  A    between atoms: C_6  and  C_8
REMARK                            x       y       z     vdW  Elec       q    Type
REMARK                         _______ _______ _______ _____ _____    ______ ____
ROOT
ATOM      1  F   UNL     1      -7.872  -0.420 126.064  0.00  0.00    +0.000 F 
ATOM      2  C   UNL     1      -7.748   0.654 125.270  0.00  0.00    +0.000 A 
ATOM      3  C   UNL     1      -7.204   0.518 123.987  0.00  0.00    +0.000 A 
ATOM      4  C   UNL     1      -7.071   1.687 123.224  0.00  0.00    +0.000 A 
ATOM      5  C   UNL     1      -7.517   2.920 123.676  0.00  0.00    +0.000 A 
ATOM      6  C   UNL     1      -8.009   3.036 124.969  0.00  0.00    +0.000 A 
ATOM      7  C   UNL     1      -8.141   1.898 125.767  0.00  0.00    +0.000 A 
ENDROOT
BRANCH   3   8
ATOM      8  C   UNL     1      -6.776  -0.842 123.467  0.00  0.00    +0.000 C 
ATOM      9  C   UNL     1      -5.713  -1.544 124.376  0.00  0.00    +0.000 C 
ATOM     10  C   UNL     1      -6.314  -2.881 124.870  0.00  0.00    +0.000 C 
ATOM     11  C   UNL     1      -7.642  -2.896 124.266  0.00  0.00    +0.000 A 
ATOM     12  C   UNL     1      -8.791  -3.629 124.252  0.00  0.00    +0.000 A 
ATOM     13  N   UNL     1      -9.722  -2.999 123.457  0.00  0.00    +0.000 NA
ATOM     14  C   UNL     1      -9.122  -1.926 122.972  0.00  0.00    +0.000 A 
ATOM     15  N   UNL     1      -7.862  -1.829 123.456  0.00  0.00    +0.000 N 
ENDBRANCH   3   8
BRANCH   6  16
ATOM     16  C   UNL     1      -8.267   4.341 125.500  0.00  0.00    +0.000 C 
ATOM     17  N   UNL     1      -8.543   5.379 125.924  0.00  0.00    +0.000 NA
ENDBRANCH   6  16
TORSDOF 2
ENDMDL
MODEL 9
REMARK VINA RESULT:      -5.8      8.329      9.790
REMARK  Name = Osilodrostat
REMARK  2 active torsions:
REMARK  status: ('A' for Active; 'I' for Inactive)
REMARK    1  A    between atoms: C_3  and  C_10
REMARK    2  A    between atoms: C_6  and  C_8
REMARK                            x       y       z     vdW  Elec       q    Type
REMARK                         _______ _______ _______ _____ _____    ______ ____
ROOT
ATOM      1  F   UNL     1      -8.763   5.224 133.777  0.00  0.00    +0.000 F 
ATOM      2  C   UNL     1      -9.049   4.447 132.722  0.00  0.00    +0.000 A 
ATOM      3  C   UNL     1      -9.522   5.021 131.536  0.00  0.00    +0.000 A 
ATOM      4  C   UNL     1      -9.834   4.147 130.485  0.00  0.00    +0.000 A 
ATOM      5  C   UNL     1      -9.623   2.779 130.573  0.00  0.00    +0.000 A 
ATOM      6  C   UNL     1      -9.198   2.230 131.775  0.00  0.00    +0.000 A 
ATOM      7  C   UNL     1      -8.893   3.065 132.852  0.00  0.00    +0.000 A 
ENDROOT
BRANCH   3   8
ATOM      8  C   UNL     1      -9.691   6.524 131.417  0.00  0.00    +0.000 C 
ATOM      9  C   UNL     1      -8.985   7.127 130.156  0.00  0.00    +0.000 C 
ATOM     10  C   UNL     1     -10.064   7.802 129.278  0.00  0.00    +0.000 C 
ATOM     11  C   UNL     1     -11.297   7.566 130.022  0.00  0.00    +0.000 A 
ATOM     12  C   UNL     1     -12.645   7.747 129.924  0.00  0.00    +0.000 A 
ATOM     13  N   UNL     1     -13.258   7.207 131.032  0.00  0.00    +0.000 NA
ATOM     14  C   UNL     1     -12.286   6.746 131.799  0.00  0.00    +0.000 A 
ATOM     15  N   UNL     1     -11.084   6.938 131.207  0.00  0.00    +0.000 N 
ENDBRANCH   3   8
BRANCH   6  16
ATOM     16  C   UNL     1      -9.186   0.806 131.923  0.00  0.00    +0.000 C 
ATOM     17  N   UNL     1      -9.208  -0.348 131.982  0.00  0.00    +0.000 NA
ENDBRANCH   6  16
TORSDOF 2
ENDMDL
