MODEL 1
REMARK VINA RESULT:      -8.6      0.000      0.000
REMARK  Name = Osimertinib
REMARK  14 active torsions:
REMARK  status: ('A' for Active; 'I' for Inactive)
REMARK    1  A    between atoms: C_1  and  O_2
REMARK    2  A    between atoms: O_2  and  C_3
REMARK    3  A    between atoms: C_4  and  N_5
REMARK    4  A    between atoms: C_10  and  C_12
REMARK    5  A    between atoms: N_14  and  C_15
REMARK    6  A    between atoms: C_23  and  N_24
REMARK    7  A    between atoms: C_25  and  C_27
REMARK    8  A    between atoms: C_29  and  N_31
REMARK    9  A    between atoms: N_31  and  C_32
REMARK   10  A    between atoms: N_31  and  C_33
REMARK   11  A    between atoms: C_33  and  C_34
REMARK   12  A    between atoms: C_34  and  N_35
REMARK   13  A    between atoms: N_35  and  C_36
REMARK   14  A    between atoms: N_35  and  C_37
REMARK                            x       y       z     vdW  Elec       q    Type
REMARK                         _______ _______ _______ _____ _____    ______ ____
ROOT
ATOM      1  C   UNL     1      -8.219   1.140 129.074  0.00  0.00    +0.000 A 
ATOM      2  C   UNL     1      -8.282   0.635 130.361  0.00  0.00    +0.000 A 
ATOM      3  C   UNL     1      -7.720  -0.701 130.550  0.00  0.00    +0.000 A 
ATOM      4  C   UNL     1      -7.410  -1.592 129.441  0.00  0.00    +0.000 A 
ATOM      5  C   UNL     1      -7.421  -1.043 128.122  0.00  0.00    +0.000 A 
ATOM      6  C   UNL     1      -7.837   0.317 128.009  0.00  0.00    +0.000 A 
ENDROOT
BRANCH   2   7
ATOM      7  N   UNL     1      -9.147   1.326 131.365  0.00  0.00    +0.000 N 
ATOM      8  C   UNL     1      -9.151   2.780 131.788  0.00  0.00    +0.000 A 
ATOM      9  N   UNL     1      -8.374   2.959 132.860  0.00  0.00    +0.000 NA
ATOM     10  C   UNL     1      -8.261   4.237 133.296  0.00  0.00    +0.000 A 
ATOM     11  C   UNL     1      -8.948   5.377 132.846  0.00  0.00    +0.000 A 
ATOM     12  C   UNL     1      -9.933   5.249 131.880  0.00  0.00    +0.000 A 
ATOM     13  N   UNL     1      -9.958   3.906 131.274  0.00  0.00    +0.000 NA
ATOM     14  H   UNL     1      -8.963   0.804 132.229  0.00  0.00    +0.000 HD
BRANCH  12  15
ATOM     15  C   UNL     1     -10.666   6.717 131.136  0.00  0.00    +0.000 A 
ATOM     16  C   UNL     1     -11.883   5.956 131.055  0.00  0.00    +0.000 A 
ATOM     17  N   UNL     1     -12.765   7.006 131.027  0.00  0.00    +0.000 N 
ATOM     18  C   UNL     1     -12.779   8.104 132.008  0.00  0.00    +0.000 C 
ATOM     19  C   UNL     1     -12.636   7.219 129.690  0.00  0.00    +0.000 A 
ATOM     20  C   UNL     1     -11.343   7.618 129.683  0.00  0.00    +0.000 A 
ATOM     21  C   UNL     1     -11.522   8.665 128.526  0.00  0.00    +0.000 A 
ATOM     22  C   UNL     1     -12.521   8.347 127.366  0.00  0.00    +0.000 A 
ATOM     23  C   UNL     1     -13.089   7.137 127.312  0.00  0.00    +0.000 A 
ATOM     24  C   UNL     1     -13.066   6.481 128.527  0.00  0.00    +0.000 A 
ENDBRANCH  12  15
ENDBRANCH   2   7
BRANCH   4  25
ATOM     25  N   UNL     1      -7.139  -3.021 129.703  0.00  0.00    +0.000 N 
ATOM     26  C   UNL     1      -5.875  -3.581 129.841  0.00  0.00    +0.000 C 
ATOM     27  O   UNL     1      -4.811  -3.058 129.360  0.00  0.00    +0.000 OA
ATOM     28  H   UNL     1      -7.903  -3.676 129.560  0.00  0.00    +0.000 HD
BRANCH  26  29
ATOM     29  C   UNL     1      -5.698  -4.827 130.681  0.00  0.00    +0.000 C 
ATOM     30  C   UNL     1      -5.156  -4.804 131.922  0.00  0.00    +0.000 C 
ENDBRANCH  26  29
ENDBRANCH   4  25
BRANCH   1  32
ATOM     31  C   UNL     1      -7.505   3.025 127.896  0.00  0.00    +0.000 C 
ATOM     32  O   UNL     1      -8.341   2.495 128.911  0.00  0.00    +0.000 OA
ENDBRANCH   1  32
BRANCH   5  33
ATOM     33  N   UNL     1      -6.948  -1.660 126.956  0.00  0.00    +0.000 N 
ATOM     34  C   UNL     1      -5.713  -1.298 126.299  0.00  0.00    +0.000 C 
BRANCH  33  35
ATOM     35  C   UNL     1      -7.729  -2.720 126.304  0.00  0.00    +0.000 C 
BRANCH  35  36
ATOM     36  C   UNL     1      -9.147  -2.262 125.906  0.00  0.00    +0.000 C 
BRANCH  36  37
ATOM     37  N   UNL     1      -9.353  -2.032 124.473  0.00  0.00    +0.000 NA
ATOM     38  C   UNL     1      -8.870  -0.694 124.118  0.00  0.00    +0.000 C 
ATOM     39  C   UNL     1      -8.576  -3.050 123.754  0.00  0.00    +0.000 C 
ENDBRANCH  36  37
ENDBRANCH  35  36
ENDBRANCH  33  35
ENDBRANCH   5  33
TORSDOF 9
ENDMDL
MODEL 2
REMARK VINA RESULT:      -8.4      1.867      3.818
REMARK  Name = Osimertinib
REMARK  14 active torsions:
REMARK  status: ('A' for Active; 'I' for Inactive)
REMARK    1  A    between atoms: C_1  and  O_2
REMARK    2  A    between atoms: O_2  and  C_3
REMARK    3  A    between atoms: C_4  and  N_5
REMARK    4  A    between atoms: C_10  and  C_12
REMARK    5  A    between atoms: N_14  and  C_15
REMARK    6  A    between atoms: C_23  and  N_24
REMARK    7  A    between atoms: C_25  and  C_27
REMARK    8  A    between atoms: C_29  and  N_31
REMARK    9  A    between atoms: N_31  and  C_32
REMARK   10  A    between atoms: N_31  and  C_33
REMARK   11  A    between atoms: C_33  and  C_34
REMARK   12  A    between atoms: C_34  and  N_35
REMARK   13  A    between atoms: N_35  and  C_36
REMARK   14  A    between atoms: N_35  and  C_37
REMARK                            x       y       z     vdW  Elec       q    Type
REMARK                         _______ _______ _______ _____ _____    ______ ____
ROOT
ATOM      1  C   UNL     1      -7.672  -0.146 129.906  0.00  0.00    +0.000 A 
ATOM      2  C   UNL     1      -8.223   1.105 129.692  0.00  0.00    +0.000 A 
ATOM      3  C   UNL     1      -8.506   1.447 128.299  0.00  0.00    +0.000 A 
ATOM      4  C   UNL     1      -7.964   0.697 127.175  0.00  0.00    +0.000 A 
ATOM      5  C   UNL     1      -7.345  -0.561 127.450  0.00  0.00    +0.000 A 
ATOM      6  C   UNL     1      -7.226  -0.917 128.826  0.00  0.00    +0.000 A 
ENDROOT
BRANCH   2   7
ATOM      7  N   UNL     1      -8.216   2.096 130.810  0.00  0.00    +0.000 N 
ATOM      8  C   UNL     1      -8.212   3.610 130.749  0.00  0.00    +0.000 A 
ATOM      9  N   UNL     1      -6.962   4.078 130.798  0.00  0.00    +0.000 NA
ATOM     10  C   UNL     1      -6.834   5.423 130.698  0.00  0.00    +0.000 A 
ATOM     11  C   UNL     1      -7.848   6.397 130.673  0.00  0.00    +0.000 A 
ATOM     12  C   UNL     1      -9.170   6.016 130.834  0.00  0.00    +0.000 A 
ATOM     13  N   UNL     1      -9.348   4.554 130.777  0.00  0.00    +0.000 NA
ATOM     14  H   UNL     1      -7.365   1.855 131.330  0.00  0.00    +0.000 HD
BRANCH  12  15
ATOM     15  C   UNL     1     -10.492   7.214 130.587  0.00  0.00    +0.000 A 
ATOM     16  C   UNL     1     -11.390   6.092 130.610  0.00  0.00    +0.000 A 
ATOM     17  N   UNL     1     -12.526   6.761 130.990  0.00  0.00    +0.000 N 
ATOM     18  C   UNL     1     -12.611   7.652 132.159  0.00  0.00    +0.000 C 
ATOM     19  C   UNL     1     -12.835   7.170 129.732  0.00  0.00    +0.000 A 
ATOM     20  C   UNL     1     -11.781   7.994 129.532  0.00  0.00    +0.000 A 
ATOM     21  C   UNL     1     -12.580   9.048 128.685  0.00  0.00    +0.000 A 
ATOM     22  C   UNL     1     -13.708   8.547 127.723  0.00  0.00    +0.000 A 
ATOM     23  C   UNL     1     -13.868   7.232 127.541  0.00  0.00    +0.000 A 
ATOM     24  C   UNL     1     -13.316   6.480 128.559  0.00  0.00    +0.000 A 
ENDBRANCH  12  15
ENDBRANCH   2   7
BRANCH   4  25
ATOM     25  N   UNL     1      -8.033   1.267 125.813  0.00  0.00    +0.000 N 
ATOM     26  C   UNL     1      -9.142   1.208 124.979  0.00  0.00    +0.000 C 
ATOM     27  O   UNL     1     -10.067   0.330 125.088  0.00  0.00    +0.000 OA
ATOM     28  H   UNL     1      -7.156   1.527 125.370  0.00  0.00    +0.000 HD
BRANCH  26  29
ATOM     29  C   UNL     1      -9.349   2.284 123.935  0.00  0.00    +0.000 C 
ATOM     30  C   UNL     1      -8.397   2.625 123.035  0.00  0.00    +0.000 C 
ENDBRANCH  26  29
ENDBRANCH   4  25
BRANCH   1  32
ATOM     31  C   UNL     1      -6.792  -1.678 131.432  0.00  0.00    +0.000 C 
ATOM     32  O   UNL     1      -7.762  -0.680 131.164  0.00  0.00    +0.000 OA
ENDBRANCH   1  32
BRANCH   5  33
ATOM     33  N   UNL     1      -6.960  -1.525 126.510  0.00  0.00    +0.000 N 
ATOM     34  C   UNL     1      -5.594  -1.736 126.087  0.00  0.00    +0.000 C 
BRANCH  33  35
ATOM     35  C   UNL     1      -7.965  -2.377 125.859  0.00  0.00    +0.000 C 
BRANCH  35  36
ATOM     36  C   UNL     1      -7.391  -3.191 124.682  0.00  0.00    +0.000 C 
BRANCH  36  37
ATOM     37  N   UNL     1      -8.091  -3.026 123.405  0.00  0.00    +0.000 NA
ATOM     38  C   UNL     1      -9.522  -3.285 123.595  0.00  0.00    +0.000 C 
ATOM     39  C   UNL     1      -7.888  -1.638 122.974  0.00  0.00    +0.000 C 
ENDBRANCH  36  37
ENDBRANCH  35  36
ENDBRANCH  33  35
ENDBRANCH   5  33
TORSDOF 9
ENDMDL
MODEL 3
REMARK VINA RESULT:      -8.4      2.635      9.590
REMARK  Name = Osimertinib
REMARK  14 active torsions:
REMARK  status: ('A' for Active; 'I' for Inactive)
REMARK    1  A    between atoms: C_1  and  O_2
REMARK    2  A    between atoms: O_2  and  C_3
REMARK    3  A    between atoms: C_4  and  N_5
REMARK    4  A    between atoms: C_10  and  C_12
REMARK    5  A    between atoms: N_14  and  C_15
REMARK    6  A    between atoms: C_23  and  N_24
REMARK    7  A    between atoms: C_25  and  C_27
REMARK    8  A    between atoms: C_29  and  N_31
REMARK    9  A    between atoms: N_31  and  C_32
REMARK   10  A    between atoms: N_31  and  C_33
REMARK   11  A    between atoms: C_33  and  C_34
REMARK   12  A    between atoms: C_34  and  N_35
REMARK   13  A    between atoms: N_35  and  C_36
REMARK   14  A    between atoms: N_35  and  C_37
REMARK                            x       y       z     vdW  Elec       q    Type
REMARK                         _______ _______ _______ _____ _____    ______ ____
ROOT
ATOM      1  C   UNL     1      -8.069   3.544 129.032  0.00  0.00    +0.000 A 
ATOM      2  C   UNL     1      -6.961   3.189 129.780  0.00  0.00    +0.000 A 
ATOM      3  C   UNL     1      -6.882   3.770 131.119  0.00  0.00    +0.000 A 
ATOM      4  C   UNL     1      -7.709   4.890 131.545  0.00  0.00    +0.000 A 
ATOM      5  C   UNL     1      -8.805   5.264 130.708  0.00  0.00    +0.000 A 
ATOM      6  C   UNL     1      -8.924   4.561 129.473  0.00  0.00    +0.000 A 
ENDROOT
BRANCH   2   7
ATOM      7  N   UNL     1      -5.819   2.510 129.097  0.00  0.00    +0.000 N 
ATOM      8  C   UNL     1      -5.580   1.031 128.870  0.00  0.00    +0.000 A 
ATOM      9  N   UNL     1      -4.834   0.519 129.854  0.00  0.00    +0.000 NA
ATOM     10  C   UNL     1      -4.600  -0.813 129.781  0.00  0.00    +0.000 A 
ATOM     11  C   UNL     1      -4.934  -1.703 128.745  0.00  0.00    +0.000 A 
ATOM     12  C   UNL     1      -5.521  -1.220 127.587  0.00  0.00    +0.000 A 
ATOM     13  N   UNL     1      -5.935   0.190 127.709  0.00  0.00    +0.000 NA
ATOM     14  H   UNL     1      -5.004   2.824 129.636  0.00  0.00    +0.000 HD
BRANCH  12  15
ATOM     15  C   UNL     1      -6.153  -2.364 126.349  0.00  0.00    +0.000 A 
ATOM     16  C   UNL     1      -5.797  -1.367 125.377  0.00  0.00    +0.000 A 
ATOM     17  N   UNL     1      -5.665  -2.194 124.290  0.00  0.00    +0.000 N 
ATOM     18  C   UNL     1      -4.835  -3.410 124.270  0.00  0.00    +0.000 C 
ATOM     19  C   UNL     1      -6.994  -2.209 124.006  0.00  0.00    +0.000 A 
ATOM     20  C   UNL     1      -7.421  -2.859 125.112  0.00  0.00    +0.000 A 
ATOM     21  C   UNL     1      -8.570  -3.645 124.384  0.00  0.00    +0.000 A 
ATOM     22  C   UNL     1      -9.347  -2.945 123.221  0.00  0.00    +0.000 A 
ATOM     23  C   UNL     1      -9.114  -1.651 122.972  0.00  0.00    +0.000 A 
ATOM     24  C   UNL     1      -7.902  -1.220 123.475  0.00  0.00    +0.000 A 
ENDBRANCH  12  15
ENDBRANCH   2   7
BRANCH   4  25
ATOM     25  N   UNL     1      -7.372   5.619 132.785  0.00  0.00    +0.000 N 
ATOM     26  C   UNL     1      -7.572   5.138 134.073  0.00  0.00    +0.000 C 
ATOM     27  O   UNL     1      -8.423   4.229 134.367  0.00  0.00    +0.000 OA
ATOM     28  H   UNL     1      -7.186   6.616 132.706  0.00  0.00    +0.000 HD
BRANCH  26  29
ATOM     29  C   UNL     1      -6.684   5.624 135.197  0.00  0.00    +0.000 C 
ATOM     30  C   UNL     1      -7.153   5.892 136.439  0.00  0.00    +0.000 C 
ENDBRANCH  26  29
ENDBRANCH   4  25
BRANCH   1  32
ATOM     31  C   UNL     1      -7.990   3.253 126.717  0.00  0.00    +0.000 C 
ATOM     32  O   UNL     1      -8.410   2.746 127.972  0.00  0.00    +0.000 OA
ENDBRANCH   1  32
BRANCH   5  33
ATOM     33  N   UNL     1      -9.837   6.155 131.032  0.00  0.00    +0.000 N 
ATOM     34  C   UNL     1     -10.626   6.068 132.240  0.00  0.00    +0.000 C 
BRANCH  33  35
ATOM     35  C   UNL     1     -10.203   7.241 130.112  0.00  0.00    +0.000 C 
BRANCH  35  36
ATOM     36  C   UNL     1     -11.650   7.122 129.591  0.00  0.00    +0.000 C 
BRANCH  36  37
ATOM     37  N   UNL     1     -11.996   8.029 128.492  0.00  0.00    +0.000 NA
ATOM     38  C   UNL     1     -12.676   9.212 129.030  0.00  0.00    +0.000 C 
ATOM     39  C   UNL     1     -10.740   8.427 127.845  0.00  0.00    +0.000 C 
ENDBRANCH  36  37
ENDBRANCH  35  36
ENDBRANCH  33  35
ENDBRANCH   5  33
TORSDOF 9
ENDMDL
MODEL 4
REMARK VINA RESULT:      -8.2      3.703      5.951
REMARK  Name = Osimertinib
REMARK  14 active torsions:
REMARK  status: ('A' for Active; 'I' for Inactive)
REMARK    1  A    between atoms: C_1  and  O_2
REMARK    2  A    between atoms: O_2  and  C_3
REMARK    3  A    between atoms: C_4  and  N_5
REMARK    4  A    between atoms: C_10  and  C_12
REMARK    5  A    between atoms: N_14  and  C_15
REMARK    6  A    between atoms: C_23  and  N_24
REMARK    7  A    between atoms: C_25  and  C_27
REMARK    8  A    between atoms: C_29  and  N_31
REMARK    9  A    between atoms: N_31  and  C_32
REMARK   10  A    between atoms: N_31  and  C_33
REMARK   11  A    between atoms: C_33  and  C_34
REMARK   12  A    between atoms: C_34  and  N_35
REMARK   13  A    between atoms: N_35  and  C_36
REMARK   14  A    between atoms: N_35  and  C_37
REMARK                            x       y       z     vdW  Elec       q    Type
REMARK                         _______ _______ _______ _____ _____    ______ ____
ROOT
ATOM      1  C   UNL     1      -8.608   1.219 125.821  0.00  0.00    +0.000 A 
ATOM      2  C   UNL     1      -7.395   1.690 126.292  0.00  0.00    +0.000 A 
ATOM      3  C   UNL     1      -6.362   0.681 126.515  0.00  0.00    +0.000 A 
ATOM      4  C   UNL     1      -6.649  -0.746 126.564  0.00  0.00    +0.000 A 
ATOM      5  C   UNL     1      -7.938  -1.182 126.129  0.00  0.00    +0.000 A 
ATOM      6  C   UNL     1      -8.866  -0.157 125.780  0.00  0.00    +0.000 A 
ENDROOT
BRANCH   2   7
ATOM      7  N   UNL     1      -7.317   3.091 126.804  0.00  0.00    +0.000 N 
ATOM      8  C   UNL     1      -7.351   3.593 128.233  0.00  0.00    +0.000 A 
ATOM      9  N   UNL     1      -8.599   3.909 128.590  0.00  0.00    +0.000 NA
ATOM     10  C   UNL     1      -8.758   4.322 129.870  0.00  0.00    +0.000 A 
ATOM     11  C   UNL     1      -7.766   4.579 130.833  0.00  0.00    +0.000 A 
ATOM     12  C   UNL     1      -6.429   4.483 130.485  0.00  0.00    +0.000 A 
ATOM     13  N   UNL     1      -6.233   3.878 129.155  0.00  0.00    +0.000 NA
ATOM     14  H   UNL     1      -8.114   3.551 126.348  0.00  0.00    +0.000 HD
BRANCH  12  15
ATOM     15  C   UNL     1      -5.154   4.592 131.753  0.00  0.00    +0.000 A 
ATOM     16  C   UNL     1      -5.137   6.004 131.485  0.00  0.00    +0.000 A 
ATOM     17  N   UNL     1      -4.642   6.424 132.694  0.00  0.00    +0.000 N 
ATOM     18  C   UNL     1      -5.208   6.043 133.999  0.00  0.00    +0.000 C 
ATOM     19  C   UNL     1      -3.343   6.195 132.363  0.00  0.00    +0.000 A 
ATOM     20  C   UNL     1      -3.405   4.849 132.259  0.00  0.00    +0.000 A 
ATOM     21  C   UNL     1      -1.962   4.594 132.824  0.00  0.00    +0.000 A 
ATOM     22  C   UNL     1      -0.826   5.614 132.485  0.00  0.00    +0.000 A 
ATOM     23  C   UNL     1      -1.075   6.596 131.611  0.00  0.00    +0.000 A 
ATOM     24  C   UNL     1      -2.425   6.848 131.461  0.00  0.00    +0.000 A 
ENDBRANCH  12  15
ENDBRANCH   2   7
BRANCH   4  25
ATOM     25  N   UNL     1      -5.631  -1.680 127.091  0.00  0.00    +0.000 N 
ATOM     26  C   UNL     1      -5.335  -1.861 128.435  0.00  0.00    +0.000 C 
ATOM     27  O   UNL     1      -5.578  -0.989 129.340  0.00  0.00    +0.000 OA
ATOM     28  H   UNL     1      -4.953  -2.053 126.431  0.00  0.00    +0.000 HD
BRANCH  26  29
ATOM     29  C   UNL     1      -4.783  -3.189 128.905  0.00  0.00    +0.000 C 
ATOM     30  C   UNL     1      -3.455  -3.437 129.007  0.00  0.00    +0.000 C 
ENDBRANCH  26  29
ENDBRANCH   4  25
BRANCH   1  32
ATOM     31  C   UNL     1      -9.167   2.331 123.846  0.00  0.00    +0.000 C 
ATOM     32  O   UNL     1      -9.453   2.112 125.217  0.00  0.00    +0.000 OA
ENDBRANCH   1  32
BRANCH   5  33
ATOM     33  N   UNL     1      -8.336  -2.505 125.894  0.00  0.00    +0.000 N 
ATOM     34  C   UNL     1      -8.849  -3.385 126.920  0.00  0.00    +0.000 C 
BRANCH  33  35
ATOM     35  C   UNL     1      -8.217  -3.094 124.553  0.00  0.00    +0.000 C 
BRANCH  35  36
ATOM     36  C   UNL     1      -6.885  -3.843 124.344  0.00  0.00    +0.000 C 
BRANCH  36  37
ATOM     37  N   UNL     1      -5.735  -2.996 124.012  0.00  0.00    +0.000 NA
ATOM     38  C   UNL     1      -4.628  -3.836 123.546  0.00  0.00    +0.000 C 
ATOM     39  C   UNL     1      -6.159  -2.090 122.938  0.00  0.00    +0.000 C 
ENDBRANCH  36  37
ENDBRANCH  35  36
ENDBRANCH  33  35
ENDBRANCH   5  33
TORSDOF 9
ENDMDL
MODEL 5
REMARK VINA RESULT:      -8.2      3.764      5.616
REMARK  Name = Osimertinib
REMARK  14 active torsions:
REMARK  status: ('A' for Active; 'I' for Inactive)
REMARK    1  A    between atoms: C_1  and  O_2
REMARK    2  A    between atoms: O_2  and  C_3
REMARK    3  A    between atoms: C_4  and  N_5
REMARK    4  A    between atoms: C_10  and  C_12
REMARK    5  A    between atoms: N_14  and  C_15
REMARK    6  A    between atoms: C_23  and  N_24
REMARK    7  A    between atoms: C_25  and  C_27
REMARK    8  A    between atoms: C_29  and  N_31
REMARK    9  A    between atoms: N_31  and  C_32
REMARK   10  A    between atoms: N_31  and  C_33
REMARK   11  A    between atoms: C_33  and  C_34
REMARK   12  A    between atoms: C_34  and  N_35
REMARK   13  A    between atoms: N_35  and  C_36
REMARK   14  A    between atoms: N_35  and  C_37
REMARK                            x       y       z     vdW  Elec       q    Type
REMARK                         _______ _______ _______ _____ _____    ______ ____
ROOT
ATOM      1  C   UNL     1      -8.591   1.316 126.896  0.00  0.00    +0.000 A 
ATOM      2  C   UNL     1      -8.082   1.547 128.162  0.00  0.00    +0.000 A 
ATOM      3  C   UNL     1      -7.387   0.423 128.786  0.00  0.00    +0.000 A 
ATOM      4  C   UNL     1      -7.486  -0.942 128.288  0.00  0.00    +0.000 A 
ATOM      5  C   UNL     1      -8.078  -1.141 127.002  0.00  0.00    +0.000 A 
ATOM      6  C   UNL     1      -8.612   0.020 126.368  0.00  0.00    +0.000 A 
ENDROOT
BRANCH   2   7
ATOM      7  N   UNL     1      -8.515   2.773 128.899  0.00  0.00    +0.000 N 
ATOM      8  C   UNL     1      -7.802   3.532 129.999  0.00  0.00    +0.000 A 
ATOM      9  N   UNL     1      -8.198   3.100 131.200  0.00  0.00    +0.000 NA
ATOM     10  C   UNL     1      -7.585   3.676 132.263  0.00  0.00    +0.000 A 
ATOM     11  C   UNL     1      -6.679   4.750 132.271  0.00  0.00    +0.000 A 
ATOM     12  C   UNL     1      -6.374   5.401 131.087  0.00  0.00    +0.000 A 
ATOM     13  N   UNL     1      -6.894   4.694 129.903  0.00  0.00    +0.000 NA
ATOM     14  H   UNL     1      -9.409   2.491 129.316  0.00  0.00    +0.000 HD
BRANCH  12  15
ATOM     15  C   UNL     1      -5.056   6.628 131.043  0.00  0.00    +0.000 A 
ATOM     16  C   UNL     1      -4.225   5.584 130.510  0.00  0.00    +0.000 A 
ATOM     17  N   UNL     1      -3.308   6.376 129.867  0.00  0.00    +0.000 N 
ATOM     18  C   UNL     1      -3.657   7.443 128.914  0.00  0.00    +0.000 C 
ATOM     19  C   UNL     1      -2.563   6.603 130.981  0.00  0.00    +0.000 A 
ATOM     20  C   UNL     1      -3.475   7.315 131.681  0.00  0.00    +0.000 A 
ATOM     21  C   UNL     1      -2.426   8.273 132.352  0.00  0.00    +0.000 A 
ATOM     22  C   UNL     1      -1.023   7.702 132.745  0.00  0.00    +0.000 A 
ATOM     23  C   UNL     1      -0.803   6.387 132.633  0.00  0.00    +0.000 A 
ATOM     24  C   UNL     1      -1.686   5.770 131.769  0.00  0.00    +0.000 A 
ENDBRANCH  12  15
ENDBRANCH   2   7
BRANCH   4  25
ATOM     25  N   UNL     1      -7.018  -2.064 129.128  0.00  0.00    +0.000 N 
ATOM     26  C   UNL     1      -5.753  -2.632 129.067  0.00  0.00    +0.000 C 
ATOM     27  O   UNL     1      -4.992  -2.564 128.039  0.00  0.00    +0.000 OA
ATOM     28  H   UNL     1      -7.723  -2.599 129.629  0.00  0.00    +0.000 HD
BRANCH  26  29
ATOM     29  C   UNL     1      -5.171  -3.295 130.296  0.00  0.00    +0.000 C 
ATOM     30  C   UNL     1      -5.927  -3.978 131.189  0.00  0.00    +0.000 C 
ENDBRANCH  26  29
ENDBRANCH   4  25
BRANCH   1  32
ATOM     31  C   UNL     1      -8.935   2.107 124.726  0.00  0.00    +0.000 C 
ATOM     32  O   UNL     1      -8.877   2.402 126.112  0.00  0.00    +0.000 OA
ENDBRANCH   1  32
BRANCH   5  33
ATOM     33  N   UNL     1      -8.074  -2.326 126.256  0.00  0.00    +0.000 N 
ATOM     34  C   UNL     1      -8.972  -3.433 126.499  0.00  0.00    +0.000 C 
BRANCH  33  35
ATOM     35  C   UNL     1      -7.100  -2.524 125.174  0.00  0.00    +0.000 C 
BRANCH  35  36
ATOM     36  C   UNL     1      -7.755  -2.983 123.854  0.00  0.00    +0.000 C 
BRANCH  36  37
ATOM     37  N   UNL     1      -7.816  -1.968 122.799  0.00  0.00    +0.000 NA
ATOM     38  C   UNL     1      -9.074  -1.223 122.910  0.00  0.00    +0.000 C 
ATOM     39  C   UNL     1      -6.680  -1.061 123.002  0.00  0.00    +0.000 C 
ENDBRANCH  36  37
ENDBRANCH  35  36
ENDBRANCH  33  35
ENDBRANCH   5  33
TORSDOF 9
ENDMDL
MODEL 6
REMARK VINA RESULT:      -8.2      4.346      9.630
REMARK  Name = Osimertinib
REMARK  14 active torsions:
REMARK  status: ('A' for Active; 'I' for Inactive)
REMARK    1  A    between atoms: C_1  and  O_2
REMARK    2  A    between atoms: O_2  and  C_3
REMARK    3  A    between atoms: C_4  and  N_5
REMARK    4  A    between atoms: C_10  and  C_12
REMARK    5  A    between atoms: N_14  and  C_15
REMARK    6  A    between atoms: C_23  and  N_24
REMARK    7  A    between atoms: C_25  and  C_27
REMARK    8  A    between atoms: C_29  and  N_31
REMARK    9  A    between atoms: N_31  and  C_32
REMARK   10  A    between atoms: N_31  and  C_33
REMARK   11  A    between atoms: C_33  and  C_34
REMARK   12  A    between atoms: C_34  and  N_35
REMARK   13  A    between atoms: N_35  and  C_36
REMARK   14  A    between atoms: N_35  and  C_37
REMARK                            x       y       z     vdW  Elec       q    Type
REMARK                         _______ _______ _______ _____ _____    ______ ____
ROOT
ATOM      1  C   UNL     1      -5.746   4.894 133.905  0.00  0.00    +0.000 A 
ATOM      2  C   UNL     1      -5.410   3.603 133.539  0.00  0.00    +0.000 A 
ATOM      3  C   UNL     1      -4.353   3.478 132.537  0.00  0.00    +0.000 A 
ATOM      4  C   UNL     1      -3.896   4.599 131.727  0.00  0.00    +0.000 A 
ATOM      5  C   UNL     1      -4.321   5.910 132.104  0.00  0.00    +0.000 A 
ATOM      6  C   UNL     1      -5.243   5.986 133.189  0.00  0.00    +0.000 A 
ENDROOT
BRANCH   2   7
ATOM      7  N   UNL     1      -6.310   2.481 133.945  0.00  0.00    +0.000 N 
ATOM      8  C   UNL     1      -7.260   1.659 133.099  0.00  0.00    +0.000 A 
ATOM      9  N   UNL     1      -8.488   2.184 133.126  0.00  0.00    +0.000 NA
ATOM     10  C   UNL     1      -9.412   1.557 132.358  0.00  0.00    +0.000 A 
ATOM     11  C   UNL     1      -9.279   0.359 131.636  0.00  0.00    +0.000 A 
ATOM     12  C   UNL     1      -8.104  -0.369 131.723  0.00  0.00    +0.000 A 
ATOM     13  N   UNL     1      -7.031   0.371 132.413  0.00  0.00    +0.000 NA
ATOM     14  H   UNL     1      -6.907   2.909 134.662  0.00  0.00    +0.000 HD
BRANCH  12  15
ATOM     15  C   UNL     1      -7.833  -1.782 130.640  0.00  0.00    +0.000 A 
ATOM     16  C   UNL     1      -7.195  -0.858 129.744  0.00  0.00    +0.000 A 
ATOM     17  N   UNL     1      -6.403  -1.756 129.073  0.00  0.00    +0.000 N 
ATOM     18  C   UNL     1      -5.499  -2.715 129.728  0.00  0.00    +0.000 C 
ATOM     19  C   UNL     1      -7.383  -2.141 128.213  0.00  0.00    +0.000 A 
ATOM     20  C   UNL     1      -8.205  -2.732 129.110  0.00  0.00    +0.000 A 
ATOM     21  C   UNL     1      -8.687  -3.868 128.138  0.00  0.00    +0.000 A 
ATOM     22  C   UNL     1      -8.866  -3.538 126.619  0.00  0.00    +0.000 A 
ATOM     23  C   UNL     1      -8.743  -2.269 126.212  0.00  0.00    +0.000 A 
ATOM     24  C   UNL     1      -8.038  -1.487 127.106  0.00  0.00    +0.000 A 
ENDBRANCH  12  15
ENDBRANCH   2   7
BRANCH   4  25
ATOM     25  N   UNL     1      -3.056   4.347 130.537  0.00  0.00    +0.000 N 
ATOM     26  C   UNL     1      -3.537   4.139 129.251  0.00  0.00    +0.000 C 
ATOM     27  O   UNL     1      -4.721   3.728 128.993  0.00  0.00    +0.000 OA
ATOM     28  H   UNL     1      -2.084   4.094 130.696  0.00  0.00    +0.000 HD
BRANCH  26  29
ATOM     29  C   UNL     1      -2.671   4.501 128.064  0.00  0.00    +0.000 C 
ATOM     30  C   UNL     1      -2.255   3.588 127.154  0.00  0.00    +0.000 C 
ENDBRANCH  26  29
ENDBRANCH   4  25
BRANCH   1  32
ATOM     31  C   UNL     1      -7.710   5.612 134.945  0.00  0.00    +0.000 C 
ATOM     32  O   UNL     1      -6.407   5.072 135.092  0.00  0.00    +0.000 OA
ENDBRANCH   1  32
BRANCH   5  33
ATOM     33  N   UNL     1      -3.831   7.123 131.602  0.00  0.00    +0.000 N 
ATOM     34  C   UNL     1      -4.247   7.699 130.343  0.00  0.00    +0.000 C 
BRANCH  33  35
ATOM     35  C   UNL     1      -2.808   7.877 132.339  0.00  0.00    +0.000 C 
BRANCH  35  36
ATOM     36  C   UNL     1      -1.422   7.203 132.301  0.00  0.00    +0.000 C 
BRANCH  36  37
ATOM     37  N   UNL     1      -0.847   6.878 133.610  0.00  0.00    +0.000 NA
ATOM     38  C   UNL     1       0.248   7.806 133.908  0.00  0.00    +0.000 C 
ATOM     39  C   UNL     1      -1.916   7.032 134.604  0.00  0.00    +0.000 C 
ENDBRANCH  36  37
ENDBRANCH  35  36
ENDBRANCH  33  35
ENDBRANCH   5  33
TORSDOF 9
ENDMDL
MODEL 7
REMARK VINA RESULT:      -8.0      4.041      6.134
REMARK  Name = Osimertinib
REMARK  14 active torsions:
REMARK  status: ('A' for Active; 'I' for Inactive)
REMARK    1  A    between atoms: C_1  and  O_2
REMARK    2  A    between atoms: O_2  and  C_3
REMARK    3  A    between atoms: C_4  and  N_5
REMARK    4  A    between atoms: C_10  and  C_12
REMARK    5  A    between atoms: N_14  and  C_15
REMARK    6  A    between atoms: C_23  and  N_24
REMARK    7  A    between atoms: C_25  and  C_27
REMARK    8  A    between atoms: C_29  and  N_31
REMARK    9  A    between atoms: N_31  and  C_32
REMARK   10  A    between atoms: N_31  and  C_33
REMARK   11  A    between atoms: C_33  and  C_34
REMARK   12  A    between atoms: C_34  and  N_35
REMARK   13  A    between atoms: N_35  and  C_36
REMARK   14  A    between atoms: N_35  and  C_37
REMARK                            x       y       z     vdW  Elec       q    Type
REMARK                         _______ _______ _______ _____ _____    ______ ____
ROOT
ATOM      1  C   UNL     1      -8.107   2.683 125.812  0.00  0.00    +0.000 A 
ATOM      2  C   UNL     1      -8.070   2.275 127.134  0.00  0.00    +0.000 A 
ATOM      3  C   UNL     1      -7.914   0.839 127.355  0.00  0.00    +0.000 A 
ATOM      4  C   UNL     1      -8.108  -0.148 126.303  0.00  0.00    +0.000 A 
ATOM      5  C   UNL     1      -8.206   0.323 124.957  0.00  0.00    +0.000 A 
ATOM      6  C   UNL     1      -8.204   1.739 124.783  0.00  0.00    +0.000 A 
ENDROOT
BRANCH   2   7
ATOM      7  N   UNL     1      -8.475   3.244 128.198  0.00  0.00    +0.000 N 
ATOM      8  C   UNL     1      -7.678   3.763 129.376  0.00  0.00    +0.000 A 
ATOM      9  N   UNL     1      -7.906   3.019 130.462  0.00  0.00    +0.000 NA
ATOM     10  C   UNL     1      -7.202   3.362 131.568  0.00  0.00    +0.000 A 
ATOM     11  C   UNL     1      -6.358   4.470 131.756  0.00  0.00    +0.000 A 
ATOM     12  C   UNL     1      -6.229   5.414 130.751  0.00  0.00    +0.000 A 
ATOM     13  N   UNL     1      -6.848   4.981 129.486  0.00  0.00    +0.000 NA
ATOM     14  H   UNL     1      -9.299   2.797 128.618  0.00  0.00    +0.000 HD
BRANCH  12  15
ATOM     15  C   UNL     1      -4.990   6.715 130.886  0.00  0.00    +0.000 A 
ATOM     16  C   UNL     1      -4.083   5.791 130.261  0.00  0.00    +0.000 A 
ATOM     17  N   UNL     1      -3.204   6.706 129.740  0.00  0.00    +0.000 N 
ATOM     18  C   UNL     1      -3.599   7.854 128.907  0.00  0.00    +0.000 C 
ATOM     19  C   UNL     1      -2.499   6.846 130.894  0.00  0.00    +0.000 A 
ATOM     20  C   UNL     1      -3.469   7.417 131.644  0.00  0.00    +0.000 A 
ATOM     21  C   UNL     1      -2.498   8.351 132.451  0.00  0.00    +0.000 A 
ATOM     22  C   UNL     1      -1.071   7.823 132.817  0.00  0.00    +0.000 A 
ATOM     23  C   UNL     1      -0.766   6.546 132.561  0.00  0.00    +0.000 A 
ATOM     24  C   UNL     1      -1.589   5.981 131.606  0.00  0.00    +0.000 A 
ENDBRANCH  12  15
ENDBRANCH   2   7
BRANCH   4  25
ATOM     25  N   UNL     1      -8.237  -1.578 126.654  0.00  0.00    +0.000 N 
ATOM     26  C   UNL     1      -7.532  -2.217 127.666  0.00  0.00    +0.000 C 
ATOM     27  O   UNL     1      -6.417  -1.794 128.131  0.00  0.00    +0.000 OA
ATOM     28  H   UNL     1      -8.703  -2.184 125.984  0.00  0.00    +0.000 HD
BRANCH  26  29
ATOM     29  C   UNL     1      -8.132  -3.429 128.343  0.00  0.00    +0.000 C 
ATOM     30  C   UNL     1      -9.274  -4.019 127.915  0.00  0.00    +0.000 C 
ENDBRANCH  26  29
ENDBRANCH   4  25
BRANCH   1  32
ATOM     31  C   UNL     1      -6.468   4.272 125.321  0.00  0.00    +0.000 C 
ATOM     32  O   UNL     1      -7.842   3.999 125.540  0.00  0.00    +0.000 OA
ENDBRANCH   1  32
BRANCH   5  33
ATOM     33  N   UNL     1      -8.176  -0.459 123.795  0.00  0.00    +0.000 N 
ATOM     34  C   UNL     1      -9.352  -0.808 123.030  0.00  0.00    +0.000 C 
BRANCH  33  35
ATOM     35  C   UNL     1      -6.908  -1.010 123.298  0.00  0.00    +0.000 C 
BRANCH  35  36
ATOM     36  C   UNL     1      -6.806  -2.538 123.479  0.00  0.00    +0.000 C 
BRANCH  36  37
ATOM     37  N   UNL     1      -5.814  -2.987 124.461  0.00  0.00    +0.000 NA
ATOM     38  C   UNL     1      -4.897  -3.941 123.828  0.00  0.00    +0.000 C 
ATOM     39  C   UNL     1      -5.072  -1.800 124.903  0.00  0.00    +0.000 C 
ENDBRANCH  36  37
ENDBRANCH  35  36
ENDBRANCH  33  35
ENDBRANCH   5  33
TORSDOF 9
ENDMDL
MODEL 8
REMARK VINA RESULT:      -7.8      4.594      9.155
REMARK  Name = Osimertinib
REMARK  14 active torsions:
REMARK  status: ('A' for Active; 'I' for Inactive)
REMARK    1  A    between atoms: C_1  and  O_2
REMARK    2  A    between atoms: O_2  and  C_3
REMARK    3  A    between atoms: C_4  and  N_5
REMARK    4  A    between atoms: C_10  and  C_12
REMARK    5  A    between atoms: N_14  and  C_15
REMARK    6  A    between atoms: C_23  and  N_24
REMARK    7  A    between atoms: C_25  and  C_27
REMARK    8  A    between atoms: C_29  and  N_31
REMARK    9  A    between atoms: N_31  and  C_32
REMARK   10  A    between atoms: N_31  and  C_33
REMARK   11  A    between atoms: C_33  and  C_34
REMARK   12  A    between atoms: C_34  and  N_35
REMARK   13  A    between atoms: N_35  and  C_36
REMARK   14  A    between atoms: N_35  and  C_37
REMARK                            x       y       z     vdW  Elec       q    Type
REMARK                         _______ _______ _______ _____ _____    ______ ____
ROOT
ATOM      1  C   UNL     1      -6.720   6.260 131.817  0.00  0.00    +0.000 A 
ATOM      2  C   UNL     1      -6.051   5.621 132.846  0.00  0.00    +0.000 A 
ATOM      3  C   UNL     1      -4.619   5.897 132.945  0.00  0.00    +0.000 A 
ATOM      4  C   UNL     1      -3.860   6.524 131.872  0.00  0.00    +0.000 A 
ATOM      5  C   UNL     1      -4.591   7.115 130.795  0.00  0.00    +0.000 A 
ATOM      6  C   UNL     1      -6.007   6.942 130.825  0.00  0.00    +0.000 A 
ENDROOT
BRANCH   2   7
ATOM      7  N   UNL     1      -6.738   4.510 133.572  0.00  0.00    +0.000 N 
ATOM      8  C   UNL     1      -7.567   3.370 133.017  0.00  0.00    +0.000 A 
ATOM      9  N   UNL     1      -8.864   3.693 133.010  0.00  0.00    +0.000 NA
ATOM     10  C   UNL     1      -9.698   2.764 132.483  0.00  0.00    +0.000 A 
ATOM     11  C   UNL     1      -9.393   1.459 132.058  0.00  0.00    +0.000 A 
ATOM     12  C   UNL     1      -8.111   0.963 132.227  0.00  0.00    +0.000 A 
ATOM     13  N   UNL     1      -7.152   2.003 132.640  0.00  0.00    +0.000 NA
ATOM     14  H   UNL     1      -7.372   5.005 134.210  0.00  0.00    +0.000 HD
BRANCH  12  15
ATOM     15  C   UNL     1      -7.648  -0.615 131.492  0.00  0.00    +0.000 A 
ATOM     16  C   UNL     1      -7.018   0.155 130.456  0.00  0.00    +0.000 A 
ATOM     17  N   UNL     1      -6.109  -0.785 130.041  0.00  0.00    +0.000 N 
ATOM     18  C   UNL     1      -5.184  -1.497 130.940  0.00  0.00    +0.000 C 
ATOM     19  C   UNL     1      -6.987  -1.432 129.230  0.00  0.00    +0.000 A 
ATOM     20  C   UNL     1      -7.825  -1.896 130.185  0.00  0.00    +0.000 A 
ATOM     21  C   UNL     1      -8.140  -3.250 129.455  0.00  0.00    +0.000 A 
ATOM     22  C   UNL     1      -8.228  -3.265 127.892  0.00  0.00    +0.000 A 
ATOM     23  C   UNL     1      -8.175  -2.105 127.229  0.00  0.00    +0.000 A 
ATOM     24  C   UNL     1      -7.604  -1.090 127.972  0.00  0.00    +0.000 A 
ENDBRANCH  12  15
ENDBRANCH   2   7
BRANCH   4  25
ATOM     25  N   UNL     1      -2.383   6.496 131.908  0.00  0.00    +0.000 N 
ATOM     26  C   UNL     1      -1.582   7.445 132.529  0.00  0.00    +0.000 C 
ATOM     27  O   UNL     1      -1.961   8.643 132.777  0.00  0.00    +0.000 OA
ATOM     28  H   UNL     1      -1.911   5.872 131.259  0.00  0.00    +0.000 HD
BRANCH  26  29
ATOM     29  C   UNL     1      -0.215   7.048 133.042  0.00  0.00    +0.000 C 
ATOM     30  C   UNL     1       0.245   7.410 134.263  0.00  0.00    +0.000 C 
ENDBRANCH  26  29
ENDBRANCH   4  25
BRANCH   1  32
ATOM     31  C   UNL     1      -8.735   6.472 130.656  0.00  0.00    +0.000 C 
ATOM     32  O   UNL     1      -8.082   6.374 131.911  0.00  0.00    +0.000 OA
ENDBRANCH   1  32
BRANCH   5  33
ATOM     33  N   UNL     1      -4.074   7.944 129.791  0.00  0.00    +0.000 N 
ATOM     34  C   UNL     1      -3.881   9.368 129.944  0.00  0.00    +0.000 C 
BRANCH  33  35
ATOM     35  C   UNL     1      -3.723   7.393 128.475  0.00  0.00    +0.000 C 
BRANCH  35  36
ATOM     36  C   UNL     1      -2.760   6.192 128.566  0.00  0.00    +0.000 C 
BRANCH  36  37
ATOM     37  N   UNL     1      -3.355   4.888 128.256  0.00  0.00    +0.000 NA
ATOM     38  C   UNL     1      -4.539   5.078 127.413  0.00  0.00    +0.000 C 
ATOM     39  C   UNL     1      -2.344   4.111 127.528  0.00  0.00    +0.000 C 
ENDBRANCH  36  37
ENDBRANCH  35  36
ENDBRANCH  33  35
ENDBRANCH   5  33
TORSDOF 9
ENDMDL
MODEL 9
REMARK VINA RESULT:      -7.8      4.141      6.028
REMARK  Name = Osimertinib
REMARK  14 active torsions:
REMARK  status: ('A' for Active; 'I' for Inactive)
REMARK    1  A    between atoms: C_1  and  O_2
REMARK    2  A    between atoms: O_2  and  C_3
REMARK    3  A    between atoms: C_4  and  N_5
REMARK    4  A    between atoms: C_10  and  C_12
REMARK    5  A    between atoms: N_14  and  C_15
REMARK    6  A    between atoms: C_23  and  N_24
REMARK    7  A    between atoms: C_25  and  C_27
REMARK    8  A    between atoms: C_29  and  N_31
REMARK    9  A    between atoms: N_31  and  C_32
REMARK   10  A    between atoms: N_31  and  C_33
REMARK   11  A    between atoms: C_33  and  C_34
REMARK   12  A    between atoms: C_34  and  N_35
REMARK   13  A    between atoms: N_35  and  C_36
REMARK   14  A    between atoms: N_35  and  C_37
REMARK                            x       y       z     vdW  Elec       q    Type
REMARK                         _______ _______ _______ _____ _____    ______ ____
ROOT
ATOM      1  C   UNL     1      -6.993   2.720 126.291  0.00  0.00    +0.000 A 
ATOM      2  C   UNL     1      -7.466   2.396 127.550  0.00  0.00    +0.000 A 
ATOM      3  C   UNL     1      -7.650   0.970 127.816  0.00  0.00    +0.000 A 
ATOM      4  C   UNL     1      -7.659  -0.035 126.762  0.00  0.00    +0.000 A 
ATOM      5  C   UNL     1      -7.224   0.361 125.460  0.00  0.00    +0.000 A 
ATOM      6  C   UNL     1      -6.913   1.743 125.292  0.00  0.00    +0.000 A 
ENDROOT
BRANCH   2   7
ATOM      7  N   UNL     1      -8.019   3.483 128.414  0.00  0.00    +0.000 N 
ATOM      8  C   UNL     1      -7.442   4.093 129.675  0.00  0.00    +0.000 A 
ATOM      9  N   UNL     1      -7.922   3.474 130.757  0.00  0.00    +0.000 NA
ATOM     10  C   UNL     1      -7.433   3.904 131.945  0.00  0.00    +0.000 A 
ATOM     11  C   UNL     1      -6.582   4.994 132.195  0.00  0.00    +0.000 A 
ATOM     12  C   UNL     1      -6.204   5.824 131.152  0.00  0.00    +0.000 A 
ATOM     13  N   UNL     1      -6.584   5.285 129.834  0.00  0.00    +0.000 NA
ATOM     14  H   UNL     1      -8.932   3.112 128.699  0.00  0.00    +0.000 HD
BRANCH  12  15
ATOM     15  C   UNL     1      -4.946   7.087 131.412  0.00  0.00    +0.000 A 
ATOM     16  C   UNL     1      -4.154   6.366 130.454  0.00  0.00    +0.000 A 
ATOM     17  N   UNL     1      -3.354   7.403 130.045  0.00  0.00    +0.000 N 
ATOM     18  C   UNL     1      -3.859   8.707 129.583  0.00  0.00    +0.000 C 
ATOM     19  C   UNL     1      -2.481   7.280 131.079  0.00  0.00    +0.000 A 
ATOM     20  C   UNL     1      -3.320   7.626 132.082  0.00  0.00    +0.000 A 
ATOM     21  C   UNL     1      -2.228   8.364 132.936  0.00  0.00    +0.000 A 
ATOM     22  C   UNL     1      -0.768   7.803 132.945  0.00  0.00    +0.000 A 
ATOM     23  C   UNL     1      -0.519   6.633 132.345  0.00  0.00    +0.000 A 
ATOM     24  C   UNL     1      -1.483   6.293 131.416  0.00  0.00    +0.000 A 
ENDBRANCH  12  15
ENDBRANCH   2   7
BRANCH   4  25
ATOM     25  N   UNL     1      -8.149  -1.398 127.055  0.00  0.00    +0.000 N 
ATOM     26  C   UNL     1      -7.439  -2.368 127.751  0.00  0.00    +0.000 C 
ATOM     27  O   UNL     1      -6.164  -2.374 127.860  0.00  0.00    +0.000 OA
ATOM     28  H   UNL     1      -8.959  -1.726 126.535  0.00  0.00    +0.000 HD
BRANCH  26  29
ATOM     29  C   UNL     1      -8.189  -3.437 128.515  0.00  0.00    +0.000 C 
ATOM     30  C   UNL     1      -9.235  -4.118 127.989  0.00  0.00    +0.000 C 
ENDBRANCH  26  29
ENDBRANCH   4  25
BRANCH   1  32
ATOM     31  C   UNL     1      -5.042   3.994 126.433  0.00  0.00    +0.000 C 
ATOM     32  O   UNL     1      -6.423   3.954 126.118  0.00  0.00    +0.000 OA
ENDBRANCH   1  32
BRANCH   5  33
ATOM     33  N   UNL     1      -6.953  -0.486 124.377  0.00  0.00    +0.000 N 
ATOM     34  C   UNL     1      -5.890  -1.465 124.367  0.00  0.00    +0.000 C 
BRANCH  33  35
ATOM     35  C   UNL     1      -7.743  -0.394 123.141  0.00  0.00    +0.000 C 
BRANCH  35  36
ATOM     36  C   UNL     1      -9.260  -0.526 123.387  0.00  0.00    +0.000 C 
BRANCH  36  37
ATOM     37  N   UNL     1     -10.046   0.682 123.120  0.00  0.00    +0.000 NA
ATOM     38  C   UNL     1     -10.506   1.257 124.388  0.00  0.00    +0.000 C 
ATOM     39  C   UNL     1      -9.162   1.632 122.434  0.00  0.00    +0.000 C 
ENDBRANCH  36  37
ENDBRANCH  35  36
ENDBRANCH  33  35
ENDBRANCH   5  33
TORSDOF 9
ENDMDL
