MODEL 1
REMARK VINA RESULT:      -7.0      0.000      0.000
REMARK  Name = Ospemifene
REMARK  9 active torsions:
REMARK  status: ('A' for Active; 'I' for Inactive)
REMARK    1  A    between atoms: O_1  and  C_2
REMARK    2  A    between atoms: C_2  and  C_3
REMARK    3  A    between atoms: C_3  and  O_4
REMARK    4  A    between atoms: O_4  and  C_5
REMARK    5  A    between atoms: C_8  and  C_11
REMARK    6  A    between atoms: C_11  and  C_22
REMARK    7  A    between atoms: C_12  and  C_13
REMARK    8  A    between atoms: C_12  and  C_16
REMARK    9  A    between atoms: C_13  and  C_14
REMARK                            x       y       z     vdW  Elec       q    Type
REMARK                         _______ _______ _______ _____ _____    ______ ____
ROOT
ATOM      1  C   UNL     1      -6.702   2.159 123.824  0.00  0.00    +0.000 C 
ATOM      2  C   UNL     1      -6.860   0.798 124.042  0.00  0.00    +0.000 C 
ENDROOT
BRANCH   1   6
ATOM      3  C   UNL     1      -5.403   4.647 127.127  0.00  0.00    +0.000 A 
ATOM      4  C   UNL     1      -4.505   4.249 126.169  0.00  0.00    +0.000 A 
ATOM      5  C   UNL     1      -4.964   3.690 124.982  0.00  0.00    +0.000 A 
ATOM      6  C   UNL     1      -6.263   3.177 124.873  0.00  0.00    +0.000 A 
ATOM      7  C   UNL     1      -7.168   3.645 125.832  0.00  0.00    +0.000 A 
ATOM      8  C   UNL     1      -6.762   4.422 126.919  0.00  0.00    +0.000 A 
BRANCH   3   9
ATOM      9  O   UNL     1      -4.875   5.353 128.160  0.00  0.00    +0.000 OA
BRANCH   9  10
ATOM     10  C   UNL     1      -3.509   5.708 128.002  0.00  0.00    +0.000 C 
BRANCH  10  11
ATOM     11  C   UNL     1      -3.394   7.189 128.302  0.00  0.00    +0.000 C 
BRANCH  11  12
ATOM     12  O   UNL     1      -4.481   7.595 129.118  0.00  0.00    +0.000 OA
ATOM     13  H   UNL     1      -5.179   7.906 128.518  0.00  0.00    +0.000 HD
ENDBRANCH  11  12
ENDBRANCH  10  11
ENDBRANCH   9  10
ENDBRANCH   3   9
ENDBRANCH   1   6
BRANCH   2  14
ATOM     14  C   UNL     1      -6.798   0.135 125.411  0.00  0.00    +0.000 A 
ATOM     15  C   UNL     1      -7.960  -0.239 126.110  0.00  0.00    +0.000 A 
ATOM     16  C   UNL     1      -7.888  -0.867 127.362  0.00  0.00    +0.000 A 
ATOM     17  C   UNL     1      -6.656  -1.261 127.876  0.00  0.00    +0.000 A 
ATOM     18  C   UNL     1      -5.495  -0.921 127.197  0.00  0.00    +0.000 A 
ATOM     19  C   UNL     1      -5.564  -0.137 126.036  0.00  0.00    +0.000 A 
ENDBRANCH   2  14
BRANCH   1  20
ATOM     20  C   UNL     1      -7.071   2.721 122.469  0.00  0.00    +0.000 A 
ATOM     21  C   UNL     1      -6.084   3.008 121.509  0.00  0.00    +0.000 A 
ATOM     22  C   UNL     1      -6.400   3.803 120.397  0.00  0.00    +0.000 A 
ATOM     23  C   UNL     1      -7.726   4.119 120.118  0.00  0.00    +0.000 A 
ATOM     24  C   UNL     1      -8.736   3.663 120.961  0.00  0.00    +0.000 A 
ATOM     25  C   UNL     1      -8.410   2.999 122.149  0.00  0.00    +0.000 A 
ENDBRANCH   1  20
BRANCH   2  26
ATOM     26  C   UNL     1      -7.153  -0.328 122.996  0.00  0.00    +0.000 C 
BRANCH  26  27
ATOM     27  C   UNL     1      -6.334  -1.607 122.992  0.00  0.00    +0.000 C 
ATOM     28 CL   UNL     1      -7.057  -2.978 123.854  0.00  0.00    +0.000 Cl
ENDBRANCH  26  27
ENDBRANCH   2  26
TORSDOF 9
ENDMDL
MODEL 2
REMARK VINA RESULT:      -7.0      1.221      2.002
REMARK  Name = Ospemifene
REMARK  9 active torsions:
REMARK  status: ('A' for Active; 'I' for Inactive)
REMARK    1  A    between atoms: O_1  and  C_2
REMARK    2  A    between atoms: C_2  and  C_3
REMARK    3  A    between atoms: C_3  and  O_4
REMARK    4  A    between atoms: O_4  and  C_5
REMARK    5  A    between atoms: C_8  and  C_11
REMARK    6  A    between atoms: C_11  and  C_22
REMARK    7  A    between atoms: C_12  and  C_13
REMARK    8  A    between atoms: C_12  and  C_16
REMARK    9  A    between atoms: C_13  and  C_14
REMARK                            x       y       z     vdW  Elec       q    Type
REMARK                         _______ _______ _______ _____ _____    ______ ____
ROOT
ATOM      1  C   UNL     1      -6.739   1.766 124.276  0.00  0.00    +0.000 C 
ATOM      2  C   UNL     1      -6.879   0.387 124.215  0.00  0.00    +0.000 C 
ENDROOT
BRANCH   1   6
ATOM      3  C   UNL     1      -5.484   4.415 127.469  0.00  0.00    +0.000 A 
ATOM      4  C   UNL     1      -6.818   4.213 127.225  0.00  0.00    +0.000 A 
ATOM      5  C   UNL     1      -7.219   3.172 126.397  0.00  0.00    +0.000 A 
ATOM      6  C   UNL     1      -6.323   2.557 125.514  0.00  0.00    +0.000 A 
ATOM      7  C   UNL     1      -4.970   2.736 125.821  0.00  0.00    +0.000 A 
ATOM      8  C   UNL     1      -4.547   3.608 126.827  0.00  0.00    +0.000 A 
BRANCH   3   9
ATOM      9  O   UNL     1      -5.201   5.327 128.435  0.00  0.00    +0.000 OA
BRANCH   9  10
ATOM     10  C   UNL     1      -3.823   5.452 128.751  0.00  0.00    +0.000 C 
BRANCH  10  11
ATOM     11  C   UNL     1      -3.357   6.786 128.204  0.00  0.00    +0.000 C 
BRANCH  11  12
ATOM     12  O   UNL     1      -1.948   6.766 128.037  0.00  0.00    +0.000 OA
ATOM     13  H   UNL     1      -1.575   6.433 128.869  0.00  0.00    +0.000 HD
ENDBRANCH  11  12
ENDBRANCH  10  11
ENDBRANCH   9  10
ENDBRANCH   3   9
ENDBRANCH   1   6
BRANCH   2  14
ATOM     14  C   UNL     1      -6.817  -0.538 125.423  0.00  0.00    +0.000 A 
ATOM     15  C   UNL     1      -5.680  -1.316 125.708  0.00  0.00    +0.000 A 
ATOM     16  C   UNL     1      -5.630  -2.148 126.834  0.00  0.00    +0.000 A 
ATOM     17  C   UNL     1      -6.655  -2.114 127.774  0.00  0.00    +0.000 A 
ATOM     18  C   UNL     1      -7.780  -1.341 127.528  0.00  0.00    +0.000 A 
ATOM     19  C   UNL     1      -7.904  -0.649 126.314  0.00  0.00    +0.000 A 
ENDBRANCH   2  14
BRANCH   1  20
ATOM     20  C   UNL     1      -7.107   2.585 123.059  0.00  0.00    +0.000 A 
ATOM     21  C   UNL     1      -8.452   2.833 122.732  0.00  0.00    +0.000 A 
ATOM     22  C   UNL     1      -8.784   3.319 121.458  0.00  0.00    +0.000 A 
ATOM     23  C   UNL     1      -7.785   3.768 120.599  0.00  0.00    +0.000 A 
ATOM     24  C   UNL     1      -6.453   3.711 121.001  0.00  0.00    +0.000 A 
ATOM     25  C   UNL     1      -6.111   3.091 122.207  0.00  0.00    +0.000 A 
ENDBRANCH   1  20
BRANCH   2  26
ATOM     26  C   UNL     1      -7.148  -0.509 122.960  0.00  0.00    +0.000 C 
BRANCH  26  27
ATOM     27  C   UNL     1      -8.415  -1.341 122.866  0.00  0.00    +0.000 C 
ATOM     28 CL   UNL     1      -9.891  -0.441 122.472  0.00  0.00    +0.000 Cl
ENDBRANCH  26  27
ENDBRANCH   2  26
TORSDOF 9
ENDMDL
MODEL 3
REMARK VINA RESULT:      -6.9      3.475      7.020
REMARK  Name = Ospemifene
REMARK  9 active torsions:
REMARK  status: ('A' for Active; 'I' for Inactive)
REMARK    1  A    between atoms: O_1  and  C_2
REMARK    2  A    between atoms: C_2  and  C_3
REMARK    3  A    between atoms: C_3  and  O_4
REMARK    4  A    between atoms: O_4  and  C_5
REMARK    5  A    between atoms: C_8  and  C_11
REMARK    6  A    between atoms: C_11  and  C_22
REMARK    7  A    between atoms: C_12  and  C_13
REMARK    8  A    between atoms: C_12  and  C_16
REMARK    9  A    between atoms: C_13  and  C_14
REMARK                            x       y       z     vdW  Elec       q    Type
REMARK                         _______ _______ _______ _____ _____    ______ ____
ROOT
ATOM      1  C   UNL     1      -7.752  -0.554 128.498  0.00  0.00    +0.000 C 
ATOM      2  C   UNL     1      -7.839  -1.901 128.180  0.00  0.00    +0.000 C 
ENDROOT
BRANCH   1   6
ATOM      3  C   UNL     1      -7.767   2.398 125.324  0.00  0.00    +0.000 A 
ATOM      4  C   UNL     1      -8.881   1.633 125.559  0.00  0.00    +0.000 A 
ATOM      5  C   UNL     1      -8.974   0.891 126.731  0.00  0.00    +0.000 A 
ATOM      6  C   UNL     1      -7.841   0.597 127.499  0.00  0.00    +0.000 A 
ATOM      7  C   UNL     1      -6.740   1.430 127.274  0.00  0.00    +0.000 A 
ATOM      8  C   UNL     1      -6.716   2.366 126.238  0.00  0.00    +0.000 A 
BRANCH   3   9
ATOM      9  O   UNL     1      -7.851   3.232 124.255  0.00  0.00    +0.000 OA
BRANCH   9  10
ATOM     10  C   UNL     1      -8.619   2.733 123.170  0.00  0.00    +0.000 C 
BRANCH  10  11
ATOM     11  C   UNL     1      -7.952   3.207 121.894  0.00  0.00    +0.000 C 
BRANCH  11  12
ATOM     12  O   UNL     1      -8.845   4.040 121.172  0.00  0.00    +0.000 OA
ATOM     13  H   UNL     1      -9.743   3.775 121.429  0.00  0.00    +0.000 HD
ENDBRANCH  11  12
ENDBRANCH  10  11
ENDBRANCH   9  10
ENDBRANCH   3   9
ENDBRANCH   1   6
BRANCH   2  14
ATOM     14  C   UNL     1      -7.853  -2.450 126.760  0.00  0.00    +0.000 A 
ATOM     15  C   UNL     1      -9.040  -2.880 126.139  0.00  0.00    +0.000 A 
ATOM     16  C   UNL     1      -9.042  -3.365 124.824  0.00  0.00    +0.000 A 
ATOM     17  C   UNL     1      -7.885  -3.298 124.054  0.00  0.00    +0.000 A 
ATOM     18  C   UNL     1      -6.704  -2.859 124.635  0.00  0.00    +0.000 A 
ATOM     19  C   UNL     1      -6.669  -2.545 126.002  0.00  0.00    +0.000 A 
ENDBRANCH   2  14
BRANCH   1  20
ATOM     20  C   UNL     1      -7.457  -0.167 129.930  0.00  0.00    +0.000 A 
ATOM     21  C   UNL     1      -6.134  -0.072 130.398  0.00  0.00    +0.000 A 
ATOM     22  C   UNL     1      -5.882  -0.018 131.777  0.00  0.00    +0.000 A 
ATOM     23  C   UNL     1      -6.931   0.170 132.672  0.00  0.00    +0.000 A 
ATOM     24  C   UNL     1      -8.234   0.280 132.195  0.00  0.00    +0.000 A 
ATOM     25  C   UNL     1      -8.501   0.078 130.837  0.00  0.00    +0.000 A 
ENDBRANCH   1  20
BRANCH   2  26
ATOM     26  C   UNL     1      -7.912  -3.127 129.150  0.00  0.00    +0.000 C 
BRANCH  26  27
ATOM     27  C   UNL     1      -6.649  -3.682 129.785  0.00  0.00    +0.000 C 
ATOM     28 CL   UNL     1      -6.557  -3.541 131.550  0.00  0.00    +0.000 Cl
ENDBRANCH  26  27
ENDBRANCH   2  26
TORSDOF 9
ENDMDL
MODEL 4
REMARK VINA RESULT:      -6.8      2.870      6.280
REMARK  Name = Ospemifene
REMARK  9 active torsions:
REMARK  status: ('A' for Active; 'I' for Inactive)
REMARK    1  A    between atoms: O_1  and  C_2
REMARK    2  A    between atoms: C_2  and  C_3
REMARK    3  A    between atoms: C_3  and  O_4
REMARK    4  A    between atoms: O_4  and  C_5
REMARK    5  A    between atoms: C_8  and  C_11
REMARK    6  A    between atoms: C_11  and  C_22
REMARK    7  A    between atoms: C_12  and  C_13
REMARK    8  A    between atoms: C_12  and  C_16
REMARK    9  A    between atoms: C_13  and  C_14
REMARK                            x       y       z     vdW  Elec       q    Type
REMARK                         _______ _______ _______ _____ _____    ______ ____
ROOT
ATOM      1  C   UNL     1      -7.540  -0.565 127.789  0.00  0.00    +0.000 C 
ATOM      2  C   UNL     1      -8.007  -0.981 126.550  0.00  0.00    +0.000 C 
ENDROOT
BRANCH   1   6
ATOM      3  C   UNL     1      -7.839   3.636 128.810  0.00  0.00    +0.000 A 
ATOM      4  C   UNL     1      -8.720   2.732 129.347  0.00  0.00    +0.000 A 
ATOM      5  C   UNL     1      -8.463   1.371 129.240  0.00  0.00    +0.000 A 
ATOM      6  C   UNL     1      -7.551   0.873 128.300  0.00  0.00    +0.000 A 
ATOM      7  C   UNL     1      -6.632   1.808 127.813  0.00  0.00    +0.000 A 
ATOM      8  C   UNL     1      -6.730   3.169 128.108  0.00  0.00    +0.000 A 
BRANCH   3   9
ATOM      9  O   UNL     1      -8.073   4.935 129.131  0.00  0.00    +0.000 OA
BRANCH   9  10
ATOM     10  C   UNL     1      -9.318   5.176 129.770  0.00  0.00    +0.000 C 
BRANCH  10  11
ATOM     11  C   UNL     1      -9.921   6.410 129.127  0.00  0.00    +0.000 C 
BRANCH  11  12
ATOM     12  O   UNL     1      -9.747   6.346 127.720  0.00  0.00    +0.000 OA
ATOM     13  H   UNL     1      -9.712   5.404 127.487  0.00  0.00    +0.000 HD
ENDBRANCH  11  12
ENDBRANCH  10  11
ENDBRANCH   9  10
ENDBRANCH   3   9
ENDBRANCH   1   6
BRANCH   2  14
ATOM     14  C   UNL     1      -8.434  -0.039 125.433  0.00  0.00    +0.000 A 
ATOM     15  C   UNL     1      -7.631   0.186 124.300  0.00  0.00    +0.000 A 
ATOM     16  C   UNL     1      -8.046   1.041 123.270  0.00  0.00    +0.000 A 
ATOM     17  C   UNL     1      -9.330   1.577 123.282  0.00  0.00    +0.000 A 
ATOM     18  C   UNL     1     -10.150   1.356 124.378  0.00  0.00    +0.000 A 
ATOM     19  C   UNL     1      -9.664   0.648 125.487  0.00  0.00    +0.000 A 
ENDBRANCH   2  14
BRANCH   1  20
ATOM     20  C   UNL     1      -6.881  -1.584 128.692  0.00  0.00    +0.000 A 
ATOM     21  C   UNL     1      -5.505  -1.857 128.595  0.00  0.00    +0.000 A 
ATOM     22  C   UNL     1      -4.974  -3.001 129.209  0.00  0.00    +0.000 A 
ATOM     23  C   UNL     1      -5.749  -3.742 130.096  0.00  0.00    +0.000 A 
ATOM     24  C   UNL     1      -7.062  -3.356 130.354  0.00  0.00    +0.000 A 
ATOM     25  C   UNL     1      -7.637  -2.306 129.631  0.00  0.00    +0.000 A 
ENDBRANCH   1  20
BRANCH   2  26
ATOM     26  C   UNL     1      -8.173  -2.441 126.013  0.00  0.00    +0.000 C 
BRANCH  26  27
ATOM     27  C   UNL     1      -9.498  -2.900 125.430  0.00  0.00    +0.000 C 
ATOM     28 CL   UNL     1      -9.506  -3.179 123.679  0.00  0.00    +0.000 Cl
ENDBRANCH  26  27
ENDBRANCH   2  26
TORSDOF 9
ENDMDL
MODEL 5
REMARK VINA RESULT:      -6.8      2.473      3.989
REMARK  Name = Ospemifene
REMARK  9 active torsions:
REMARK  status: ('A' for Active; 'I' for Inactive)
REMARK    1  A    between atoms: O_1  and  C_2
REMARK    2  A    between atoms: C_2  and  C_3
REMARK    3  A    between atoms: C_3  and  O_4
REMARK    4  A    between atoms: O_4  and  C_5
REMARK    5  A    between atoms: C_8  and  C_11
REMARK    6  A    between atoms: C_11  and  C_22
REMARK    7  A    between atoms: C_12  and  C_13
REMARK    8  A    between atoms: C_12  and  C_16
REMARK    9  A    between atoms: C_13  and  C_14
REMARK                            x       y       z     vdW  Elec       q    Type
REMARK                         _______ _______ _______ _____ _____    ______ ____
ROOT
ATOM      1  C   UNL     1      -6.427  -0.318 126.079  0.00  0.00    +0.000 C 
ATOM      2  C   UNL     1      -7.335  -0.720 127.047  0.00  0.00    +0.000 C 
ENDROOT
BRANCH   1   6
ATOM      3  C   UNL     1      -4.625   3.612 126.399  0.00  0.00    +0.000 A 
ATOM      4  C   UNL     1      -4.173   2.580 127.181  0.00  0.00    +0.000 A 
ATOM      5  C   UNL     1      -4.554   1.276 126.892  0.00  0.00    +0.000 A 
ATOM      6  C   UNL     1      -5.662   1.004 126.079  0.00  0.00    +0.000 A 
ATOM      7  C   UNL     1      -6.065   2.059 125.254  0.00  0.00    +0.000 A 
ATOM      8  C   UNL     1      -5.516   3.338 125.363  0.00  0.00    +0.000 A 
BRANCH   3   9
ATOM      9  O   UNL     1      -4.049   4.818 126.639  0.00  0.00    +0.000 OA
BRANCH   9  10
ATOM     10  C   UNL     1      -2.965   4.788 127.555  0.00  0.00    +0.000 C 
BRANCH  10  11
ATOM     11  C   UNL     1      -2.805   6.192 128.105  0.00  0.00    +0.000 C 
BRANCH  11  12
ATOM     12  O   UNL     1      -4.045   6.878 128.025  0.00  0.00    +0.000 OA
ATOM     13  H   UNL     1      -4.709   6.221 127.759  0.00  0.00    +0.000 HD
ENDBRANCH  11  12
ENDBRANCH  10  11
ENDBRANCH   9  10
ENDBRANCH   3   9
ENDBRANCH   1   6
BRANCH   2  14
ATOM     14  C   UNL     1      -7.849   0.174 128.167  0.00  0.00    +0.000 A 
ATOM     15  C   UNL     1      -7.698  -0.169 129.523  0.00  0.00    +0.000 A 
ATOM     16  C   UNL     1      -8.159   0.673 130.544  0.00  0.00    +0.000 A 
ATOM     17  C   UNL     1      -8.652   1.937 130.238  0.00  0.00    +0.000 A 
ATOM     18  C   UNL     1      -8.795   2.309 128.909  0.00  0.00    +0.000 A 
ATOM     19  C   UNL     1      -8.499   1.393 127.888  0.00  0.00    +0.000 A 
ENDBRANCH   2  14
BRANCH   1  20
ATOM     20  C   UNL     1      -6.223  -1.200 124.867  0.00  0.00    +0.000 A 
ATOM     21  C   UNL     1      -5.332  -2.288 124.905  0.00  0.00    +0.000 A 
ATOM     22  C   UNL     1      -4.924  -2.899 123.709  0.00  0.00    +0.000 A 
ATOM     23  C   UNL     1      -5.563  -2.589 122.512  0.00  0.00    +0.000 A 
ATOM     24  C   UNL     1      -6.594  -1.651 122.502  0.00  0.00    +0.000 A 
ATOM     25  C   UNL     1      -6.899  -0.935 123.665  0.00  0.00    +0.000 A 
ENDBRANCH   1  20
BRANCH   2  26
ATOM     26  C   UNL     1      -8.039  -2.108 127.203  0.00  0.00    +0.000 C 
BRANCH  26  27
ATOM     27  C   UNL     1      -9.107  -2.545 126.215  0.00  0.00    +0.000 C 
ATOM     28 CL   UNL     1      -8.617  -3.811 125.073  0.00  0.00    +0.000 Cl
ENDBRANCH  26  27
ENDBRANCH   2  26
TORSDOF 9
ENDMDL
MODEL 6
REMARK VINA RESULT:      -6.8      5.707      7.423
REMARK  Name = Ospemifene
REMARK  9 active torsions:
REMARK  status: ('A' for Active; 'I' for Inactive)
REMARK    1  A    between atoms: O_1  and  C_2
REMARK    2  A    between atoms: C_2  and  C_3
REMARK    3  A    between atoms: C_3  and  O_4
REMARK    4  A    between atoms: O_4  and  C_5
REMARK    5  A    between atoms: C_8  and  C_11
REMARK    6  A    between atoms: C_11  and  C_22
REMARK    7  A    between atoms: C_12  and  C_13
REMARK    8  A    between atoms: C_12  and  C_16
REMARK    9  A    between atoms: C_13  and  C_14
REMARK                            x       y       z     vdW  Elec       q    Type
REMARK                         _______ _______ _______ _____ _____    ______ ____
ROOT
ATOM      1  C   UNL     1      -7.059  -1.031 129.701  0.00  0.00    +0.000 C 
ATOM      2  C   UNL     1      -5.794  -1.281 130.213  0.00  0.00    +0.000 C 
ENDROOT
BRANCH   1   6
ATOM      3  C   UNL     1      -9.298   2.331 131.273  0.00  0.00    +0.000 A 
ATOM      4  C   UNL     1      -8.613   2.451 130.091  0.00  0.00    +0.000 A 
ATOM      5  C   UNL     1      -8.129   1.314 129.455  0.00  0.00    +0.000 A 
ATOM      6  C   UNL     1      -7.982   0.102 130.142  0.00  0.00    +0.000 A 
ATOM      7  C   UNL     1      -8.735  -0.010 131.315  0.00  0.00    +0.000 A 
ATOM      8  C   UNL     1      -9.439   1.071 131.852  0.00  0.00    +0.000 A 
BRANCH   3   9
ATOM      9  O   UNL     1      -9.896   3.467 131.716  0.00  0.00    +0.000 OA
BRANCH   9  10
ATOM     10  C   UNL     1     -10.519   4.245 130.705  0.00  0.00    +0.000 C 
BRANCH  10  11
ATOM     11  C   UNL     1     -10.639   5.659 131.238  0.00  0.00    +0.000 C 
BRANCH  11  12
ATOM     12  O   UNL     1     -11.867   5.801 131.934  0.00  0.00    +0.000 OA
ATOM     13  H   UNL     1     -11.693   6.391 132.686  0.00  0.00    +0.000 HD
ENDBRANCH  11  12
ENDBRANCH  10  11
ENDBRANCH   9  10
ENDBRANCH   3   9
ENDBRANCH   1   6
BRANCH   2  14
ATOM     14  C   UNL     1      -5.202  -0.575 131.424  0.00  0.00    +0.000 A 
ATOM     15  C   UNL     1      -4.331   0.522 131.295  0.00  0.00    +0.000 A 
ATOM     16  C   UNL     1      -3.809   1.176 132.419  0.00  0.00    +0.000 A 
ATOM     17  C   UNL     1      -4.256   0.839 133.693  0.00  0.00    +0.000 A 
ATOM     18  C   UNL     1      -5.130  -0.227 133.848  0.00  0.00    +0.000 A 
ATOM     19  C   UNL     1      -5.509  -0.992 132.735  0.00  0.00    +0.000 A 
ENDBRANCH   2  14
BRANCH   1  20
ATOM     20  C   UNL     1      -7.632  -1.995 128.685  0.00  0.00    +0.000 A 
ATOM     21  C   UNL     1      -7.520  -1.745 127.306  0.00  0.00    +0.000 A 
ATOM     22  C   UNL     1      -8.309  -2.470 126.399  0.00  0.00    +0.000 A 
ATOM     23  C   UNL     1      -9.028  -3.581 126.829  0.00  0.00    +0.000 A 
ATOM     24  C   UNL     1      -8.980  -3.957 128.169  0.00  0.00    +0.000 A 
ATOM     25  C   UNL     1      -8.316  -3.150 129.099  0.00  0.00    +0.000 A 
ENDBRANCH   1  20
BRANCH   2  26
ATOM     26  C   UNL     1      -4.731  -2.316 129.716  0.00  0.00    +0.000 C 
BRANCH  26  27
ATOM     27  C   UNL     1      -4.392  -3.535 130.555  0.00  0.00    +0.000 C 
ATOM     28 CL   UNL     1      -5.662  -4.769 130.656  0.00  0.00    +0.000 Cl
ENDBRANCH  26  27
ENDBRANCH   2  26
TORSDOF 9
ENDMDL
MODEL 7
REMARK VINA RESULT:      -6.7      5.589      9.625
REMARK  Name = Ospemifene
REMARK  9 active torsions:
REMARK  status: ('A' for Active; 'I' for Inactive)
REMARK    1  A    between atoms: O_1  and  C_2
REMARK    2  A    between atoms: C_2  and  C_3
REMARK    3  A    between atoms: C_3  and  O_4
REMARK    4  A    between atoms: O_4  and  C_5
REMARK    5  A    between atoms: C_8  and  C_11
REMARK    6  A    between atoms: C_11  and  C_22
REMARK    7  A    between atoms: C_12  and  C_13
REMARK    8  A    between atoms: C_12  and  C_16
REMARK    9  A    between atoms: C_13  and  C_14
REMARK                            x       y       z     vdW  Elec       q    Type
REMARK                         _______ _______ _______ _____ _____    ______ ____
ROOT
ATOM      1  C   UNL     1      -6.671  -2.255 130.291  0.00  0.00    +0.000 C 
ATOM      2  C   UNL     1      -6.365  -0.937 130.600  0.00  0.00    +0.000 C 
ENDROOT
BRANCH   1   6
ATOM      3  C   UNL     1      -8.867  -3.212 126.679  0.00  0.00    +0.000 A 
ATOM      4  C   UNL     1      -7.716  -2.470 126.609  0.00  0.00    +0.000 A 
ATOM      5  C   UNL     1      -6.875  -2.394 127.713  0.00  0.00    +0.000 A 
ATOM      6  C   UNL     1      -7.326  -2.730 128.996  0.00  0.00    +0.000 A 
ATOM      7  C   UNL     1      -8.470  -3.533 129.031  0.00  0.00    +0.000 A 
ATOM      8  C   UNL     1      -9.207  -3.827 127.882  0.00  0.00    +0.000 A 
BRANCH   3   9
ATOM      9  O   UNL     1      -9.520  -3.383 125.500  0.00  0.00    +0.000 OA
BRANCH   9  10
ATOM     10  C   UNL     1      -8.675  -3.528 124.368  0.00  0.00    +0.000 C 
BRANCH  10  11
ATOM     11  C   UNL     1      -9.457  -3.045 123.162  0.00  0.00    +0.000 C 
BRANCH  11  12
ATOM     12  O   UNL     1      -9.655  -1.643 123.255  0.00  0.00    +0.000 OA
ATOM     13  H   UNL     1      -9.272  -1.254 122.452  0.00  0.00    +0.000 HD
ENDBRANCH  11  12
ENDBRANCH  10  11
ENDBRANCH   9  10
ENDBRANCH   3   9
ENDBRANCH   1   6
BRANCH   2  14
ATOM     14  C   UNL     1      -6.803   0.263 129.772  0.00  0.00    +0.000 A 
ATOM     15  C   UNL     1      -8.117   0.763 129.823  0.00  0.00    +0.000 A 
ATOM     16  C   UNL     1      -8.502   1.881 129.070  0.00  0.00    +0.000 A 
ATOM     17  C   UNL     1      -7.550   2.607 128.362  0.00  0.00    +0.000 A 
ATOM     18  C   UNL     1      -6.242   2.147 128.310  0.00  0.00    +0.000 A 
ATOM     19  C   UNL     1      -5.901   0.930 128.918  0.00  0.00    +0.000 A 
ENDBRANCH   2  14
BRANCH   1  20
ATOM     20  C   UNL     1      -6.427  -3.318 131.339  0.00  0.00    +0.000 A 
ATOM     21  C   UNL     1      -7.090  -3.280 132.578  0.00  0.00    +0.000 A 
ATOM     22  C   UNL     1      -6.635  -4.077 133.639  0.00  0.00    +0.000 A 
ATOM     23  C   UNL     1      -5.682  -5.065 133.413  0.00  0.00    +0.000 A 
ATOM     24  C   UNL     1      -5.164  -5.244 132.132  0.00  0.00    +0.000 A 
ATOM     25  C   UNL     1      -5.506  -4.354 131.109  0.00  0.00    +0.000 A 
ENDBRANCH   1  20
BRANCH   2  26
ATOM     26  C   UNL     1      -5.562  -0.387 131.824  0.00  0.00    +0.000 C 
BRANCH  26  27
ATOM     27  C   UNL     1      -4.044  -0.441 131.837  0.00  0.00    +0.000 C 
ATOM     28 CL   UNL     1      -3.338  -1.862 132.631  0.00  0.00    +0.000 Cl
ENDBRANCH  26  27
ENDBRANCH   2  26
TORSDOF 9
ENDMDL
MODEL 8
REMARK VINA RESULT:      -6.7      4.661      7.241
REMARK  Name = Ospemifene
REMARK  9 active torsions:
REMARK  status: ('A' for Active; 'I' for Inactive)
REMARK    1  A    between atoms: O_1  and  C_2
REMARK    2  A    between atoms: C_2  and  C_3
REMARK    3  A    between atoms: C_3  and  O_4
REMARK    4  A    between atoms: O_4  and  C_5
REMARK    5  A    between atoms: C_8  and  C_11
REMARK    6  A    between atoms: C_11  and  C_22
REMARK    7  A    between atoms: C_12  and  C_13
REMARK    8  A    between atoms: C_12  and  C_16
REMARK    9  A    between atoms: C_13  and  C_14
REMARK                            x       y       z     vdW  Elec       q    Type
REMARK                         _______ _______ _______ _____ _____    ______ ____
ROOT
ATOM      1  C   UNL     1      -7.452  -1.570 127.256  0.00  0.00    +0.000 C 
ATOM      2  C   UNL     1      -7.773  -0.242 127.495  0.00  0.00    +0.000 C 
ENDROOT
BRANCH   1   6
ATOM      3  C   UNL     1      -5.212  -3.732 130.272  0.00  0.00    +0.000 A 
ATOM      4  C   UNL     1      -6.584  -3.756 130.283  0.00  0.00    +0.000 A 
ATOM      5  C   UNL     1      -7.291  -3.299 129.177  0.00  0.00    +0.000 A 
ATOM      6  C   UNL     1      -6.687  -2.480 128.214  0.00  0.00    +0.000 A 
ATOM      7  C   UNL     1      -5.289  -2.520 128.193  0.00  0.00    +0.000 A 
ATOM      8  C   UNL     1      -4.551  -3.187 129.173  0.00  0.00    +0.000 A 
BRANCH   3   9
ATOM      9  O   UNL     1      -4.612  -4.373 131.309  0.00  0.00    +0.000 OA
BRANCH   9  10
ATOM     10  C   UNL     1      -3.884  -3.529 132.188  0.00  0.00    +0.000 C 
BRANCH  10  11
ATOM     11  C   UNL     1      -3.468  -4.374 133.377  0.00  0.00    +0.000 C 
BRANCH  11  12
ATOM     12  O   UNL     1      -2.172  -4.905 133.151  0.00  0.00    +0.000 OA
ATOM     13  H   UNL     1      -1.540  -4.255 133.500  0.00  0.00    +0.000 HD
ENDBRANCH  11  12
ENDBRANCH  10  11
ENDBRANCH   9  10
ENDBRANCH   3   9
ENDBRANCH   1   6
BRANCH   2  14
ATOM     14  C   UNL     1      -7.252   0.570 128.673  0.00  0.00    +0.000 A 
ATOM     15  C   UNL     1      -8.061   0.874 129.783  0.00  0.00    +0.000 A 
ATOM     16  C   UNL     1      -7.563   1.606 130.870  0.00  0.00    +0.000 A 
ATOM     17  C   UNL     1      -6.210   1.926 130.935  0.00  0.00    +0.000 A 
ATOM     18  C   UNL     1      -5.385   1.621 129.862  0.00  0.00    +0.000 A 
ATOM     19  C   UNL     1      -5.927   1.049 128.701  0.00  0.00    +0.000 A 
ENDBRANCH   2  14
BRANCH   1  20
ATOM     20  C   UNL     1      -7.798  -2.167 125.910  0.00  0.00    +0.000 A 
ATOM     21  C   UNL     1      -6.919  -2.049 124.818  0.00  0.00    +0.000 A 
ATOM     22  C   UNL     1      -7.376  -2.328 123.520  0.00  0.00    +0.000 A 
ATOM     23  C   UNL     1      -8.615  -2.933 123.330  0.00  0.00    +0.000 A 
ATOM     24  C   UNL     1      -9.410  -3.239 124.432  0.00  0.00    +0.000 A 
ATOM     25  C   UNL     1      -9.021  -2.827 125.711  0.00  0.00    +0.000 A 
ENDBRANCH   1  20
BRANCH   2  26
ATOM     26  C   UNL     1      -8.678   0.709 126.643  0.00  0.00    +0.000 C 
BRANCH  26  27
ATOM     27  C   UNL     1      -8.057   1.689 125.662  0.00  0.00    +0.000 C 
ATOM     28 CL   UNL     1      -6.365   1.372 125.236  0.00  0.00    +0.000 Cl
ENDBRANCH  26  27
ENDBRANCH   2  26
TORSDOF 9
ENDMDL
MODEL 9
REMARK VINA RESULT:      -6.6      6.011      8.795
REMARK  Name = Ospemifene
REMARK  9 active torsions:
REMARK  status: ('A' for Active; 'I' for Inactive)
REMARK    1  A    between atoms: O_1  and  C_2
REMARK    2  A    between atoms: C_2  and  C_3
REMARK    3  A    between atoms: C_3  and  O_4
REMARK    4  A    between atoms: O_4  and  C_5
REMARK    5  A    between atoms: C_8  and  C_11
REMARK    6  A    between atoms: C_11  and  C_22
REMARK    7  A    between atoms: C_12  and  C_13
REMARK    8  A    between atoms: C_12  and  C_16
REMARK    9  A    between atoms: C_13  and  C_14
REMARK                            x       y       z     vdW  Elec       q    Type
REMARK                         _______ _______ _______ _____ _____    ______ ____
ROOT
ATOM      1  C   UNL     1      -7.454  -0.713 130.326  0.00  0.00    +0.000 C 
ATOM      2  C   UNL     1      -6.327  -1.076 131.048  0.00  0.00    +0.000 C 
ENDROOT
BRANCH   1   6
ATOM      3  C   UNL     1      -8.427  -2.869 126.693  0.00  0.00    +0.000 A 
ATOM      4  C   UNL     1      -8.573  -3.476 127.915  0.00  0.00    +0.000 A 
ATOM      5  C   UNL     1      -8.525  -2.712 129.075  0.00  0.00    +0.000 A 
ATOM      6  C   UNL     1      -7.971  -1.426 129.078  0.00  0.00    +0.000 A 
ATOM      7  C   UNL     1      -7.886  -0.813 127.823  0.00  0.00    +0.000 A 
ATOM      8  C   UNL     1      -8.167  -1.502 126.641  0.00  0.00    +0.000 A 
BRANCH   3   9
ATOM      9  O   UNL     1      -8.679  -3.661 125.618  0.00  0.00    +0.000 OA
BRANCH   9  10
ATOM     10  C   UNL     1      -7.906  -3.363 124.465  0.00  0.00    +0.000 C 
BRANCH  10  11
ATOM     11  C   UNL     1      -8.869  -2.911 123.385  0.00  0.00    +0.000 C 
BRANCH  11  12
ATOM     12  O   UNL     1     -10.138  -3.510 123.599  0.00  0.00    +0.000 OA
ATOM     13  H   UNL     1     -10.056  -4.439 123.327  0.00  0.00    +0.000 HD
ENDBRANCH  11  12
ENDBRANCH  10  11
ENDBRANCH   9  10
ENDBRANCH   3   9
ENDBRANCH   1   6
BRANCH   2  14
ATOM     14  C   UNL     1      -5.323  -2.131 130.603  0.00  0.00    +0.000 A 
ATOM     15  C   UNL     1      -4.173  -1.800 129.864  0.00  0.00    +0.000 A 
ATOM     16  C   UNL     1      -3.247  -2.779 129.478  0.00  0.00    +0.000 A 
ATOM     17  C   UNL     1      -3.377  -4.084 129.940  0.00  0.00    +0.000 A 
ATOM     18  C   UNL     1      -4.493  -4.434 130.687  0.00  0.00    +0.000 A 
ATOM     19  C   UNL     1      -5.506  -3.492 130.920  0.00  0.00    +0.000 A 
ENDBRANCH   2  14
BRANCH   1  20
ATOM     20  C   UNL     1      -8.202   0.537 130.732  0.00  0.00    +0.000 A 
ATOM     21  C   UNL     1      -9.214   0.492 131.707  0.00  0.00    +0.000 A 
ATOM     22  C   UNL     1     -10.096   1.574 131.850  0.00  0.00    +0.000 A 
ATOM     23  C   UNL     1      -9.841   2.775 131.196  0.00  0.00    +0.000 A 
ATOM     24  C   UNL     1      -8.718   2.892 130.380  0.00  0.00    +0.000 A 
ATOM     25  C   UNL     1      -7.923   1.770 130.120  0.00  0.00    +0.000 A 
ENDBRANCH   1  20
BRANCH   2  26
ATOM     26  C   UNL     1      -5.819  -0.501 132.412  0.00  0.00    +0.000 C 
BRANCH  26  27
ATOM     27  C   UNL     1      -6.376  -1.028 133.724  0.00  0.00    +0.000 C 
ATOM     28 CL   UNL     1      -7.648  -2.255 133.575  0.00  0.00    +0.000 Cl
ENDBRANCH  26  27
ENDBRANCH   2  26
TORSDOF 9
ENDMDL
