MODEL 1
REMARK VINA RESULT:      -5.6      0.000      0.000
REMARK  Name = Oteracil
REMARK  2 active torsions:
REMARK  status: ('A' for Active; 'I' for Inactive)
REMARK    1  A    between atoms: O_1  and  C_2
REMARK    2  A    between atoms: C_2  and  C_4
REMARK                            x       y       z     vdW  Elec       q    Type
REMARK                         _______ _______ _______ _____ _____    ______ ____
ROOT
ATOM      1  C   UNL     1     -11.307   7.506 127.857  0.00  0.00    +0.000 A 
ATOM      2  N   UNL     1     -11.335   6.538 128.706  0.00  0.00    +0.000 NA
ATOM      3  C   UNL     1     -11.894   6.786 129.936  0.00  0.00    +0.000 A 
ATOM      4  O   UNL     1     -11.902   5.953 130.831  0.00  0.00    +0.000 OA
ATOM      5  N   UNL     1     -12.468   8.006 130.155  0.00  0.00    +0.000 N 
ATOM      6  C   UNL     1     -12.504   8.997 129.236  0.00  0.00    +0.000 A 
ATOM      7  O   UNL     1     -13.089  10.056 129.435  0.00  0.00    +0.000 OA
ATOM      8  N   UNL     1     -11.863   8.732 128.073  0.00  0.00    +0.000 N 
ATOM      9  H   UNL     1     -12.901   8.161 131.053  0.00  0.00    +0.000 HD
ATOM     10  H   UNL     1     -11.820   9.464 127.374  0.00  0.00    +0.000 HD
ENDROOT
BRANCH   1  11
ATOM     11  C   UNL     1     -10.624   7.337 126.501  0.00  0.00    +0.000 C 
ATOM     12  O   UNL     1     -10.931   8.054 125.567  0.00  0.00    +0.000 OA
BRANCH  11  13
ATOM     13  O   UNL     1      -9.762   6.315 126.445  0.00  0.00    +0.000 OA
ATOM     14  H   UNL     1      -8.923   6.482 126.922  0.00  0.00    +0.000 HD
ENDBRANCH  11  13
ENDBRANCH   1  11
TORSDOF 2
ENDMDL
MODEL 2
REMARK VINA RESULT:      -5.5      1.068      3.721
REMARK  Name = Oteracil
REMARK  2 active torsions:
REMARK  status: ('A' for Active; 'I' for Inactive)
REMARK    1  A    between atoms: O_1  and  C_2
REMARK    2  A    between atoms: C_2  and  C_4
REMARK                            x       y       z     vdW  Elec       q    Type
REMARK                         _______ _______ _______ _____ _____    ______ ____
ROOT
ATOM      1  C   UNL     1     -11.877   7.062 129.841  0.00  0.00    +0.000 A 
ATOM      2  N   UNL     1     -12.589   8.023 130.320  0.00  0.00    +0.000 NA
ATOM      3  C   UNL     1     -12.650   9.190 129.598  0.00  0.00    +0.000 A 
ATOM      4  O   UNL     1     -13.240  10.180 130.006  0.00  0.00    +0.000 OA
ATOM      5  N   UNL     1     -12.035   9.235 128.380  0.00  0.00    +0.000 N 
ATOM      6  C   UNL     1     -11.350   8.199 127.844  0.00  0.00    +0.000 A 
ATOM      7  O   UNL     1     -10.869   8.242 126.717  0.00  0.00    +0.000 OA
ATOM      8  N   UNL     1     -11.247   7.103 128.632  0.00  0.00    +0.000 N 
ATOM      9  H   UNL     1     -12.115  10.089 127.850  0.00  0.00    +0.000 HD
ATOM     10  H   UNL     1     -10.700   6.321 128.294  0.00  0.00    +0.000 HD
ENDROOT
BRANCH   1  11
ATOM     11  C   UNL     1     -11.688   5.765 130.624  0.00  0.00    +0.000 C 
ATOM     12  O   UNL     1     -11.410   4.732 130.042  0.00  0.00    +0.000 OA
BRANCH  11  13
ATOM     13  O   UNL     1     -11.930   5.875 131.936  0.00  0.00    +0.000 OA
ATOM     14  H   UNL     1     -11.440   6.606 132.366  0.00  0.00    +0.000 HD
ENDBRANCH  11  13
ENDBRANCH   1  11
TORSDOF 2
ENDMDL
MODEL 3
REMARK VINA RESULT:      -5.5      0.959      3.448
REMARK  Name = Oteracil
REMARK  2 active torsions:
REMARK  status: ('A' for Active; 'I' for Inactive)
REMARK    1  A    between atoms: O_1  and  C_2
REMARK    2  A    between atoms: C_2  and  C_4
REMARK                            x       y       z     vdW  Elec       q    Type
REMARK                         _______ _______ _______ _____ _____    ______ ____
ROOT
ATOM      1  C   UNL     1     -11.704   6.848 129.620  0.00  0.00    +0.000 A 
ATOM      2  N   UNL     1     -11.123   6.897 128.472  0.00  0.00    +0.000 NA
ATOM      3  C   UNL     1     -11.304   8.029 127.714  0.00  0.00    +0.000 A 
ATOM      4  O   UNL     1     -10.852   8.137 126.583  0.00  0.00    +0.000 OA
ATOM      5  N   UNL     1     -12.006   9.067 128.254  0.00  0.00    +0.000 N 
ATOM      6  C   UNL     1     -12.553   9.044 129.491  0.00  0.00    +0.000 A 
ATOM      7  O   UNL     1     -13.117  10.018 129.978  0.00  0.00    +0.000 OA
ATOM      8  N   UNL     1     -12.421   7.875 130.161  0.00  0.00    +0.000 N 
ATOM      9  H   UNL     1     -12.104   9.902 127.697  0.00  0.00    +0.000 HD
ATOM     10  H   UNL     1     -12.858   7.794 131.070  0.00  0.00    +0.000 HD
ENDROOT
BRANCH   1  11
ATOM     11  C   UNL     1     -11.624   5.592 130.484  0.00  0.00    +0.000 C 
ATOM     12  O   UNL     1     -11.386   4.512 129.975  0.00  0.00    +0.000 OA
BRANCH  11  13
ATOM     13  O   UNL     1     -11.912   5.795 131.776  0.00  0.00    +0.000 OA
ATOM     14  H   UNL     1     -12.770   6.243 131.921  0.00  0.00    +0.000 HD
ENDBRANCH  11  13
ENDBRANCH   1  11
TORSDOF 2
ENDMDL
MODEL 4
REMARK VINA RESULT:      -5.4      1.669      4.058
REMARK  Name = Oteracil
REMARK  2 active torsions:
REMARK  status: ('A' for Active; 'I' for Inactive)
REMARK    1  A    between atoms: O_1  and  C_2
REMARK    2  A    between atoms: C_2  and  C_4
REMARK                            x       y       z     vdW  Elec       q    Type
REMARK                         _______ _______ _______ _____ _____    ______ ____
ROOT
ATOM      1  C   UNL     1     -13.024   9.116 129.500  0.00  0.00    +0.000 A 
ATOM      2  N   UNL     1     -12.921   8.579 128.334  0.00  0.00    +0.000 NA
ATOM      3  C   UNL     1     -12.511   7.269 128.269  0.00  0.00    +0.000 A 
ATOM      4  O   UNL     1     -12.315   6.697 127.206  0.00  0.00    +0.000 OA
ATOM      5  N   UNL     1     -12.325   6.588 129.437  0.00  0.00    +0.000 N 
ATOM      6  C   UNL     1     -12.506   7.131 130.663  0.00  0.00    +0.000 A 
ATOM      7  O   UNL     1     -12.402   6.475 131.694  0.00  0.00    +0.000 OA
ATOM      8  N   UNL     1     -12.826   8.447 130.672  0.00  0.00    +0.000 N 
ATOM      9  H   UNL     1     -12.054   5.619 129.372  0.00  0.00    +0.000 HD
ATOM     10  H   UNL     1     -12.921   8.909 131.568  0.00  0.00    +0.000 HD
ENDROOT
BRANCH   1  11
ATOM     11  C   UNL     1     -13.389  10.590 129.652  0.00  0.00    +0.000 C 
ATOM     12  O   UNL     1     -13.309  11.132 130.739  0.00  0.00    +0.000 OA
BRANCH  11  13
ATOM     13  O   UNL     1     -13.858  11.158 128.534  0.00  0.00    +0.000 OA
ATOM     14  H   UNL     1     -13.928  12.133 128.588  0.00  0.00    +0.000 HD
ENDBRANCH  11  13
ENDBRANCH   1  11
TORSDOF 2
ENDMDL
MODEL 5
REMARK VINA RESULT:      -5.4      0.883      2.650
REMARK  Name = Oteracil
REMARK  2 active torsions:
REMARK  status: ('A' for Active; 'I' for Inactive)
REMARK    1  A    between atoms: O_1  and  C_2
REMARK    2  A    between atoms: C_2  and  C_4
REMARK                            x       y       z     vdW  Elec       q    Type
REMARK                         _______ _______ _______ _____ _____    ______ ____
ROOT
ATOM      1  C   UNL     1     -11.720   7.534 128.380  0.00  0.00    +0.000 A 
ATOM      2  N   UNL     1     -12.134   8.753 128.349  0.00  0.00    +0.000 NA
ATOM      3  C   UNL     1     -12.786   9.232 129.460  0.00  0.00    +0.000 A 
ATOM      4  O   UNL     1     -13.277  10.351 129.498  0.00  0.00    +0.000 OA
ATOM      5  N   UNL     1     -12.875   8.426 130.559  0.00  0.00    +0.000 N 
ATOM      6  C   UNL     1     -12.373   7.172 130.616  0.00  0.00    +0.000 A 
ATOM      7  O   UNL     1     -12.405   6.498 131.640  0.00  0.00    +0.000 OA
ATOM      8  N   UNL     1     -11.819   6.717 129.468  0.00  0.00    +0.000 N 
ATOM      9  H   UNL     1     -13.329   8.805 131.376  0.00  0.00    +0.000 HD
ATOM     10  H   UNL     1     -11.476   5.765 129.447  0.00  0.00    +0.000 HD
ENDROOT
BRANCH   1  11
ATOM     11  C   UNL     1     -11.065   6.900 127.154  0.00  0.00    +0.000 C 
ATOM     12  O   UNL     1      -9.880   6.624 127.167  0.00  0.00    +0.000 OA
BRANCH  11  13
ATOM     13  O   UNL     1     -11.882   6.769 126.102  0.00  0.00    +0.000 OA
ATOM     14  H   UNL     1     -11.699   7.405 125.381  0.00  0.00    +0.000 HD
ENDBRANCH  11  13
ENDBRANCH   1  11
TORSDOF 2
ENDMDL
MODEL 6
REMARK VINA RESULT:      -5.3      1.779      2.272
REMARK  Name = Oteracil
REMARK  2 active torsions:
REMARK  status: ('A' for Active; 'I' for Inactive)
REMARK    1  A    between atoms: O_1  and  C_2
REMARK    2  A    between atoms: C_2  and  C_4
REMARK                            x       y       z     vdW  Elec       q    Type
REMARK                         _______ _______ _______ _____ _____    ______ ____
ROOT
ATOM      1  C   UNL     1     -11.138   6.764 128.914  0.00  0.00    +0.000 A 
ATOM      2  N   UNL     1     -10.565   5.651 129.216  0.00  0.00    +0.000 NA
ATOM      3  C   UNL     1     -10.799   5.132 130.466  0.00  0.00    +0.000 A 
ATOM      4  O   UNL     1     -10.245   4.120 130.869  0.00  0.00    +0.000 OA
ATOM      5  N   UNL     1     -11.691   5.772 131.278  0.00  0.00    +0.000 N 
ATOM      6  C   UNL     1     -12.350   6.901 130.931  0.00  0.00    +0.000 A 
ATOM      7  O   UNL     1     -13.198   7.414 131.653  0.00  0.00    +0.000 OA
ATOM      8  N   UNL     1     -12.018   7.418 129.725  0.00  0.00    +0.000 N 
ATOM      9  H   UNL     1     -11.874   5.362 132.181  0.00  0.00    +0.000 HD
ATOM     10  H   UNL     1     -12.448   8.291 129.444  0.00  0.00    +0.000 HD
ENDROOT
BRANCH   1  11
ATOM     11  C   UNL     1     -10.860   7.449 127.578  0.00  0.00    +0.000 C 
ATOM     12  O   UNL     1     -10.647   6.784 126.581  0.00  0.00    +0.000 OA
BRANCH  11  13
ATOM     13  O   UNL     1     -10.801   8.785 127.648  0.00  0.00    +0.000 OA
ATOM     14  H   UNL     1     -11.645   9.202 127.916  0.00  0.00    +0.000 HD
ENDBRANCH  11  13
ENDBRANCH   1  11
TORSDOF 2
ENDMDL
MODEL 7
REMARK VINA RESULT:      -4.9      2.481      4.071
REMARK  Name = Oteracil
REMARK  2 active torsions:
REMARK  status: ('A' for Active; 'I' for Inactive)
REMARK    1  A    between atoms: O_1  and  C_2
REMARK    2  A    between atoms: C_2  and  C_4
REMARK                            x       y       z     vdW  Elec       q    Type
REMARK                         _______ _______ _______ _____ _____    ______ ____
ROOT
ATOM      1  C   UNL     1     -10.642   5.061 130.240  0.00  0.00    +0.000 A 
ATOM      2  N   UNL     1     -10.003   5.830 129.429  0.00  0.00    +0.000 NA
ATOM      3  C   UNL     1     -10.482   7.105 129.248  0.00  0.00    +0.000 A 
ATOM      4  O   UNL     1      -9.986   7.882 128.445  0.00  0.00    +0.000 OA
ATOM      5  N   UNL     1     -11.545   7.512 130.002  0.00  0.00    +0.000 N 
ATOM      6  C   UNL     1     -12.170   6.728 130.910  0.00  0.00    +0.000 A 
ATOM      7  O   UNL     1     -13.076   7.143 131.624  0.00  0.00    +0.000 OA
ATOM      8  N   UNL     1     -11.714   5.455 130.986  0.00  0.00    +0.000 N 
ATOM      9  H   UNL     1     -11.866   8.461 129.879  0.00  0.00    +0.000 HD
ATOM     10  H   UNL     1     -12.185   4.817 131.615  0.00  0.00    +0.000 HD
ENDROOT
BRANCH   1  11
ATOM     11  C   UNL     1     -10.225   3.605 130.430  0.00  0.00    +0.000 C 
ATOM     12  O   UNL     1      -9.721   2.987 129.510  0.00  0.00    +0.000 OA
BRANCH  11  13
ATOM     13  O   UNL     1     -10.536   3.096 131.629  0.00  0.00    +0.000 OA
ATOM     14  H   UNL     1      -9.778   2.680 132.088  0.00  0.00    +0.000 HD
ENDBRANCH  11  13
ENDBRANCH   1  11
TORSDOF 2
ENDMDL
MODEL 8
REMARK VINA RESULT:      -4.9      2.847      4.580
REMARK  Name = Oteracil
REMARK  2 active torsions:
REMARK  status: ('A' for Active; 'I' for Inactive)
REMARK    1  A    between atoms: O_1  and  C_2
REMARK    2  A    between atoms: C_2  and  C_4
REMARK                            x       y       z     vdW  Elec       q    Type
REMARK                         _______ _______ _______ _____ _____    ______ ____
ROOT
ATOM      1  C   UNL     1     -10.000   6.407 131.690  0.00  0.00    +0.000 A 
ATOM      2  N   UNL     1     -11.250   6.377 131.995  0.00  0.00    +0.000 NA
ATOM      3  C   UNL     1     -12.125   7.032 131.162  0.00  0.00    +0.000 A 
ATOM      4  O   UNL     1     -13.320   7.119 131.407  0.00  0.00    +0.000 OA
ATOM      5  N   UNL     1     -11.636   7.594 130.018  0.00  0.00    +0.000 N 
ATOM      6  C   UNL     1     -10.332   7.560 129.660  0.00  0.00    +0.000 A 
ATOM      7  O   UNL     1      -9.932   8.011 128.592  0.00  0.00    +0.000 OA
ATOM      8  N   UNL     1      -9.500   6.980 130.557  0.00  0.00    +0.000 N 
ATOM      9  H   UNL     1     -12.296   8.044 129.402  0.00  0.00    +0.000 HD
ATOM     10  H   UNL     1      -8.508   6.977 130.356  0.00  0.00    +0.000 HD
ENDROOT
BRANCH   1  11
ATOM     11  C   UNL     1      -8.955   5.779 132.609  0.00  0.00    +0.000 C 
ATOM     12  O   UNL     1      -8.201   4.923 132.185  0.00  0.00    +0.000 OA
BRANCH  11  13
ATOM     13  O   UNL     1      -9.020   6.197 133.880  0.00  0.00    +0.000 OA
ATOM     14  H   UNL     1      -9.910   6.103 134.279  0.00  0.00    +0.000 HD
ENDBRANCH  11  13
ENDBRANCH   1  11
TORSDOF 2
ENDMDL
MODEL 9
REMARK VINA RESULT:      -4.8      2.895      3.933
REMARK  Name = Oteracil
REMARK  2 active torsions:
REMARK  status: ('A' for Active; 'I' for Inactive)
REMARK    1  A    between atoms: O_1  and  C_2
REMARK    2  A    between atoms: C_2  and  C_4
REMARK                            x       y       z     vdW  Elec       q    Type
REMARK                         _______ _______ _______ _____ _____    ______ ____
ROOT
ATOM      1  C   UNL     1     -11.982   6.372 130.173  0.00  0.00    +0.000 A 
ATOM      2  N   UNL     1     -11.798   5.180 129.723  0.00  0.00    +0.000 NA
ATOM      3  C   UNL     1     -10.882   4.388 130.373  0.00  0.00    +0.000 A 
ATOM      4  O   UNL     1     -10.586   3.270 129.976  0.00  0.00    +0.000 OA
ATOM      5  N   UNL     1     -10.292   4.872 131.505  0.00  0.00    +0.000 N 
ATOM      6  C   UNL     1     -10.544   6.096 132.021  0.00  0.00    +0.000 A 
ATOM      7  O   UNL     1     -10.054   6.476 133.079  0.00  0.00    +0.000 OA
ATOM      8  N   UNL     1     -11.386   6.868 131.295  0.00  0.00    +0.000 N 
ATOM      9  H   UNL     1      -9.646   4.266 131.987  0.00  0.00    +0.000 HD
ATOM     10  H   UNL     1     -11.564   7.812 131.615  0.00  0.00    +0.000 HD
ENDROOT
BRANCH   1  11
ATOM     11  C   UNL     1     -12.917   7.343 129.456  0.00  0.00    +0.000 C 
ATOM     12  O   UNL     1     -13.658   6.943 128.577  0.00  0.00    +0.000 OA
BRANCH  11  13
ATOM     13  O   UNL     1     -12.774   8.620 129.830  0.00  0.00    +0.000 OA
ATOM     14  H   UNL     1     -12.511   8.728 130.767  0.00  0.00    +0.000 HD
ENDBRANCH  11  13
ENDBRANCH   1  11
TORSDOF 2
ENDMDL
