MODEL 1
REMARK VINA RESULT:      -8.7      0.000      0.000
REMARK  Name = Ouabain
REMARK  14 active torsions:
REMARK  status: ('A' for Active; 'I' for Inactive)
REMARK    1  A    between atoms: C_5  and  O_6
REMARK    2  A    between atoms: C_8  and  O_33
REMARK    3  A    between atoms: C_10  and  O_11
REMARK    4  A    between atoms: C_12  and  C_13
REMARK    5  A    between atoms: C_13  and  O_14
REMARK    6  A    between atoms: C_17  and  O_18
REMARK    7  A    between atoms: C_20  and  C_21
REMARK    8  A    between atoms: C_22  and  C_27
REMARK    9  A    between atoms: C_25  and  O_26
REMARK   10  A    between atoms: O_33  and  C_34
REMARK   11  A    between atoms: C_36  and  C_37
REMARK   12  A    between atoms: C_38  and  O_39
REMARK   13  A    between atoms: C_40  and  O_41
REMARK   14  A    between atoms: C_42  and  O_43
REMARK                            x       y       z     vdW  Elec       q    Type
REMARK                         _______ _______ _______ _____ _____    ______ ____
ROOT
ATOM      1  C   UNL     1      -3.700   4.900 129.140  0.00  0.00    +0.000 C 
ATOM      2  C   UNL     1      -2.922   5.122 127.851  0.00  0.00    +0.000 C 
ATOM      3  C   UNL     1      -3.716   4.547 126.772  0.00  0.00    +0.000 C 
ATOM      4  C   UNL     1      -4.099   3.004 126.920  0.00  0.00    +0.000 C 
ATOM      5  C   UNL     1      -5.131   2.285 125.946  0.00  0.00    +0.000 C 
ATOM      6  C   UNL     1      -5.470   3.190 124.841  0.00  0.00    +0.000 C 
ATOM      7  C   UNL     1      -5.957   4.389 125.820  0.00  0.00    +0.000 C 
ATOM      8  C   UNL     1      -6.117   3.912 127.639  0.00  0.00    +0.000 C 
ATOM      9  C   UNL     1      -4.832   2.906 128.239  0.00  0.00    +0.000 C 
ATOM     10  C   UNL     1      -3.947   3.459 129.411  0.00  0.00    +0.000 C 
ATOM     11  C   UNL     1      -4.429   3.112 130.849  0.00  0.00    +0.000 C 
ATOM     12  C   UNL     1      -3.509   3.674 131.908  0.00  0.00    +0.000 C 
ATOM     13  C   UNL     1      -3.366   5.167 131.787  0.00  0.00    +0.000 C 
ATOM     14  C   UNL     1      -2.119   5.563 133.016  0.00  0.00    +0.000 C 
ATOM     15  C   UNL     1      -4.462   6.110 132.038  0.00  0.00    +0.000 C 
ATOM     16  C   UNL     1      -3.344   7.176 131.596  0.00  0.00    +0.000 C 
ATOM     17  C   UNL     1      -1.908   6.217 130.756  0.00  0.00    +0.000 C 
ATOM     18  C   UNL     1      -3.062   5.679 130.163  0.00  0.00    +0.000 C 
ENDROOT
BRANCH  15  19
ATOM     19  C   UNL     1      -5.095   5.900 133.378  0.00  0.00    +0.000 C 
ATOM     20  C   UNL     1      -6.291   5.363 133.587  0.00  0.00    +0.000 C 
ATOM     21  C   UNL     1      -6.615   5.566 134.974  0.00  0.00    +0.000 C 
ATOM     22  O   UNL     1      -7.745   5.305 135.459  0.00  0.00    +0.000 OA
ATOM     23  O   UNL     1      -5.572   6.088 135.637  0.00  0.00    +0.000 OA
ATOM     24  C   UNL     1      -4.525   6.356 134.690  0.00  0.00    +0.000 C 
ENDBRANCH  15  19
BRANCH   4  25
ATOM     25  O   UNL     1      -2.883   2.316 126.831  0.00  0.00    +0.000 OA
ATOM     26  H   UNL     1      -3.093   1.583 126.220  0.00  0.00    +0.000 HD
ENDBRANCH   4  25
BRANCH   8  27
ATOM     27  O   UNL     1      -7.337   3.282 128.016  0.00  0.00    +0.000 OA
ATOM     28  H   UNL     1      -7.931   3.986 128.344  0.00  0.00    +0.000 HD
ENDBRANCH   8  27
BRANCH  11  29
ATOM     29  O   UNL     1      -5.767   3.508 131.066  0.00  0.00    +0.000 OA
ATOM     30  H   UNL     1      -6.061   4.086 130.346  0.00  0.00    +0.000 HD
ENDBRANCH  11  29
BRANCH  18  31
ATOM     31  O   UNL     1      -3.180   7.007 129.403  0.00  0.00    +0.000 OA
ATOM     32  H   UNL     1      -4.130   7.286 129.356  0.00  0.00    +0.000 HD
ENDBRANCH  18  31
BRANCH   9  33
ATOM     33  C   UNL     1      -4.953   1.383 128.688  0.00  0.00    +0.000 C 
BRANCH  33  34
ATOM     34  O   UNL     1      -6.151   0.862 129.204  0.00  0.00    +0.000 OA
ATOM     35  H   UNL     1      -6.864   1.074 128.578  0.00  0.00    +0.000 HD
ENDBRANCH  33  34
ENDBRANCH   9  33
BRANCH   6  36
ATOM     36  O   UNL     1      -6.462   2.692 123.886  0.00  0.00    +0.000 OA
BRANCH  36  37
ATOM     37  C   UNL     1      -7.462   2.172 124.707  0.00  0.00    +0.000 C 
ATOM     38  O   UNL     1      -7.291   0.754 124.646  0.00  0.00    +0.000 OA
ATOM     39  C   UNL     1      -7.808   0.192 123.435  0.00  0.00    +0.000 C 
ATOM     40  C   UNL     1      -7.341  -1.232 123.168  0.00  0.00    +0.000 C 
ATOM     41  C   UNL     1      -9.282   0.164 123.721  0.00  0.00    +0.000 C 
ATOM     42  C   UNL     1      -9.736   1.610 123.960  0.00  0.00    +0.000 C 
ATOM     43  C   UNL     1      -8.919   2.314 125.012  0.00  0.00    +0.000 C 
BRANCH  41  44
ATOM     44  O   UNL     1      -9.999  -0.442 122.663  0.00  0.00    +0.000 OA
ATOM     45  H   UNL     1     -10.660  -1.023 123.073  0.00  0.00    +0.000 HD
ENDBRANCH  41  44
BRANCH  42  46
ATOM     46  O   UNL     1     -11.086   1.594 124.403  0.00  0.00    +0.000 OA
ATOM     47  H   UNL     1     -11.504   2.345 123.930  0.00  0.00    +0.000 HD
ENDBRANCH  42  46
BRANCH  43  48
ATOM     48  O   UNL     1      -9.103   1.575 126.286  0.00  0.00    +0.000 OA
ATOM     49  H   UNL     1     -10.019   1.784 126.600  0.00  0.00    +0.000 HD
ENDBRANCH  43  48
ENDBRANCH  36  37
ENDBRANCH   6  36
TORSDOF 12
ENDMDL
MODEL 2
REMARK VINA RESULT:      -8.5      4.234      8.233
REMARK  Name = Ouabain
REMARK  14 active torsions:
REMARK  status: ('A' for Active; 'I' for Inactive)
REMARK    1  A    between atoms: C_5  and  O_6
REMARK    2  A    between atoms: C_8  and  O_33
REMARK    3  A    between atoms: C_10  and  O_11
REMARK    4  A    between atoms: C_12  and  C_13
REMARK    5  A    between atoms: C_13  and  O_14
REMARK    6  A    between atoms: C_17  and  O_18
REMARK    7  A    between atoms: C_20  and  C_21
REMARK    8  A    between atoms: C_22  and  C_27
REMARK    9  A    between atoms: C_25  and  O_26
REMARK   10  A    between atoms: O_33  and  C_34
REMARK   11  A    between atoms: C_36  and  C_37
REMARK   12  A    between atoms: C_38  and  O_39
REMARK   13  A    between atoms: C_40  and  O_41
REMARK   14  A    between atoms: C_42  and  O_43
REMARK                            x       y       z     vdW  Elec       q    Type
REMARK                         _______ _______ _______ _____ _____    ______ ____
ROOT
ATOM      1  C   UNL     1      -6.360   1.281 130.168  0.00  0.00    +0.000 C 
ATOM      2  C   UNL     1      -5.593   2.096 131.200  0.00  0.00    +0.000 C 
ATOM      3  C   UNL     1      -6.309   3.356 131.361  0.00  0.00    +0.000 C 
ATOM      4  C   UNL     1      -6.529   4.219 130.037  0.00  0.00    +0.000 C 
ATOM      5  C   UNL     1      -7.467   5.504 130.002  0.00  0.00    +0.000 C 
ATOM      6  C   UNL     1      -7.886   5.838 131.369  0.00  0.00    +0.000 C 
ATOM      7  C   UNL     1      -8.509   4.368 131.660  0.00  0.00    +0.000 C 
ATOM      8  C   UNL     1      -8.640   3.248 130.147  0.00  0.00    +0.000 C 
ATOM      9  C   UNL     1      -7.264   3.302 129.086  0.00  0.00    +0.000 C 
ATOM     10  C   UNL     1      -6.457   1.975 128.856  0.00  0.00    +0.000 C 
ATOM     11  C   UNL     1      -6.917   1.098 127.657  0.00  0.00    +0.000 C 
ATOM     12  C   UNL     1      -6.074  -0.148 127.507  0.00  0.00    +0.000 C 
ATOM     13  C   UNL     1      -6.089  -0.984 128.758  0.00  0.00    +0.000 C 
ATOM     14  C   UNL     1      -4.905  -2.285 128.397  0.00  0.00    +0.000 C 
ATOM     15  C   UNL     1      -7.280  -1.679 129.256  0.00  0.00    +0.000 C 
ATOM     16  C   UNL     1      -6.277  -2.074 130.446  0.00  0.00    +0.000 C 
ATOM     17  C   UNL     1      -4.737  -0.932 130.327  0.00  0.00    +0.000 C 
ATOM     18  C   UNL     1      -5.820  -0.049 130.189  0.00  0.00    +0.000 C 
ENDROOT
BRANCH  15  19
ATOM     19  C   UNL     1      -7.904  -2.553 128.213  0.00  0.00    +0.000 C 
ATOM     20  C   UNL     1      -8.273  -2.158 126.999  0.00  0.00    +0.000 C 
ATOM     21  C   UNL     1      -9.037  -3.227 126.415  0.00  0.00    +0.000 C 
ATOM     22  O   UNL     1      -9.656  -3.112 125.327  0.00  0.00    +0.000 OA
ATOM     23  O   UNL     1      -9.012  -4.316 127.198  0.00  0.00    +0.000 OA
ATOM     24  C   UNL     1      -8.307  -3.986 128.405  0.00  0.00    +0.000 C 
ENDBRANCH  15  19
BRANCH   4  25
ATOM     25  O   UNL     1      -5.247   4.622 129.646  0.00  0.00    +0.000 OA
ATOM     26  H   UNL     1      -5.418   5.126 128.826  0.00  0.00    +0.000 HD
ENDBRANCH   4  25
BRANCH   8  27
ATOM     27  O   UNL     1      -9.791   3.432 129.329  0.00  0.00    +0.000 OA
ATOM     28  H   UNL     1     -10.343   4.114 129.762  0.00  0.00    +0.000 HD
ENDBRANCH   8  27
BRANCH  11  29
ATOM     29  O   UNL     1      -8.292   0.784 127.730  0.00  0.00    +0.000 OA
ATOM     30  H   UNL     1      -8.618   0.942 128.629  0.00  0.00    +0.000 HD
ENDBRANCH  11  29
BRANCH  18  31
ATOM     31  O   UNL     1      -6.068  -0.263 131.688  0.00  0.00    +0.000 OA
ATOM     32  H   UNL     1      -6.676  -1.035 131.822  0.00  0.00    +0.000 HD
ENDBRANCH  18  31
BRANCH   9  33
ATOM     33  C   UNL     1      -7.228   3.897 127.610  0.00  0.00    +0.000 C 
BRANCH  33  34
ATOM     34  O   UNL     1      -8.409   4.181 126.903  0.00  0.00    +0.000 OA
ATOM     35  H   UNL     1      -9.155   3.803 127.400  0.00  0.00    +0.000 HD
ENDBRANCH  33  34
ENDBRANCH   9  33
BRANCH   6  36
ATOM     36  O   UNL     1      -8.809   6.968 131.499  0.00  0.00    +0.000 OA
BRANCH  36  37
ATOM     37  C   UNL     1     -10.047   6.405 131.194  0.00  0.00    +0.000 C 
ATOM     38  O   UNL     1     -10.223   6.633 129.794  0.00  0.00    +0.000 OA
ATOM     39  C   UNL     1     -10.614   7.979 129.504  0.00  0.00    +0.000 C 
ATOM     40  C   UNL     1     -10.470   8.361 128.037  0.00  0.00    +0.000 C 
ATOM     41  C   UNL     1     -12.077   7.950 129.847  0.00  0.00    +0.000 C 
ATOM     42  C   UNL     1     -12.197   7.591 131.334  0.00  0.00    +0.000 C 
ATOM     43  C   UNL     1     -11.455   6.330 131.695  0.00  0.00    +0.000 C 
BRANCH  41  44
ATOM     44  O   UNL     1     -12.698   9.186 129.554  0.00  0.00    +0.000 OA
ATOM     45  H   UNL     1     -13.633   8.992 129.382  0.00  0.00    +0.000 HD
ENDBRANCH  41  44
BRANCH  42  46
ATOM     46  O   UNL     1     -13.568   7.385 131.641  0.00  0.00    +0.000 OA
ATOM     47  H   UNL     1     -13.554   6.880 132.482  0.00  0.00    +0.000 HD
ENDBRANCH  42  46
BRANCH  43  48
ATOM     48  O   UNL     1     -12.062   5.220 130.919  0.00  0.00    +0.000 OA
ATOM     49  H   UNL     1     -13.013   5.175 131.195  0.00  0.00    +0.000 HD
ENDBRANCH  43  48
ENDBRANCH  36  37
ENDBRANCH   6  36
TORSDOF 12
ENDMDL
MODEL 3
REMARK VINA RESULT:      -8.5      5.608      7.065
REMARK  Name = Ouabain
REMARK  14 active torsions:
REMARK  status: ('A' for Active; 'I' for Inactive)
REMARK    1  A    between atoms: C_5  and  O_6
REMARK    2  A    between atoms: C_8  and  O_33
REMARK    3  A    between atoms: C_10  and  O_11
REMARK    4  A    between atoms: C_12  and  C_13
REMARK    5  A    between atoms: C_13  and  O_14
REMARK    6  A    between atoms: C_17  and  O_18
REMARK    7  A    between atoms: C_20  and  C_21
REMARK    8  A    between atoms: C_22  and  C_27
REMARK    9  A    between atoms: C_25  and  O_26
REMARK   10  A    between atoms: O_33  and  C_34
REMARK   11  A    between atoms: C_36  and  C_37
REMARK   12  A    between atoms: C_38  and  O_39
REMARK   13  A    between atoms: C_40  and  O_41
REMARK   14  A    between atoms: C_42  and  O_43
REMARK                            x       y       z     vdW  Elec       q    Type
REMARK                         _______ _______ _______ _____ _____    ______ ____
ROOT
ATOM      1  C   UNL     1      -6.070  -1.924 127.563  0.00  0.00    +0.000 C 
ATOM      2  C   UNL     1      -5.209  -1.829 126.312  0.00  0.00    +0.000 C 
ATOM      3  C   UNL     1      -5.933  -0.993 125.362  0.00  0.00    +0.000 C 
ATOM      4  C   UNL     1      -7.406  -1.471 124.977  0.00  0.00    +0.000 C 
ATOM      5  C   UNL     1      -8.401  -0.567 124.126  0.00  0.00    +0.000 C 
ATOM      6  C   UNL     1      -7.681   0.609 123.623  0.00  0.00    +0.000 C 
ATOM      7  C   UNL     1      -7.189   1.082 125.095  0.00  0.00    +0.000 C 
ATOM      8  C   UNL     1      -7.989   0.157 126.533  0.00  0.00    +0.000 C 
ATOM      9  C   UNL     1      -8.149  -1.558 126.291  0.00  0.00    +0.000 C 
ATOM     10  C   UNL     1      -7.407  -2.516 127.288  0.00  0.00    +0.000 C 
ATOM     11  C   UNL     1      -8.221  -2.962 128.536  0.00  0.00    +0.000 C 
ATOM     12  C   UNL     1      -7.431  -3.891 129.428  0.00  0.00    +0.000 C 
ATOM     13  C   UNL     1      -6.142  -3.264 129.884  0.00  0.00    +0.000 C 
ATOM     14  C   UNL     1      -5.324  -4.598 130.766  0.00  0.00    +0.000 C 
ATOM     15  C   UNL     1      -6.076  -2.112 130.789  0.00  0.00    +0.000 C 
ATOM     16  C   UNL     1      -4.500  -2.278 130.522  0.00  0.00    +0.000 C 
ATOM     17  C   UNL     1      -4.275  -3.429 129.001  0.00  0.00    +0.000 C 
ATOM     18  C   UNL     1      -5.266  -2.522 128.590  0.00  0.00    +0.000 C 
ENDROOT
BRANCH  15  19
ATOM     19  C   UNL     1      -6.852  -2.334 132.050  0.00  0.00    +0.000 C 
ATOM     20  C   UNL     1      -6.763  -3.407 132.827  0.00  0.00    +0.000 C 
ATOM     21  C   UNL     1      -7.834  -3.332 133.784  0.00  0.00    +0.000 C 
ATOM     22  O   UNL     1      -8.118  -4.271 134.571  0.00  0.00    +0.000 OA
ATOM     23  O   UNL     1      -8.479  -2.160 133.689  0.00  0.00    +0.000 OA
ATOM     24  C   UNL     1      -7.927  -1.431 132.581  0.00  0.00    +0.000 C 
ENDBRANCH  15  19
BRANCH   4  25
ATOM     25  O   UNL     1      -7.230  -2.674 124.282  0.00  0.00    +0.000 OA
ATOM     26  H   UNL     1      -7.965  -3.225 124.613  0.00  0.00    +0.000 HD
ENDBRANCH   4  25
BRANCH   8  27
ATOM     27  O   UNL     1      -9.266   0.629 126.949  0.00  0.00    +0.000 OA
ATOM     28  H   UNL     1      -9.580   1.247 126.259  0.00  0.00    +0.000 HD
ENDBRANCH   8  27
BRANCH  11  29
ATOM     29  O   UNL     1      -8.724  -1.858 129.259  0.00  0.00    +0.000 OA
ATOM     30  H   UNL     1      -9.445  -2.146 129.840  0.00  0.00    +0.000 HD
ENDBRANCH  11  29
BRANCH  18  31
ATOM     31  O   UNL     1      -4.143  -1.480 128.496  0.00  0.00    +0.000 OA
ATOM     32  H   UNL     1      -4.417  -0.744 127.891  0.00  0.00    +0.000 HD
ENDBRANCH  18  31
BRANCH   9  33
ATOM     33  C   UNL     1      -9.507  -2.365 126.103  0.00  0.00    +0.000 C 
BRANCH  33  34
ATOM     34  O   UNL     1      -9.712  -3.213 125.002  0.00  0.00    +0.000 OA
ATOM     35  H   UNL     1     -10.671  -3.295 124.860  0.00  0.00    +0.000 HD
ENDBRANCH  33  34
ENDBRANCH   9  33
BRANCH   6  36
ATOM     36  O   UNL     1      -8.481   1.576 122.868  0.00  0.00    +0.000 OA
BRANCH  36  37
ATOM     37  C   UNL     1      -7.693   2.725 122.886  0.00  0.00    +0.000 C 
ATOM     38  O   UNL     1      -8.435   3.695 122.142  0.00  0.00    +0.000 OA
ATOM     39  C   UNL     1      -8.340   3.491 120.729  0.00  0.00    +0.000 C 
ATOM     40  C   UNL     1      -9.377   4.262 119.923  0.00  0.00    +0.000 C 
ATOM     41  C   UNL     1      -6.984   4.065 120.431  0.00  0.00    +0.000 C 
ATOM     42  C   UNL     1      -5.953   3.257 121.231  0.00  0.00    +0.000 C 
ATOM     43  C   UNL     1      -6.280   3.180 122.700  0.00  0.00    +0.000 C 
BRANCH  41  44
ATOM     44  O   UNL     1      -6.708   4.039 119.044  0.00  0.00    +0.000 OA
ATOM     45  H   UNL     1      -7.231   3.312 118.672  0.00  0.00    +0.000 HD
ENDBRANCH  41  44
BRANCH  42  46
ATOM     46  O   UNL     1      -4.686   3.887 121.105  0.00  0.00    +0.000 OA
ATOM     47  H   UNL     1      -4.104   3.187 120.739  0.00  0.00    +0.000 HD
ENDBRANCH  42  46
BRANCH  43  48
ATOM     48  O   UNL     1      -6.266   4.567 123.231  0.00  0.00    +0.000 OA
ATOM     49  H   UNL     1      -7.014   5.042 122.787  0.00  0.00    +0.000 HD
ENDBRANCH  43  48
ENDBRANCH  36  37
ENDBRANCH   6  36
TORSDOF 12
ENDMDL
MODEL 4
REMARK VINA RESULT:      -8.4      1.777      2.527
REMARK  Name = Ouabain
REMARK  14 active torsions:
REMARK  status: ('A' for Active; 'I' for Inactive)
REMARK    1  A    between atoms: C_5  and  O_6
REMARK    2  A    between atoms: C_8  and  O_33
REMARK    3  A    between atoms: C_10  and  O_11
REMARK    4  A    between atoms: C_12  and  C_13
REMARK    5  A    between atoms: C_13  and  O_14
REMARK    6  A    between atoms: C_17  and  O_18
REMARK    7  A    between atoms: C_20  and  C_21
REMARK    8  A    between atoms: C_22  and  C_27
REMARK    9  A    between atoms: C_25  and  O_26
REMARK   10  A    between atoms: O_33  and  C_34
REMARK   11  A    between atoms: C_36  and  C_37
REMARK   12  A    between atoms: C_38  and  O_39
REMARK   13  A    between atoms: C_40  and  O_41
REMARK   14  A    between atoms: C_42  and  O_43
REMARK                            x       y       z     vdW  Elec       q    Type
REMARK                         _______ _______ _______ _____ _____    ______ ____
ROOT
ATOM      1  C   UNL     1      -4.440   4.678 129.021  0.00  0.00    +0.000 C 
ATOM      2  C   UNL     1      -4.470   4.535 127.507  0.00  0.00    +0.000 C 
ATOM      3  C   UNL     1      -5.570   3.632 127.189  0.00  0.00    +0.000 C 
ATOM      4  C   UNL     1      -5.523   2.191 127.873  0.00  0.00    +0.000 C 
ATOM      5  C   UNL     1      -6.744   1.172 127.800  0.00  0.00    +0.000 C 
ATOM      6  C   UNL     1      -7.757   1.691 126.872  0.00  0.00    +0.000 C 
ATOM      7  C   UNL     1      -7.909   3.108 127.649  0.00  0.00    +0.000 C 
ATOM      8  C   UNL     1      -7.042   3.192 129.323  0.00  0.00    +0.000 C 
ATOM      9  C   UNL     1      -5.464   2.463 129.359  0.00  0.00    +0.000 C 
ATOM     10  C   UNL     1      -4.237   3.376 129.710  0.00  0.00    +0.000 C 
ATOM     11  C   UNL     1      -3.858   3.457 131.216  0.00  0.00    +0.000 C 
ATOM     12  C   UNL     1      -2.660   4.346 131.455  0.00  0.00    +0.000 C 
ATOM     13  C   UNL     1      -2.886   5.738 130.932  0.00  0.00    +0.000 C 
ATOM     14  C   UNL     1      -1.294   6.533 131.173  0.00  0.00    +0.000 C 
ATOM     15  C   UNL     1      -3.867   6.669 131.501  0.00  0.00    +0.000 C 
ATOM     16  C   UNL     1      -3.348   7.598 130.297  0.00  0.00    +0.000 C 
ATOM     17  C   UNL     1      -2.372   6.488 129.071  0.00  0.00    +0.000 C 
ATOM     18  C   UNL     1      -3.540   5.752 129.330  0.00  0.00    +0.000 C 
ENDROOT
BRANCH  15  19
ATOM     19  C   UNL     1      -3.691   6.846 132.977  0.00  0.00    +0.000 C 
ATOM     20  C   UNL     1      -4.387   6.213 133.915  0.00  0.00    +0.000 C 
ATOM     21  C   UNL     1      -4.078   6.840 135.172  0.00  0.00    +0.000 C 
ATOM     22  O   UNL     1      -4.686   6.571 136.240  0.00  0.00    +0.000 OA
ATOM     23  O   UNL     1      -3.099   7.745 135.028  0.00  0.00    +0.000 OA
ATOM     24  C   UNL     1      -2.775   7.838 133.632  0.00  0.00    +0.000 C 
ENDBRANCH  15  19
BRANCH   4  25
ATOM     25  O   UNL     1      -4.409   1.556 127.312  0.00  0.00    +0.000 OA
ATOM     26  H   UNL     1      -3.665   1.942 127.813  0.00  0.00    +0.000 HD
ENDBRANCH   4  25
BRANCH   8  27
ATOM     27  O   UNL     1      -7.763   2.656 130.429  0.00  0.00    +0.000 OA
ATOM     28  H   UNL     1      -7.580   1.696 130.450  0.00  0.00    +0.000 HD
ENDBRANCH   8  27
BRANCH  11  29
ATOM     29  O   UNL     1      -4.955   3.846 132.016  0.00  0.00    +0.000 OA
ATOM     30  H   UNL     1      -4.718   3.782 132.954  0.00  0.00    +0.000 HD
ENDBRANCH  11  29
BRANCH  18  31
ATOM     31  O   UNL     1      -4.274   6.787 128.466  0.00  0.00    +0.000 OA
ATOM     32  H   UNL     1      -4.640   6.349 127.656  0.00  0.00    +0.000 HD
ENDBRANCH  18  31
BRANCH   9  33
ATOM     33  C   UNL     1      -5.049   1.141 130.144  0.00  0.00    +0.000 C 
BRANCH  33  34
ATOM     34  O   UNL     1      -3.965   0.351 129.729  0.00  0.00    +0.000 OA
ATOM     35  H   UNL     1      -3.820   0.513 128.781  0.00  0.00    +0.000 HD
ENDBRANCH  33  34
ENDBRANCH   9  33
BRANCH   6  36
ATOM     36  O   UNL     1      -8.977   0.892 126.743  0.00  0.00    +0.000 OA
BRANCH  36  37
ATOM     37  C   UNL     1      -9.011   0.580 125.385  0.00  0.00    +0.000 C 
ATOM     38  O   UNL     1      -9.671  -0.686 125.312  0.00  0.00    +0.000 OA
ATOM     39  C   UNL     1      -8.813  -1.772 125.676  0.00  0.00    +0.000 C 
ATOM     40  C   UNL     1      -9.551  -3.075 125.954  0.00  0.00    +0.000 C 
ATOM     41  C   UNL     1      -7.997  -1.945 124.426  0.00  0.00    +0.000 C 
ATOM     42  C   UNL     1      -7.241  -0.632 124.181  0.00  0.00    +0.000 C 
ATOM     43  C   UNL     1      -8.148   0.571 124.162  0.00  0.00    +0.000 C 
BRANCH  41  44
ATOM     44  O   UNL     1      -7.114  -3.044 124.537  0.00  0.00    +0.000 OA
ATOM     45  H   UNL     1      -6.700  -2.980 125.412  0.00  0.00    +0.000 HD
ENDBRANCH  41  44
BRANCH  42  46
ATOM     46  O   UNL     1      -6.601  -0.707 122.916  0.00  0.00    +0.000 OA
ATOM     47  H   UNL     1      -5.901  -1.383 123.039  0.00  0.00    +0.000 HD
ENDBRANCH  42  46
BRANCH  43  48
ATOM     48  O   UNL     1      -9.102   0.392 123.040  0.00  0.00    +0.000 OA
ATOM     49  H   UNL     1      -9.464   1.291 122.834  0.00  0.00    +0.000 HD
ENDBRANCH  43  48
ENDBRANCH  36  37
ENDBRANCH   6  36
TORSDOF 12
ENDMDL
MODEL 5
REMARK VINA RESULT:      -8.3      1.534      2.261
REMARK  Name = Ouabain
REMARK  14 active torsions:
REMARK  status: ('A' for Active; 'I' for Inactive)
REMARK    1  A    between atoms: C_5  and  O_6
REMARK    2  A    between atoms: C_8  and  O_33
REMARK    3  A    between atoms: C_10  and  O_11
REMARK    4  A    between atoms: C_12  and  C_13
REMARK    5  A    between atoms: C_13  and  O_14
REMARK    6  A    between atoms: C_17  and  O_18
REMARK    7  A    between atoms: C_20  and  C_21
REMARK    8  A    between atoms: C_22  and  C_27
REMARK    9  A    between atoms: C_25  and  O_26
REMARK   10  A    between atoms: O_33  and  C_34
REMARK   11  A    between atoms: C_36  and  C_37
REMARK   12  A    between atoms: C_38  and  O_39
REMARK   13  A    between atoms: C_40  and  O_41
REMARK   14  A    between atoms: C_42  and  O_43
REMARK                            x       y       z     vdW  Elec       q    Type
REMARK                         _______ _______ _______ _____ _____    ______ ____
ROOT
ATOM      1  C   UNL     1      -4.096   4.782 128.824  0.00  0.00    +0.000 C 
ATOM      2  C   UNL     1      -3.918   4.793 127.312  0.00  0.00    +0.000 C 
ATOM      3  C   UNL     1      -4.874   3.837 126.767  0.00  0.00    +0.000 C 
ATOM      4  C   UNL     1      -4.773   2.343 127.317  0.00  0.00    +0.000 C 
ATOM      5  C   UNL     1      -5.868   1.236 126.986  0.00  0.00    +0.000 C 
ATOM      6  C   UNL     1      -6.800   1.759 125.980  0.00  0.00    +0.000 C 
ATOM      7  C   UNL     1      -7.189   3.070 126.854  0.00  0.00    +0.000 C 
ATOM      8  C   UNL     1      -6.556   3.055 128.631  0.00  0.00    +0.000 C 
ATOM      9  C   UNL     1      -4.931   2.464 128.816  0.00  0.00    +0.000 C 
ATOM     10  C   UNL     1      -3.854   3.438 129.413  0.00  0.00    +0.000 C 
ATOM     11  C   UNL     1      -3.681   3.396 130.957  0.00  0.00    +0.000 C 
ATOM     12  C   UNL     1      -2.616   4.355 131.437  0.00  0.00    +0.000 C 
ATOM     13  C   UNL     1      -2.910   5.770 131.017  0.00  0.00    +0.000 C 
ATOM     14  C   UNL     1      -1.448   6.669 131.543  0.00  0.00    +0.000 C 
ATOM     15  C   UNL     1      -4.042   6.549 131.528  0.00  0.00    +0.000 C 
ATOM     16  C   UNL     1      -3.469   7.638 130.496  0.00  0.00    +0.000 C 
ATOM     17  C   UNL     1      -2.240   6.748 129.319  0.00  0.00    +0.000 C 
ATOM     18  C   UNL     1      -3.352   5.892 129.349  0.00  0.00    +0.000 C 
ENDROOT
BRANCH  15  19
ATOM     19  C   UNL     1      -4.074   6.587 133.024  0.00  0.00    +0.000 C 
ATOM     20  C   UNL     1      -4.979   5.986 133.789  0.00  0.00    +0.000 C 
ATOM     21  C   UNL     1      -4.792   6.468 135.132  0.00  0.00    +0.000 C 
ATOM     22  O   UNL     1      -5.585   6.204 136.071  0.00  0.00    +0.000 OA
ATOM     23  O   UNL     1      -3.697   7.238 135.216  0.00  0.00    +0.000 OA
ATOM     24  C   UNL     1      -3.153   7.392 133.895  0.00  0.00    +0.000 C 
ENDBRANCH  15  19
BRANCH   4  25
ATOM     25  O   UNL     1      -3.539   1.866 126.858  0.00  0.00    +0.000 OA
ATOM     26  H   UNL     1      -3.565   2.079 125.905  0.00  0.00    +0.000 HD
ENDBRANCH   4  25
BRANCH   8  27
ATOM     27  O   UNL     1      -7.355   2.349 129.575  0.00  0.00    +0.000 OA
ATOM     28  H   UNL     1      -7.003   2.562 130.462  0.00  0.00    +0.000 HD
ENDBRANCH   8  27
BRANCH  11  29
ATOM     29  O   UNL     1      -4.904   3.606 131.632  0.00  0.00    +0.000 OA
ATOM     30  H   UNL     1      -5.357   2.758 131.763  0.00  0.00    +0.000 HD
ENDBRANCH  11  29
BRANCH  18  31
ATOM     31  O   UNL     1      -4.069   6.943 128.490  0.00  0.00    +0.000 OA
ATOM     32  H   UNL     1      -3.488   7.211 127.732  0.00  0.00    +0.000 HD
ENDBRANCH  18  31
BRANCH   9  33
ATOM     33  C   UNL     1      -4.491   1.109 129.527  0.00  0.00    +0.000 C 
BRANCH  33  34
ATOM     34  O   UNL     1      -5.374   0.390 130.349  0.00  0.00    +0.000 OA
ATOM     35  H   UNL     1      -4.854  -0.260 130.852  0.00  0.00    +0.000 HD
ENDBRANCH  33  34
ENDBRANCH   9  33
BRANCH   6  36
ATOM     36  O   UNL     1      -7.909   0.875 125.613  0.00  0.00    +0.000 OA
BRANCH  36  37
ATOM     37  C   UNL     1      -7.297  -0.088 124.813  0.00  0.00    +0.000 C 
ATOM     38  O   UNL     1      -7.939   0.025 123.541  0.00  0.00    +0.000 OA
ATOM     39  C   UNL     1      -9.232  -0.589 123.524  0.00  0.00    +0.000 C 
ATOM     40  C   UNL     1     -10.087  -0.194 122.327  0.00  0.00    +0.000 C 
ATOM     41  C   UNL     1      -8.874  -2.043 123.394  0.00  0.00    +0.000 C 
ATOM     42  C   UNL     1      -8.038  -2.426 124.622  0.00  0.00    +0.000 C 
ATOM     43  C   UNL     1      -6.854  -1.517 124.831  0.00  0.00    +0.000 C 
BRANCH  41  44
ATOM     44  O   UNL     1     -10.031  -2.848 123.276  0.00  0.00    +0.000 OA
ATOM     45  H   UNL     1      -9.906  -3.398 122.487  0.00  0.00    +0.000 HD
ENDBRANCH  41  44
BRANCH  42  46
ATOM     46  O   UNL     1      -7.540  -3.743 124.439  0.00  0.00    +0.000 OA
ATOM     47  H   UNL     1      -8.341  -4.280 124.256  0.00  0.00    +0.000 HD
ENDBRANCH  42  46
BRANCH  43  48
ATOM     48  O   UNL     1      -5.978  -1.646 123.640  0.00  0.00    +0.000 OA
ATOM     49  H   UNL     1      -5.748  -0.723 123.362  0.00  0.00    +0.000 HD
ENDBRANCH  43  48
ENDBRANCH  36  37
ENDBRANCH   6  36
TORSDOF 12
ENDMDL
MODEL 6
REMARK VINA RESULT:      -8.2      3.102      9.700
REMARK  Name = Ouabain
REMARK  14 active torsions:
REMARK  status: ('A' for Active; 'I' for Inactive)
REMARK    1  A    between atoms: C_5  and  O_6
REMARK    2  A    between atoms: C_8  and  O_33
REMARK    3  A    between atoms: C_10  and  O_11
REMARK    4  A    between atoms: C_12  and  C_13
REMARK    5  A    between atoms: C_13  and  O_14
REMARK    6  A    between atoms: C_17  and  O_18
REMARK    7  A    between atoms: C_20  and  C_21
REMARK    8  A    between atoms: C_22  and  C_27
REMARK    9  A    between atoms: C_25  and  O_26
REMARK   10  A    between atoms: O_33  and  C_34
REMARK   11  A    between atoms: C_36  and  C_37
REMARK   12  A    between atoms: C_38  and  O_39
REMARK   13  A    between atoms: C_40  and  O_41
REMARK   14  A    between atoms: C_42  and  O_43
REMARK                            x       y       z     vdW  Elec       q    Type
REMARK                         _______ _______ _______ _____ _____    ______ ____
ROOT
ATOM      1  C   UNL     1      -7.527  -1.312 127.629  0.00  0.00    +0.000 C 
ATOM      2  C   UNL     1      -7.255  -2.327 128.730  0.00  0.00    +0.000 C 
ATOM      3  C   UNL     1      -7.249  -1.593 129.990  0.00  0.00    +0.000 C 
ATOM      4  C   UNL     1      -6.215  -0.381 130.097  0.00  0.00    +0.000 C 
ATOM      5  C   UNL     1      -6.228   0.646 131.312  0.00  0.00    +0.000 C 
ATOM      6  C   UNL     1      -7.163   0.171 132.341  0.00  0.00    +0.000 C 
ATOM      7  C   UNL     1      -8.421   0.083 131.321  0.00  0.00    +0.000 C 
ATOM      8  C   UNL     1      -8.125   0.860 129.627  0.00  0.00    +0.000 C 
ATOM      9  C   UNL     1      -6.560   0.534 128.943  0.00  0.00    +0.000 C 
ATOM     10  C   UNL     1      -6.496  -0.240 127.580  0.00  0.00    +0.000 C 
ATOM     11  C   UNL     1      -6.494   0.640 126.298  0.00  0.00    +0.000 C 
ATOM     12  C   UNL     1      -6.417  -0.191 125.037  0.00  0.00    +0.000 C 
ATOM     13  C   UNL     1      -7.550  -1.177 124.951  0.00  0.00    +0.000 C 
ATOM     14  C   UNL     1      -7.147  -2.139 123.488  0.00  0.00    +0.000 C 
ATOM     15  C   UNL     1      -8.953  -0.788 124.777  0.00  0.00    +0.000 C 
ATOM     16  C   UNL     1      -9.173  -2.375 124.889  0.00  0.00    +0.000 C 
ATOM     17  C   UNL     1      -7.559  -3.150 125.584  0.00  0.00    +0.000 C 
ATOM     18  C   UNL     1      -7.790  -2.049 126.425  0.00  0.00    +0.000 C 
ENDROOT
BRANCH  15  19
ATOM     19  C   UNL     1      -9.150   0.115 123.599  0.00  0.00    +0.000 C 
ATOM     20  C   UNL     1      -8.598   1.313 123.449  0.00  0.00    +0.000 C 
ATOM     21  C   UNL     1      -9.227   1.935 122.315  0.00  0.00    +0.000 C 
ATOM     22  O   UNL     1      -9.034   3.136 121.996  0.00  0.00    +0.000 OA
ATOM     23  O   UNL     1     -10.047   1.075 121.691  0.00  0.00    +0.000 OA
ATOM     24  C   UNL     1     -10.081  -0.144 122.450  0.00  0.00    +0.000 C 
ENDBRANCH  15  19
BRANCH   4  25
ATOM     25  O   UNL     1      -4.949  -0.977 130.061  0.00  0.00    +0.000 OA
ATOM     26  H   UNL     1      -4.820  -1.270 130.984  0.00  0.00    +0.000 HD
ENDBRANCH   4  25
BRANCH   8  27
ATOM     27  O   UNL     1      -8.321   2.268 129.540  0.00  0.00    +0.000 OA
ATOM     28  H   UNL     1      -7.440   2.684 129.630  0.00  0.00    +0.000 HD
ENDBRANCH   8  27
BRANCH  11  29
ATOM     29  O   UNL     1      -7.592   1.526 126.264  0.00  0.00    +0.000 OA
ATOM     30  H   UNL     1      -8.198   1.273 125.549  0.00  0.00    +0.000 HD
ENDBRANCH  11  29
BRANCH  18  31
ATOM     31  O   UNL     1      -8.940  -2.868 127.027  0.00  0.00    +0.000 OA
ATOM     32  H   UNL     1      -8.738  -3.089 127.972  0.00  0.00    +0.000 HD
ENDBRANCH  18  31
BRANCH   9  33
ATOM     33  C   UNL     1      -5.390   1.588 128.709  0.00  0.00    +0.000 C 
BRANCH  33  34
ATOM     34  O   UNL     1      -4.041   1.198 128.699  0.00  0.00    +0.000 OA
ATOM     35  H   UNL     1      -3.977   0.326 129.126  0.00  0.00    +0.000 HD
ENDBRANCH  33  34
ENDBRANCH   9  33
BRANCH   6  36
ATOM     36  O   UNL     1      -7.333   1.045 133.503  0.00  0.00    +0.000 OA
BRANCH  36  37
ATOM     37  C   UNL     1      -7.611   2.285 132.932  0.00  0.00    +0.000 C 
ATOM     38  O   UNL     1      -6.591   3.157 133.425  0.00  0.00    +0.000 OA
ATOM     39  C   UNL     1      -6.833   3.575 134.773  0.00  0.00    +0.000 C 
ATOM     40  C   UNL     1      -5.622   4.202 135.452  0.00  0.00    +0.000 C 
ATOM     41  C   UNL     1      -7.873   4.641 134.577  0.00  0.00    +0.000 C 
ATOM     42  C   UNL     1      -9.093   3.982 133.918  0.00  0.00    +0.000 C 
ATOM     43  C   UNL     1      -8.744   3.225 132.663  0.00  0.00    +0.000 C 
BRANCH  41  44
ATOM     44  O   UNL     1      -8.211   5.261 135.802  0.00  0.00    +0.000 OA
ATOM     45  H   UNL     1      -8.319   4.549 136.452  0.00  0.00    +0.000 HD
ENDBRANCH  41  44
BRANCH  42  46
ATOM     46  O   UNL     1     -10.020   4.998 133.563  0.00  0.00    +0.000 OA
ATOM     47  H   UNL     1      -9.519   5.578 132.950  0.00  0.00    +0.000 HD
ENDBRANCH  42  46
BRANCH  43  48
ATOM     48  O   UNL     1      -8.189   4.203 131.693  0.00  0.00    +0.000 OA
ATOM     49  H   UNL     1      -7.216   4.255 131.875  0.00  0.00    +0.000 HD
ENDBRANCH  43  48
ENDBRANCH  36  37
ENDBRANCH   6  36
TORSDOF 12
ENDMDL
MODEL 7
REMARK VINA RESULT:      -8.1      2.652      4.483
REMARK  Name = Ouabain
REMARK  14 active torsions:
REMARK  status: ('A' for Active; 'I' for Inactive)
REMARK    1  A    between atoms: C_5  and  O_6
REMARK    2  A    between atoms: C_8  and  O_33
REMARK    3  A    between atoms: C_10  and  O_11
REMARK    4  A    between atoms: C_12  and  C_13
REMARK    5  A    between atoms: C_13  and  O_14
REMARK    6  A    between atoms: C_17  and  O_18
REMARK    7  A    between atoms: C_20  and  C_21
REMARK    8  A    between atoms: C_22  and  C_27
REMARK    9  A    between atoms: C_25  and  O_26
REMARK   10  A    between atoms: O_33  and  C_34
REMARK   11  A    between atoms: C_36  and  C_37
REMARK   12  A    between atoms: C_38  and  O_39
REMARK   13  A    between atoms: C_40  and  O_41
REMARK   14  A    between atoms: C_42  and  O_43
REMARK                            x       y       z     vdW  Elec       q    Type
REMARK                         _______ _______ _______ _____ _____    ______ ____
ROOT
ATOM      1  C   UNL     1      -7.593   2.939 131.788  0.00  0.00    +0.000 C 
ATOM      2  C   UNL     1      -8.626   1.839 131.593  0.00  0.00    +0.000 C 
ATOM      3  C   UNL     1      -8.250   1.114 130.385  0.00  0.00    +0.000 C 
ATOM      4  C   UNL     1      -8.118   1.982 129.052  0.00  0.00    +0.000 C 
ATOM      5  C   UNL     1      -7.515   1.388 127.704  0.00  0.00    +0.000 C 
ATOM      6  C   UNL     1      -7.320  -0.060 127.855  0.00  0.00    +0.000 C 
ATOM      7  C   UNL     1      -6.394   0.086 129.180  0.00  0.00    +0.000 C 
ATOM      8  C   UNL     1      -5.857   1.850 129.582  0.00  0.00    +0.000 C 
ATOM      9  C   UNL     1      -7.098   3.050 129.377  0.00  0.00    +0.000 C 
ATOM     10  C   UNL     1      -7.540   3.877 130.636  0.00  0.00    +0.000 C 
ATOM     11  C   UNL     1      -6.772   5.207 130.879  0.00  0.00    +0.000 C 
ATOM     12  C   UNL     1      -7.275   5.939 132.102  0.00  0.00    +0.000 C 
ATOM     13  C   UNL     1      -7.180   5.087 133.338  0.00  0.00    +0.000 C 
ATOM     14  C   UNL     1      -7.979   6.093 134.593  0.00  0.00    +0.000 C 
ATOM     15  C   UNL     1      -5.910   4.666 133.939  0.00  0.00    +0.000 C 
ATOM     16  C   UNL     1      -6.899   3.895 134.942  0.00  0.00    +0.000 C 
ATOM     17  C   UNL     1      -8.648   3.871 134.149  0.00  0.00    +0.000 C 
ATOM     18  C   UNL     1      -7.799   3.490 133.098  0.00  0.00    +0.000 C 
ENDROOT
BRANCH  15  19
ATOM     19  C   UNL     1      -4.999   5.823 134.209  0.00  0.00    +0.000 C 
ATOM     20  C   UNL     1      -4.129   6.333 133.346  0.00  0.00    +0.000 C 
ATOM     21  C   UNL     1      -3.298   7.257 134.071  0.00  0.00    +0.000 C 
ATOM     22  O   UNL     1      -2.279   7.799 133.574  0.00  0.00    +0.000 OA
ATOM     23  O   UNL     1      -3.747   7.421 135.325  0.00  0.00    +0.000 OA
ATOM     24  C   UNL     1      -4.851   6.524 135.528  0.00  0.00    +0.000 C 
ENDBRANCH  15  19
BRANCH   4  25
ATOM     25  O   UNL     1      -9.416   2.425 128.774  0.00  0.00    +0.000 OA
ATOM     26  H   UNL     1      -9.940   2.030 129.498  0.00  0.00    +0.000 HD
ENDBRANCH   4  25
BRANCH   8  27
ATOM     27  O   UNL     1      -4.710   2.329 128.886  0.00  0.00    +0.000 OA
ATOM     28  H   UNL     1      -3.963   2.304 129.516  0.00  0.00    +0.000 HD
ENDBRANCH   8  27
BRANCH  11  29
ATOM     29  O   UNL     1      -5.375   5.007 130.936  0.00  0.00    +0.000 OA
ATOM     30  H   UNL     1      -4.916   5.789 130.593  0.00  0.00    +0.000 HD
ENDBRANCH  11  29
BRANCH  18  31
ATOM     31  O   UNL     1      -7.651   2.147 133.826  0.00  0.00    +0.000 OA
ATOM     32  H   UNL     1      -8.543   1.732 133.952  0.00  0.00    +0.000 HD
ENDBRANCH  18  31
BRANCH   9  33
ATOM     33  C   UNL     1      -7.134   4.198 128.275  0.00  0.00    +0.000 C 
BRANCH  33  34
ATOM     34  O   UNL     1      -8.342   4.786 127.865  0.00  0.00    +0.000 OA
ATOM     35  H   UNL     1      -8.137   5.457 127.192  0.00  0.00    +0.000 HD
ENDBRANCH  33  34
ENDBRANCH   9  33
BRANCH   6  36
ATOM     36  O   UNL     1      -6.710  -0.746 126.714  0.00  0.00    +0.000 OA
BRANCH  36  37
ATOM     37  C   UNL     1      -7.774  -1.457 126.164  0.00  0.00    +0.000 C 
ATOM     38  O   UNL     1      -7.183  -2.630 125.598  0.00  0.00    +0.000 OA
ATOM     39  C   UNL     1      -6.538  -2.367 124.347  0.00  0.00    +0.000 C 
ATOM     40  C   UNL     1      -5.607  -3.481 123.887  0.00  0.00    +0.000 C 
ATOM     41  C   UNL     1      -7.711  -2.310 123.409  0.00  0.00    +0.000 C 
ATOM     42  C   UNL     1      -8.620  -1.165 123.873  0.00  0.00    +0.000 C 
ATOM     43  C   UNL     1      -9.001  -1.272 125.327  0.00  0.00    +0.000 C 
BRANCH  41  44
ATOM     44  O   UNL     1      -7.289  -2.135 122.070  0.00  0.00    +0.000 OA
ATOM     45  H   UNL     1      -7.046  -3.014 121.739  0.00  0.00    +0.000 HD
ENDBRANCH  41  44
BRANCH  42  46
ATOM     46  O   UNL     1      -9.819  -1.201 123.112  0.00  0.00    +0.000 OA
ATOM     47  H   UNL     1      -9.774  -0.396 122.553  0.00  0.00    +0.000 HD
ENDBRANCH  42  46
BRANCH  43  48
ATOM     48  O   UNL     1      -9.758  -2.537 125.497  0.00  0.00    +0.000 OA
ATOM     49  H   UNL     1      -9.643  -3.046 124.655  0.00  0.00    +0.000 HD
ENDBRANCH  43  48
ENDBRANCH  36  37
ENDBRANCH   6  36
TORSDOF 12
ENDMDL
MODEL 8
REMARK VINA RESULT:      -8.1      5.274     10.748
REMARK  Name = Ouabain
REMARK  14 active torsions:
REMARK  status: ('A' for Active; 'I' for Inactive)
REMARK    1  A    between atoms: C_5  and  O_6
REMARK    2  A    between atoms: C_8  and  O_33
REMARK    3  A    between atoms: C_10  and  O_11
REMARK    4  A    between atoms: C_12  and  C_13
REMARK    5  A    between atoms: C_13  and  O_14
REMARK    6  A    between atoms: C_17  and  O_18
REMARK    7  A    between atoms: C_20  and  C_21
REMARK    8  A    between atoms: C_22  and  C_27
REMARK    9  A    between atoms: C_25  and  O_26
REMARK   10  A    between atoms: O_33  and  C_34
REMARK   11  A    between atoms: C_36  and  C_37
REMARK   12  A    between atoms: C_38  and  O_39
REMARK   13  A    between atoms: C_40  and  O_41
REMARK   14  A    between atoms: C_42  and  O_43
REMARK                            x       y       z     vdW  Elec       q    Type
REMARK                         _______ _______ _______ _____ _____    ______ ____
ROOT
ATOM      1  C   UNL     1      -4.571   5.952 133.730  0.00  0.00    +0.000 C 
ATOM      2  C   UNL     1      -3.586   5.724 134.868  0.00  0.00    +0.000 C 
ATOM      3  C   UNL     1      -2.443   6.593 134.618  0.00  0.00    +0.000 C 
ATOM      4  C   UNL     1      -1.707   6.407 133.214  0.00  0.00    +0.000 C 
ATOM      5  C   UNL     1      -0.584   7.411 132.701  0.00  0.00    +0.000 C 
ATOM      6  C   UNL     1      -0.233   8.343 133.780  0.00  0.00    +0.000 C 
ATOM      7  C   UNL     1      -1.760   8.851 133.994  0.00  0.00    +0.000 C 
ATOM      8  C   UNL     1      -2.978   8.279 132.672  0.00  0.00    +0.000 C 
ATOM      9  C   UNL     1      -2.783   6.624 132.174  0.00  0.00    +0.000 C 
ATOM     10  C   UNL     1      -3.983   5.638 132.401  0.00  0.00    +0.000 C 
ATOM     11  C   UNL     1      -4.993   5.515 131.224  0.00  0.00    +0.000 C 
ATOM     12  C   UNL     1      -6.103   4.535 131.528  0.00  0.00    +0.000 C 
ATOM     13  C   UNL     1      -6.852   4.912 132.777  0.00  0.00    +0.000 C 
ATOM     14  C   UNL     1      -7.978   3.534 133.014  0.00  0.00    +0.000 C 
ATOM     15  C   UNL     1      -7.688   6.112 132.892  0.00  0.00    +0.000 C 
ATOM     16  C   UNL     1      -7.851   5.580 134.399  0.00  0.00    +0.000 C 
ATOM     17  C   UNL     1      -6.498   4.253 134.709  0.00  0.00    +0.000 C 
ATOM     18  C   UNL     1      -5.800   5.305 134.093  0.00  0.00    +0.000 C 
ENDROOT
BRANCH  15  19
ATOM     19  C   UNL     1      -8.709   6.197 131.801  0.00  0.00    +0.000 C 
ATOM     20  C   UNL     1      -8.561   6.860 130.660  0.00  0.00    +0.000 C 
ATOM     21  C   UNL     1      -9.845   6.888 130.012  0.00  0.00    +0.000 C 
ATOM     22  O   UNL     1     -10.078   7.568 128.979  0.00  0.00    +0.000 OA
ATOM     23  O   UNL     1     -10.732   6.129 130.673  0.00  0.00    +0.000 OA
ATOM     24  C   UNL     1     -10.100   5.636 131.865  0.00  0.00    +0.000 C 
ENDBRANCH  15  19
BRANCH   4  25
ATOM     25  O   UNL     1      -1.139   5.129 133.265  0.00  0.00    +0.000 OA
ATOM     26  H   UNL     1      -0.402   5.244 133.895  0.00  0.00    +0.000 HD
ENDBRANCH   4  25
BRANCH   8  27
ATOM     27  O   UNL     1      -3.023   9.059 131.481  0.00  0.00    +0.000 OA
ATOM     28  H   UNL     1      -3.932   8.987 131.128  0.00  0.00    +0.000 HD
ENDBRANCH   8  27
BRANCH  11  29
ATOM     29  O   UNL     1      -5.507   6.771 130.836  0.00  0.00    +0.000 OA
ATOM     30  H   UNL     1      -5.635   7.330 131.618  0.00  0.00    +0.000 HD
ENDBRANCH  11  29
BRANCH  18  31
ATOM     31  O   UNL     1      -5.956   6.062 135.419  0.00  0.00    +0.000 OA
ATOM     32  H   UNL     1      -5.683   7.008 135.301  0.00  0.00    +0.000 HD
ENDBRANCH  18  31
BRANCH   9  33
ATOM     33  C   UNL     1      -2.282   6.116 130.751  0.00  0.00    +0.000 C 
BRANCH  33  34
ATOM     34  O   UNL     1      -2.534   6.848 129.579  0.00  0.00    +0.000 OA
ATOM     35  H   UNL     1      -2.845   6.228 128.898  0.00  0.00    +0.000 HD
ENDBRANCH  33  34
ENDBRANCH   9  33
BRANCH   6  36
ATOM     36  O   UNL     1       0.749   9.375 133.442  0.00  0.00    +0.000 OA
BRANCH  36  37
ATOM     37  C   UNL     1       0.271  10.501 134.109  0.00  0.00    +0.000 C 
ATOM     38  O   UNL     1      -0.079  11.424 133.075  0.00  0.00    +0.000 OA
ATOM     39  C   UNL     1       1.065  12.077 132.514  0.00  0.00    +0.000 C 
ATOM     40  C   UNL     1       0.786  12.787 131.196  0.00  0.00    +0.000 C 
ATOM     41  C   UNL     1       1.363  13.114 133.560  0.00  0.00    +0.000 C 
ATOM     42  C   UNL     1       1.668  12.377 134.870  0.00  0.00    +0.000 C 
ATOM     43  C   UNL     1       0.586  11.403 135.261  0.00  0.00    +0.000 C 
BRANCH  41  44
ATOM     44  O   UNL     1       2.436  13.947 133.166  0.00  0.00    +0.000 OA
ATOM     45  H   UNL     1       2.975  14.098 133.958  0.00  0.00    +0.000 HD
ENDBRANCH  41  44
BRANCH  42  46
ATOM     46  O   UNL     1       1.781  13.334 135.913  0.00  0.00    +0.000 OA
ATOM     47  H   UNL     1       0.859  13.462 136.224  0.00  0.00    +0.000 HD
ENDBRANCH  42  46
BRANCH  43  48
ATOM     48  O   UNL     1      -0.660  12.183 135.469  0.00  0.00    +0.000 OA
ATOM     49  H   UNL     1      -0.881  12.103 136.432  0.00  0.00    +0.000 HD
ENDBRANCH  43  48
ENDBRANCH  36  37
ENDBRANCH   6  36
TORSDOF 12
ENDMDL
MODEL 9
REMARK VINA RESULT:      -8.0      5.178     10.255
REMARK  Name = Ouabain
REMARK  14 active torsions:
REMARK  status: ('A' for Active; 'I' for Inactive)
REMARK    1  A    between atoms: C_5  and  O_6
REMARK    2  A    between atoms: C_8  and  O_33
REMARK    3  A    between atoms: C_10  and  O_11
REMARK    4  A    between atoms: C_12  and  C_13
REMARK    5  A    between atoms: C_13  and  O_14
REMARK    6  A    between atoms: C_17  and  O_18
REMARK    7  A    between atoms: C_20  and  C_21
REMARK    8  A    between atoms: C_22  and  C_27
REMARK    9  A    between atoms: C_25  and  O_26
REMARK   10  A    between atoms: O_33  and  C_34
REMARK   11  A    between atoms: C_36  and  C_37
REMARK   12  A    between atoms: C_38  and  O_39
REMARK   13  A    between atoms: C_40  and  O_41
REMARK   14  A    between atoms: C_42  and  O_43
REMARK                            x       y       z     vdW  Elec       q    Type
REMARK                         _______ _______ _______ _____ _____    ______ ____
ROOT
ATOM      1  C   UNL     1      -7.535  -1.756 127.399  0.00  0.00    +0.000 C 
ATOM      2  C   UNL     1      -8.161  -2.981 128.051  0.00  0.00    +0.000 C 
ATOM      3  C   UNL     1      -8.055  -2.794 129.493  0.00  0.00    +0.000 C 
ATOM      4  C   UNL     1      -6.586  -2.558 130.070  0.00  0.00    +0.000 C 
ATOM      5  C   UNL     1      -6.322  -2.130 131.580  0.00  0.00    +0.000 C 
ATOM      6  C   UNL     1      -7.581  -2.197 132.332  0.00  0.00    +0.000 C 
ATOM      7  C   UNL     1      -8.374  -1.208 131.320  0.00  0.00    +0.000 C 
ATOM      8  C   UNL     1      -7.286  -0.340 130.045  0.00  0.00    +0.000 C 
ATOM      9  C   UNL     1      -6.062  -1.348 129.331  0.00  0.00    +0.000 C 
ATOM     10  C   UNL     1      -6.108  -1.579 127.780  0.00  0.00    +0.000 C 
ATOM     11  C   UNL     1      -5.297  -0.571 126.917  0.00  0.00    +0.000 C 
ATOM     12  C   UNL     1      -5.390  -0.880 125.441  0.00  0.00    +0.000 C 
ATOM     13  C   UNL     1      -6.817  -0.894 124.964  0.00  0.00    +0.000 C 
ATOM     14  C   UNL     1      -6.676  -1.443 123.260  0.00  0.00    +0.000 C 
ATOM     15  C   UNL     1      -7.666   0.301 124.910  0.00  0.00    +0.000 C 
ATOM     16  C   UNL     1      -8.756  -0.772 124.418  0.00  0.00    +0.000 C 
ATOM     17  C   UNL     1      -8.084  -2.526 124.818  0.00  0.00    +0.000 C 
ATOM     18  C   UNL     1      -7.859  -1.805 126.001  0.00  0.00    +0.000 C 
ENDROOT
BRANCH  15  19
ATOM     19  C   UNL     1      -7.025   1.418 124.148  0.00  0.00    +0.000 C 
ATOM     20  C   UNL     1      -6.363   2.435 124.687  0.00  0.00    +0.000 C 
ATOM     21  C   UNL     1      -6.125   3.394 123.641  0.00  0.00    +0.000 C 
ATOM     22  O   UNL     1      -5.649   4.538 123.854  0.00  0.00    +0.000 OA
ATOM     23  O   UNL     1      -6.505   2.906 122.450  0.00  0.00    +0.000 OA
ATOM     24  C   UNL     1      -7.116   1.624 122.664  0.00  0.00    +0.000 C 
ENDBRANCH  15  19
BRANCH   4  25
ATOM     25  O   UNL     1      -5.909  -3.764 129.849  0.00  0.00    +0.000 OA
ATOM     26  H   UNL     1      -6.602  -4.434 130.006  0.00  0.00    +0.000 HD
ENDBRANCH   4  25
BRANCH   8  27
ATOM     27  O   UNL     1      -6.631   0.846 130.484  0.00  0.00    +0.000 OA
ATOM     28  H   UNL     1      -5.788   0.570 130.894  0.00  0.00    +0.000 HD
ENDBRANCH   8  27
BRANCH  11  29
ATOM     29  O   UNL     1      -5.661   0.767 127.187  0.00  0.00    +0.000 OA
ATOM     30  H   UNL     1      -5.564   0.951 128.134  0.00  0.00    +0.000 HD
ENDBRANCH  11  29
BRANCH  18  31
ATOM     31  O   UNL     1      -9.376  -1.876 126.225  0.00  0.00    +0.000 OA
ATOM     32  H   UNL     1      -9.611  -2.733 126.665  0.00  0.00    +0.000 HD
ENDBRANCH  18  31
BRANCH   9  33
ATOM     33  C   UNL     1      -4.489  -1.217 129.537  0.00  0.00    +0.000 C 
BRANCH  33  34
ATOM     34  O   UNL     1      -3.877   0.030 129.747  0.00  0.00    +0.000 OA
ATOM     35  H   UNL     1      -3.022   0.027 129.282  0.00  0.00    +0.000 HD
ENDBRANCH  33  34
ENDBRANCH   9  33
BRANCH   6  36
ATOM     36  O   UNL     1      -7.514  -1.771 133.732  0.00  0.00    +0.000 OA
BRANCH  36  37
ATOM     37  C   UNL     1      -8.058  -2.852 134.421  0.00  0.00    +0.000 C 
ATOM     38  O   UNL     1      -8.045  -2.460 135.796  0.00  0.00    +0.000 OA
ATOM     39  C   UNL     1      -6.744  -2.569 136.383  0.00  0.00    +0.000 C 
ATOM     40  C   UNL     1      -6.604  -1.841 137.714  0.00  0.00    +0.000 C 
ATOM     41  C   UNL     1      -6.650  -4.047 136.638  0.00  0.00    +0.000 C 
ATOM     42  C   UNL     1      -6.765  -4.758 135.283  0.00  0.00    +0.000 C 
ATOM     43  C   UNL     1      -7.987  -4.344 134.505  0.00  0.00    +0.000 C 
BRANCH  41  44
ATOM     44  O   UNL     1      -5.447  -4.379 137.303  0.00  0.00    +0.000 OA
ATOM     45  H   UNL     1      -5.199  -5.267 137.000  0.00  0.00    +0.000 HD
ENDBRANCH  41  44
BRANCH  42  46
ATOM     46  O   UNL     1      -6.855  -6.157 135.512  0.00  0.00    +0.000 OA
ATOM     47  H   UNL     1      -7.157  -6.523 134.653  0.00  0.00    +0.000 HD
ENDBRANCH  42  46
BRANCH  43  48
ATOM     48  O   UNL     1      -9.176  -4.725 135.309  0.00  0.00    +0.000 OA
ATOM     49  H   UNL     1      -9.710  -5.339 134.743  0.00  0.00    +0.000 HD
ENDBRANCH  43  48
ENDBRANCH  36  37
ENDBRANCH   6  36
TORSDOF 12
ENDMDL
