MODEL 1
REMARK VINA RESULT:      -8.1      0.000      0.000
REMARK  Name = Oxacillin
REMARK  8 active torsions:
REMARK  status: ('A' for Active; 'I' for Inactive)
REMARK    1  A    between atoms: C_4  and  C_5
REMARK    2  A    between atoms: C_4  and  C_6
REMARK    3  A    between atoms: CA_7  and  C_27
REMARK    4  A    between atoms: CA_11  and  N_12
REMARK    5  A    between atoms: C_13  and  C_15
REMARK    6  A    between atoms: C_16  and  C_17
REMARK    7  A    between atoms: C_20  and  C_21
REMARK    8  A    between atoms: C_27  and  O_28
REMARK                            x       y       z     vdW  Elec       q    Type
REMARK                         _______ _______ _______ _____ _____    ______ ____
ROOT
ATOM      1  N   UNL     1      -8.238   4.261 128.776  0.00  0.00    +0.000 N 
ATOM      2  C   UNL     1      -7.891   5.099 129.817  0.00  0.00    +0.000 C 
ATOM      3  O   UNL     1      -6.887   5.801 129.765  0.00  0.00    +0.000 OA
ATOM      4  H   UNL     1      -9.106   3.739 128.814  0.00  0.00    +0.000 HD
ENDROOT
BRANCH   1  14
ATOM      5  C   UNL     1      -7.210   2.863 126.850  0.00  0.00    +0.000 C 
ATOM      6  S   UNL     1      -8.427   1.545 127.198  0.00  0.00    +0.000 S 
ATOM      7  C   UNL     1      -8.706   1.283 125.364  0.00  0.00    +0.000 C 
ATOM      8  C   UNL     1     -10.085   0.634 125.219  0.00  0.00    +0.000 C 
ATOM      9  C   UNL     1      -7.567   0.349 124.910  0.00  0.00    +0.000 C 
ATOM     10  CA  UNL     1      -8.665   2.715 124.779  0.00  0.00    +0.000 C 
ATOM     11  N   UNL     1      -7.686   3.468 125.593  0.00  0.00    +0.000 N 
ATOM     12  C   UNL     1      -8.028   4.652 126.201  0.00  0.00    +0.000 C 
ATOM     13  O   UNL     1      -8.738   5.561 125.818  0.00  0.00    +0.000 OA
ATOM     14  CA  UNL     1      -7.383   4.220 127.549  0.00  0.00    +0.000 C 
BRANCH  10  15
ATOM     15  C   UNL     1      -8.404   2.908 123.265  0.00  0.00    +0.000 C 
ATOM     16  OXT UNL     1      -9.114   2.401 122.404  0.00  0.00    +0.000 OA
BRANCH  15  17
ATOM     17  O   UNL     1      -7.341   3.634 122.864  0.00  0.00    +0.000 OA
ATOM     18  H   UNL     1      -7.300   4.591 123.008  0.00  0.00    +0.000 HD
ENDBRANCH  15  17
ENDBRANCH  10  15
ENDBRANCH   1  14
BRANCH   2  19
ATOM     19  C   UNL     1      -8.761   5.108 130.969  0.00  0.00    +0.000 A 
ATOM     20  C   UNL     1      -8.584   4.517 132.200  0.00  0.00    +0.000 A 
ATOM     21  C   UNL     1      -7.539   3.684 132.814  0.00  0.00    +0.000 C 
ATOM     22  O   UNL     1      -9.616   4.858 133.017  0.00  0.00    +0.000 OA
ATOM     23  N   UNL     1     -10.490   5.685 132.342  0.00  0.00    +0.000 NA
ATOM     24  C   UNL     1      -9.979   5.834 131.110  0.00  0.00    +0.000 A 
BRANCH  24  25
ATOM     25  C   UNL     1     -10.697   6.560 130.075  0.00  0.00    +0.000 A 
ATOM     26  C   UNL     1     -10.134   7.671 129.439  0.00  0.00    +0.000 A 
ATOM     27  C   UNL     1     -10.900   8.414 128.538  0.00  0.00    +0.000 A 
ATOM     28  C   UNL     1     -12.190   7.999 128.204  0.00  0.00    +0.000 A 
ATOM     29  C   UNL     1     -12.738   6.868 128.803  0.00  0.00    +0.000 A 
ATOM     30  C   UNL     1     -11.997   6.156 129.743  0.00  0.00    +0.000 A 
ENDBRANCH  24  25
ENDBRANCH   2  19
TORSDOF 5
ENDMDL
MODEL 2
REMARK VINA RESULT:      -8.0      4.075      7.479
REMARK  Name = Oxacillin
REMARK  8 active torsions:
REMARK  status: ('A' for Active; 'I' for Inactive)
REMARK    1  A    between atoms: C_4  and  C_5
REMARK    2  A    between atoms: C_4  and  C_6
REMARK    3  A    between atoms: CA_7  and  C_27
REMARK    4  A    between atoms: CA_11  and  N_12
REMARK    5  A    between atoms: C_13  and  C_15
REMARK    6  A    between atoms: C_16  and  C_17
REMARK    7  A    between atoms: C_20  and  C_21
REMARK    8  A    between atoms: C_27  and  O_28
REMARK                            x       y       z     vdW  Elec       q    Type
REMARK                         _______ _______ _______ _____ _____    ______ ____
ROOT
ATOM      1  N   UNL     1      -7.542  -0.019 127.720  0.00  0.00    +0.000 N 
ATOM      2  C   UNL     1      -6.796  -1.177 127.813  0.00  0.00    +0.000 C 
ATOM      3  O   UNL     1      -5.570  -1.147 127.852  0.00  0.00    +0.000 OA
ATOM      4  H   UNL     1      -8.554  -0.064 127.755  0.00  0.00    +0.000 HD
ENDROOT
BRANCH   1  14
ATOM      5  C   UNL     1      -6.404   1.838 126.314  0.00  0.00    +0.000 C 
ATOM      6  S   UNL     1      -7.196   1.147 124.819  0.00  0.00    +0.000 S 
ATOM      7  C   UNL     1      -7.595   2.871 124.203  0.00  0.00    +0.000 C 
ATOM      8  C   UNL     1      -8.768   2.728 123.229  0.00  0.00    +0.000 C 
ATOM      9  C   UNL     1      -6.311   3.361 123.507  0.00  0.00    +0.000 C 
ATOM     10  CA  UNL     1      -7.989   3.638 125.489  0.00  0.00    +0.000 C 
ATOM     11  N   UNL     1      -7.154   3.080 126.576  0.00  0.00    +0.000 N 
ATOM     12  C   UNL     1      -7.721   2.588 127.726  0.00  0.00    +0.000 C 
ATOM     13  O   UNL     1      -8.679   2.978 128.366  0.00  0.00    +0.000 OA
ATOM     14  CA  UNL     1      -6.844   1.304 127.686  0.00  0.00    +0.000 C 
BRANCH  10  15
ATOM     15  C   UNL     1      -7.952   5.186 125.490  0.00  0.00    +0.000 C 
ATOM     16  OXT UNL     1      -8.909   5.866 125.843  0.00  0.00    +0.000 OA
BRANCH  15  17
ATOM     17  O   UNL     1      -6.845   5.822 125.060  0.00  0.00    +0.000 OA
ATOM     18  H   UNL     1      -6.839   6.780 124.910  0.00  0.00    +0.000 HD
ENDBRANCH  15  17
ENDBRANCH  10  15
ENDBRANCH   1  14
BRANCH   2  19
ATOM     19  C   UNL     1      -7.523  -2.423 127.857  0.00  0.00    +0.000 A 
ATOM     20  C   UNL     1      -7.900  -3.175 128.947  0.00  0.00    +0.000 A 
ATOM     21  C   UNL     1      -7.727  -3.056 130.404  0.00  0.00    +0.000 C 
ATOM     22  O   UNL     1      -8.649  -4.231 128.531  0.00  0.00    +0.000 OA
ATOM     23  N   UNL     1      -8.785  -4.192 127.159  0.00  0.00    +0.000 NA
ATOM     24  C   UNL     1      -8.107  -3.108 126.752  0.00  0.00    +0.000 A 
BRANCH  24  25
ATOM     25  C   UNL     1      -7.937  -2.807 125.339  0.00  0.00    +0.000 A 
ATOM     26  C   UNL     1      -6.669  -2.763 124.750  0.00  0.00    +0.000 A 
ATOM     27  C   UNL     1      -6.538  -2.353 123.422  0.00  0.00    +0.000 A 
ATOM     28  C   UNL     1      -7.672  -2.074 122.657  0.00  0.00    +0.000 A 
ATOM     29  C   UNL     1      -8.939  -2.159 123.229  0.00  0.00    +0.000 A 
ATOM     30  C   UNL     1      -9.070  -2.515 124.568  0.00  0.00    +0.000 A 
ENDBRANCH  24  25
ENDBRANCH   2  19
TORSDOF 5
ENDMDL
MODEL 3
REMARK VINA RESULT:      -7.9      4.558      5.847
REMARK  Name = Oxacillin
REMARK  8 active torsions:
REMARK  status: ('A' for Active; 'I' for Inactive)
REMARK    1  A    between atoms: C_4  and  C_5
REMARK    2  A    between atoms: C_4  and  C_6
REMARK    3  A    between atoms: CA_7  and  C_27
REMARK    4  A    between atoms: CA_11  and  N_12
REMARK    5  A    between atoms: C_13  and  C_15
REMARK    6  A    between atoms: C_16  and  C_17
REMARK    7  A    between atoms: C_20  and  C_21
REMARK    8  A    between atoms: C_27  and  O_28
REMARK                            x       y       z     vdW  Elec       q    Type
REMARK                         _______ _______ _______ _____ _____    ______ ____
ROOT
ATOM      1  N   UNL     1      -7.546  -0.753 128.367  0.00  0.00    +0.000 N 
ATOM      2  C   UNL     1      -6.756  -0.627 129.492  0.00  0.00    +0.000 C 
ATOM      3  O   UNL     1      -5.808   0.151 129.524  0.00  0.00    +0.000 OA
ATOM      4  H   UNL     1      -8.363  -1.354 128.386  0.00  0.00    +0.000 HD
ENDROOT
BRANCH   1  14
ATOM      5  C   UNL     1      -6.966  -0.637 125.843  0.00  0.00    +0.000 C 
ATOM      6  S   UNL     1      -7.505  -2.375 125.671  0.00  0.00    +0.000 S 
ATOM      7  C   UNL     1      -8.371  -1.972 124.058  0.00  0.00    +0.000 C 
ATOM      8  C   UNL     1      -9.440  -3.050 123.855  0.00  0.00    +0.000 C 
ATOM      9  C   UNL     1      -7.270  -2.027 122.982  0.00  0.00    +0.000 C 
ATOM     10  CA  UNL     1      -8.986  -0.575 124.311  0.00  0.00    +0.000 C 
ATOM     11  N   UNL     1      -8.043   0.139 125.201  0.00  0.00    +0.000 N 
ATOM     12  C   UNL     1      -8.463   0.687 126.389  0.00  0.00    +0.000 C 
ATOM     13  O   UNL     1      -9.501   1.250 126.676  0.00  0.00    +0.000 OA
ATOM     14  CA  UNL     1      -7.255   0.090 127.165  0.00  0.00    +0.000 C 
BRANCH  10  15
ATOM     15  C   UNL     1      -9.393   0.305 123.103  0.00  0.00    +0.000 C 
ATOM     16  OXT UNL     1      -8.808   1.343 122.819  0.00  0.00    +0.000 OA
BRANCH  15  17
ATOM     17  O   UNL     1     -10.448  -0.057 122.347  0.00  0.00    +0.000 OA
ATOM     18  H   UNL     1     -10.818  -0.952 122.392  0.00  0.00    +0.000 HD
ENDBRANCH  15  17
ENDBRANCH  10  15
ENDBRANCH   1  14
BRANCH   2  19
ATOM     19  C   UNL     1      -7.093  -1.454 130.626  0.00  0.00    +0.000 A 
ATOM     20  C   UNL     1      -6.909  -2.807 130.804  0.00  0.00    +0.000 A 
ATOM     21  C   UNL     1      -6.357  -3.899 129.987  0.00  0.00    +0.000 C 
ATOM     22  O   UNL     1      -7.293  -3.154 132.062  0.00  0.00    +0.000 OA
ATOM     23  N   UNL     1      -7.732  -2.035 132.738  0.00  0.00    +0.000 NA
ATOM     24  C   UNL     1      -7.615  -1.013 131.876  0.00  0.00    +0.000 A 
BRANCH  24  25
ATOM     25  C   UNL     1      -8.093   0.319 132.211  0.00  0.00    +0.000 A 
ATOM     26  C   UNL     1      -7.311   1.210 132.952  0.00  0.00    +0.000 A 
ATOM     27  C   UNL     1      -7.850   2.433 133.355  0.00  0.00    +0.000 A 
ATOM     28  C   UNL     1      -9.132   2.805 132.947  0.00  0.00    +0.000 A 
ATOM     29  C   UNL     1      -9.898   1.937 132.173  0.00  0.00    +0.000 A 
ATOM     30  C   UNL     1      -9.384   0.695 131.814  0.00  0.00    +0.000 A 
ENDBRANCH  24  25
ENDBRANCH   2  19
TORSDOF 5
ENDMDL
MODEL 4
REMARK VINA RESULT:      -7.7      4.565      6.477
REMARK  Name = Oxacillin
REMARK  8 active torsions:
REMARK  status: ('A' for Active; 'I' for Inactive)
REMARK    1  A    between atoms: C_4  and  C_5
REMARK    2  A    between atoms: C_4  and  C_6
REMARK    3  A    between atoms: CA_7  and  C_27
REMARK    4  A    between atoms: CA_11  and  N_12
REMARK    5  A    between atoms: C_13  and  C_15
REMARK    6  A    between atoms: C_16  and  C_17
REMARK    7  A    between atoms: C_20  and  C_21
REMARK    8  A    between atoms: C_27  and  O_28
REMARK                            x       y       z     vdW  Elec       q    Type
REMARK                         _______ _______ _______ _____ _____    ______ ____
ROOT
ATOM      1  N   UNL     1      -7.565   5.830 131.052  0.00  0.00    +0.000 N 
ATOM      2  C   UNL     1      -8.808   5.741 131.646  0.00  0.00    +0.000 C 
ATOM      3  O   UNL     1      -9.095   6.411 132.632  0.00  0.00    +0.000 OA
ATOM      4  H   UNL     1      -7.373   5.316 130.200  0.00  0.00    +0.000 HD
ENDROOT
BRANCH   1  14
ATOM      5  C   UNL     1      -5.646   6.261 132.741  0.00  0.00    +0.000 C 
ATOM      6  S   UNL     1      -5.478   4.455 132.964  0.00  0.00    +0.000 S 
ATOM      7  C   UNL     1      -3.610   4.600 132.944  0.00  0.00    +0.000 C 
ATOM      8  C   UNL     1      -3.068   3.226 132.541  0.00  0.00    +0.000 C 
ATOM      9  C   UNL     1      -3.218   4.988 134.383  0.00  0.00    +0.000 C 
ATOM     10  CA  UNL     1      -3.338   5.678 131.867  0.00  0.00    +0.000 C 
ATOM     11  N   UNL     1      -4.463   6.636 131.945  0.00  0.00    +0.000 N 
ATOM     12  C   UNL     1      -5.212   6.945 130.835  0.00  0.00    +0.000 C 
ATOM     13  O   UNL     1      -4.882   7.091 129.674  0.00  0.00    +0.000 OA
ATOM     14  CA  UNL     1      -6.550   6.777 131.611  0.00  0.00    +0.000 C 
BRANCH  10  15
ATOM     15  C   UNL     1      -1.975   6.413 131.856  0.00  0.00    +0.000 C 
ATOM     16  OXT UNL     1      -0.913   5.827 131.678  0.00  0.00    +0.000 OA
BRANCH  15  17
ATOM     17  O   UNL     1      -1.938   7.741 132.082  0.00  0.00    +0.000 OA
ATOM     18  H   UNL     1      -2.037   8.104 132.975  0.00  0.00    +0.000 HD
ENDBRANCH  15  17
ENDBRANCH  10  15
ENDBRANCH   1  14
BRANCH   2  19
ATOM     19  C   UNL     1      -9.752   4.823 131.056  0.00  0.00    +0.000 A 
ATOM     20  C   UNL     1      -9.813   3.450 131.154  0.00  0.00    +0.000 A 
ATOM     21  C   UNL     1      -9.009   2.419 131.828  0.00  0.00    +0.000 C 
ATOM     22  O   UNL     1     -10.921   2.999 130.509  0.00  0.00    +0.000 OA
ATOM     23  N   UNL     1     -11.616   4.066 129.977  0.00  0.00    +0.000 NA
ATOM     24  C   UNL     1     -10.913   5.162 130.302  0.00  0.00    +0.000 A 
BRANCH  24  25
ATOM     25  C   UNL     1     -11.290   6.478 129.809  0.00  0.00    +0.000 A 
ATOM     26  C   UNL     1     -12.248   7.256 130.466  0.00  0.00    +0.000 A 
ATOM     27  C   UNL     1     -12.670   8.459 129.897  0.00  0.00    +0.000 A 
ATOM     28  C   UNL     1     -12.076   8.928 128.724  0.00  0.00    +0.000 A 
ATOM     29  C   UNL     1     -11.091   8.176 128.090  0.00  0.00    +0.000 A 
ATOM     30  C   UNL     1     -10.706   6.950 128.625  0.00  0.00    +0.000 A 
ENDBRANCH  24  25
ENDBRANCH   2  19
TORSDOF 5
ENDMDL
MODEL 5
REMARK VINA RESULT:      -7.7      3.461      5.825
REMARK  Name = Oxacillin
REMARK  8 active torsions:
REMARK  status: ('A' for Active; 'I' for Inactive)
REMARK    1  A    between atoms: C_4  and  C_5
REMARK    2  A    between atoms: C_4  and  C_6
REMARK    3  A    between atoms: CA_7  and  C_27
REMARK    4  A    between atoms: CA_11  and  N_12
REMARK    5  A    between atoms: C_13  and  C_15
REMARK    6  A    between atoms: C_16  and  C_17
REMARK    7  A    between atoms: C_20  and  C_21
REMARK    8  A    between atoms: C_27  and  O_28
REMARK                            x       y       z     vdW  Elec       q    Type
REMARK                         _______ _______ _______ _____ _____    ______ ____
ROOT
ATOM      1  N   UNL     1      -7.546   1.098 127.165  0.00  0.00    +0.000 N 
ATOM      2  C   UNL     1      -6.941   2.257 127.612  0.00  0.00    +0.000 C 
ATOM      3  O   UNL     1      -5.815   2.244 128.097  0.00  0.00    +0.000 OA
ATOM      4  H   UNL     1      -8.450   1.142 126.709  0.00  0.00    +0.000 HD
ENDROOT
BRANCH   1  14
ATOM      5  C   UNL     1      -7.468  -1.438 126.635  0.00  0.00    +0.000 C 
ATOM      6  S   UNL     1      -8.790  -1.188 125.397  0.00  0.00    +0.000 S 
ATOM      7  C   UNL     1      -7.919  -2.336 124.199  0.00  0.00    +0.000 C 
ATOM      8  C   UNL     1      -8.418  -1.967 122.799  0.00  0.00    +0.000 C 
ATOM      9  C   UNL     1      -8.342  -3.757 124.618  0.00  0.00    +0.000 C 
ATOM     10  CA  UNL     1      -6.421  -2.003 124.396  0.00  0.00    +0.000 C 
ATOM     11  N   UNL     1      -6.256  -1.660 125.826  0.00  0.00    +0.000 N 
ATOM     12  C   UNL     1      -5.687  -0.470 126.211  0.00  0.00    +0.000 C 
ATOM     13  O   UNL     1      -4.763   0.157 125.729  0.00  0.00    +0.000 OA
ATOM     14  CA  UNL     1      -6.806  -0.199 127.257  0.00  0.00    +0.000 C 
BRANCH  10  15
ATOM     15  C   UNL     1      -5.350  -3.023 123.936  0.00  0.00    +0.000 C 
ATOM     16  OXT UNL     1      -4.989  -3.118 122.768  0.00  0.00    +0.000 OA
BRANCH  15  17
ATOM     17  O   UNL     1      -4.809  -3.866 124.838  0.00  0.00    +0.000 OA
ATOM     18  H   UNL     1      -4.020  -4.389 124.630  0.00  0.00    +0.000 HD
ENDBRANCH  15  17
ENDBRANCH  10  15
ENDBRANCH   1  14
BRANCH   2  19
ATOM     19  C   UNL     1      -7.696   3.480 127.485  0.00  0.00    +0.000 A 
ATOM     20  C   UNL     1      -8.373   4.192 128.450  0.00  0.00    +0.000 A 
ATOM     21  C   UNL     1      -8.613   4.023 129.892  0.00  0.00    +0.000 C 
ATOM     22  O   UNL     1      -8.870   5.334 127.904  0.00  0.00    +0.000 OA
ATOM     23  N   UNL     1      -8.525   5.400 126.570  0.00  0.00    +0.000 NA
ATOM     24  C   UNL     1      -7.823   4.285 126.316  0.00  0.00    +0.000 A 
BRANCH  24  25
ATOM     25  C   UNL     1      -7.384   3.958 124.968  0.00  0.00    +0.000 A 
ATOM     26  C   UNL     1      -6.129   4.351 124.493  0.00  0.00    +0.000 A 
ATOM     27  C   UNL     1      -5.793   4.123 123.157  0.00  0.00    +0.000 A 
ATOM     28  C   UNL     1      -6.667   3.426 122.322  0.00  0.00    +0.000 A 
ATOM     29  C   UNL     1      -7.900   2.994 122.804  0.00  0.00    +0.000 A 
ATOM     30  C   UNL     1      -8.261   3.267 124.120  0.00  0.00    +0.000 A 
ENDBRANCH  24  25
ENDBRANCH   2  19
TORSDOF 5
ENDMDL
MODEL 6
REMARK VINA RESULT:      -7.2      3.434      7.899
REMARK  Name = Oxacillin
REMARK  8 active torsions:
REMARK  status: ('A' for Active; 'I' for Inactive)
REMARK    1  A    between atoms: C_4  and  C_5
REMARK    2  A    between atoms: C_4  and  C_6
REMARK    3  A    between atoms: CA_7  and  C_27
REMARK    4  A    between atoms: CA_11  and  N_12
REMARK    5  A    between atoms: C_13  and  C_15
REMARK    6  A    between atoms: C_16  and  C_17
REMARK    7  A    between atoms: C_20  and  C_21
REMARK    8  A    between atoms: C_27  and  O_28
REMARK                            x       y       z     vdW  Elec       q    Type
REMARK                         _______ _______ _______ _____ _____    ______ ____
ROOT
ATOM      1  N   UNL     1      -8.077   0.266 128.438  0.00  0.00    +0.000 N 
ATOM      2  C   UNL     1      -7.530  -0.767 127.703  0.00  0.00    +0.000 C 
ATOM      3  O   UNL     1      -6.476  -1.299 128.034  0.00  0.00    +0.000 OA
ATOM      4  H   UNL     1      -8.981   0.647 128.183  0.00  0.00    +0.000 HD
ENDROOT
BRANCH   1  14
ATOM      5  C   UNL     1      -7.383   2.246 129.961  0.00  0.00    +0.000 C 
ATOM      6  S   UNL     1      -8.634   3.286 129.126  0.00  0.00    +0.000 S 
ATOM      7  C   UNL     1      -9.148   4.029 130.768  0.00  0.00    +0.000 C 
ATOM      8  C   UNL     1     -10.574   4.554 130.584  0.00  0.00    +0.000 C 
ATOM      9  C   UNL     1      -8.136   5.160 131.036  0.00  0.00    +0.000 C 
ATOM     10  CA  UNL     1      -9.083   2.833 131.748  0.00  0.00    +0.000 C 
ATOM     11  N   UNL     1      -7.965   1.979 131.288  0.00  0.00    +0.000 N 
ATOM     12  C   UNL     1      -8.153   0.644 131.022  0.00  0.00    +0.000 C 
ATOM     13  O   UNL     1      -8.843  -0.185 131.585  0.00  0.00    +0.000 OA
ATOM     14  CA  UNL     1      -7.380   0.737 129.676  0.00  0.00    +0.000 C 
BRANCH  10  15
ATOM     15  C   UNL     1      -8.994   3.103 133.270  0.00  0.00    +0.000 C 
ATOM     16  OXT UNL     1      -8.052   2.718 133.953  0.00  0.00    +0.000 OA
BRANCH  15  17
ATOM     17  O   UNL     1      -9.998   3.758 133.886  0.00  0.00    +0.000 OA
ATOM     18  H   UNL     1      -9.840   4.295 134.677  0.00  0.00    +0.000 HD
ENDBRANCH  15  17
ENDBRANCH  10  15
ENDBRANCH   1  14
BRANCH   2  19
ATOM     19  C   UNL     1      -8.253  -1.189 126.528  0.00  0.00    +0.000 A 
ATOM     20  C   UNL     1      -8.863  -2.395 126.264  0.00  0.00    +0.000 A 
ATOM     21  C   UNL     1      -9.014  -3.665 126.990  0.00  0.00    +0.000 C 
ATOM     22  O   UNL     1      -9.505  -2.325 125.067  0.00  0.00    +0.000 OA
ATOM     23  N   UNL     1      -9.336  -1.069 124.522  0.00  0.00    +0.000 NA
ATOM     24  C   UNL     1      -8.581  -0.386 125.397  0.00  0.00    +0.000 A 
BRANCH  24  25
ATOM     25  C   UNL     1      -8.104   0.955 125.099  0.00  0.00    +0.000 A 
ATOM     26  C   UNL     1      -8.982   2.041 125.018  0.00  0.00    +0.000 A 
ATOM     27  C   UNL     1      -8.503   3.288 124.613  0.00  0.00    +0.000 A 
ATOM     28  C   UNL     1      -7.139   3.475 124.376  0.00  0.00    +0.000 A 
ATOM     29  C   UNL     1      -6.256   2.405 124.498  0.00  0.00    +0.000 A 
ATOM     30  C   UNL     1      -6.738   1.147 124.849  0.00  0.00    +0.000 A 
ENDBRANCH  24  25
ENDBRANCH   2  19
TORSDOF 5
ENDMDL
MODEL 7
REMARK VINA RESULT:      -7.2      3.393      5.198
REMARK  Name = Oxacillin
REMARK  8 active torsions:
REMARK  status: ('A' for Active; 'I' for Inactive)
REMARK    1  A    between atoms: C_4  and  C_5
REMARK    2  A    between atoms: C_4  and  C_6
REMARK    3  A    between atoms: CA_7  and  C_27
REMARK    4  A    between atoms: CA_11  and  N_12
REMARK    5  A    between atoms: C_13  and  C_15
REMARK    6  A    between atoms: C_16  and  C_17
REMARK    7  A    between atoms: C_20  and  C_21
REMARK    8  A    between atoms: C_27  and  O_28
REMARK                            x       y       z     vdW  Elec       q    Type
REMARK                         _______ _______ _______ _____ _____    ______ ____
ROOT
ATOM      1  N   UNL     1      -7.585   1.185 127.487  0.00  0.00    +0.000 N 
ATOM      2  C   UNL     1      -6.984   2.268 128.099  0.00  0.00    +0.000 C 
ATOM      3  O   UNL     1      -5.890   2.169 128.644  0.00  0.00    +0.000 OA
ATOM      4  H   UNL     1      -8.458   1.306 126.987  0.00  0.00    +0.000 HD
ENDROOT
BRANCH   1  14
ATOM      5  C   UNL     1      -7.594  -1.312 126.792  0.00  0.00    +0.000 C 
ATOM      6  S   UNL     1      -8.944  -0.947 125.615  0.00  0.00    +0.000 S 
ATOM      7  C   UNL     1      -8.142  -2.036 124.319  0.00  0.00    +0.000 C 
ATOM      8  C   UNL     1      -8.671  -1.564 122.962  0.00  0.00    +0.000 C 
ATOM      9  C   UNL     1      -8.593  -3.470 124.658  0.00  0.00    +0.000 C 
ATOM     10  CA  UNL     1      -6.630  -1.756 124.490  0.00  0.00    +0.000 C 
ATOM     11  N   UNL     1      -6.413  -1.512 125.933  0.00  0.00    +0.000 N 
ATOM     12  C   UNL     1      -5.800  -0.365 126.376  0.00  0.00    +0.000 C 
ATOM     13  O   UNL     1      -4.874   0.268 125.907  0.00  0.00    +0.000 OA
ATOM     14  CA  UNL     1      -6.880  -0.134 127.472  0.00  0.00    +0.000 C 
BRANCH  10  15
ATOM     15  C   UNL     1      -5.602  -2.772 123.932  0.00  0.00    +0.000 C 
ATOM     16  OXT UNL     1      -5.020  -3.579 124.647  0.00  0.00    +0.000 OA
BRANCH  15  17
ATOM     17  O   UNL     1      -5.304  -2.758 122.618  0.00  0.00    +0.000 OA
ATOM     18  H   UNL     1      -5.371  -3.559 122.076  0.00  0.00    +0.000 HD
ENDBRANCH  15  17
ENDBRANCH  10  15
ENDBRANCH   1  14
BRANCH   2  19
ATOM     19  C   UNL     1      -7.704   3.519 128.070  0.00  0.00    +0.000 A 
ATOM     20  C   UNL     1      -7.880   4.401 127.027  0.00  0.00    +0.000 A 
ATOM     21  C   UNL     1      -7.438   4.456 125.625  0.00  0.00    +0.000 C 
ATOM     22  O   UNL     1      -8.704   5.408 127.421  0.00  0.00    +0.000 OA
ATOM     23  N   UNL     1      -9.093   5.206 128.729  0.00  0.00    +0.000 NA
ATOM     24  C   UNL     1      -8.491   4.073 129.122  0.00  0.00    +0.000 A 
BRANCH  24  25
ATOM     25  C   UNL     1      -8.583   3.602 130.494  0.00  0.00    +0.000 A 
ATOM     26  C   UNL     1      -7.631   3.960 131.454  0.00  0.00    +0.000 A 
ATOM     27  C   UNL     1      -7.687   3.392 132.729  0.00  0.00    +0.000 A 
ATOM     28  C   UNL     1      -8.738   2.540 133.073  0.00  0.00    +0.000 A 
ATOM     29  C   UNL     1      -9.712   2.216 132.132  0.00  0.00    +0.000 A 
ATOM     30  C   UNL     1      -9.629   2.737 130.844  0.00  0.00    +0.000 A 
ENDBRANCH  24  25
ENDBRANCH   2  19
TORSDOF 5
ENDMDL
MODEL 8
REMARK VINA RESULT:      -7.2      2.900      3.385
REMARK  Name = Oxacillin
REMARK  8 active torsions:
REMARK  status: ('A' for Active; 'I' for Inactive)
REMARK    1  A    between atoms: C_4  and  C_5
REMARK    2  A    between atoms: C_4  and  C_6
REMARK    3  A    between atoms: CA_7  and  C_27
REMARK    4  A    between atoms: CA_11  and  N_12
REMARK    5  A    between atoms: C_13  and  C_15
REMARK    6  A    between atoms: C_16  and  C_17
REMARK    7  A    between atoms: C_20  and  C_21
REMARK    8  A    between atoms: C_27  and  O_28
REMARK                            x       y       z     vdW  Elec       q    Type
REMARK                         _______ _______ _______ _____ _____    ______ ____
ROOT
ATOM      1  N   UNL     1      -8.510   3.488 129.662  0.00  0.00    +0.000 N 
ATOM      2  C   UNL     1      -8.362   4.797 130.074  0.00  0.00    +0.000 C 
ATOM      3  O   UNL     1      -7.547   5.546 129.546  0.00  0.00    +0.000 OA
ATOM      4  H   UNL     1      -9.234   2.907 130.069  0.00  0.00    +0.000 HD
ENDROOT
BRANCH   1  14
ATOM      5  C   UNL     1      -6.595   1.932 128.867  0.00  0.00    +0.000 C 
ATOM      6  S   UNL     1      -6.739   1.006 130.436  0.00  0.00    +0.000 S 
ATOM      7  C   UNL     1      -6.551  -0.620 129.523  0.00  0.00    +0.000 C 
ATOM      8  C   UNL     1      -7.178  -1.697 130.412  0.00  0.00    +0.000 C 
ATOM      9  C   UNL     1      -5.033  -0.814 129.347  0.00  0.00    +0.000 C 
ATOM     10  CA  UNL     1      -7.349  -0.400 128.215  0.00  0.00    +0.000 C 
ATOM     11  N   UNL     1      -7.180   1.027 127.861  0.00  0.00    +0.000 N 
ATOM     12  C   UNL     1      -8.267   1.840 127.648  0.00  0.00    +0.000 C 
ATOM     13  O   UNL     1      -9.336   1.609 127.116  0.00  0.00    +0.000 OA
ATOM     14  CA  UNL     1      -7.673   2.974 128.533  0.00  0.00    +0.000 C 
BRANCH  10  15
ATOM     15  C   UNL     1      -7.078  -1.316 126.997  0.00  0.00    +0.000 C 
ATOM     16  OXT UNL     1      -7.214  -2.534 127.046  0.00  0.00    +0.000 OA
BRANCH  15  17
ATOM     17  O   UNL     1      -6.645  -0.772 125.843  0.00  0.00    +0.000 OA
ATOM     18  H   UNL     1      -6.265   0.119 125.816  0.00  0.00    +0.000 HD
ENDBRANCH  15  17
ENDBRANCH  10  15
ENDBRANCH   1  14
BRANCH   2  19
ATOM     19  C   UNL     1      -9.206   5.242 131.157  0.00  0.00    +0.000 A 
ATOM     20  C   UNL     1      -9.149   4.924 132.496  0.00  0.00    +0.000 A 
ATOM     21  C   UNL     1      -8.294   4.059 133.324  0.00  0.00    +0.000 C 
ATOM     22  O   UNL     1     -10.085   5.642 133.172  0.00  0.00    +0.000 OA
ATOM     23  N   UNL     1     -10.773   6.452 132.293  0.00  0.00    +0.000 NA
ATOM     24  C   UNL     1     -10.248   6.211 131.082  0.00  0.00    +0.000 A 
BRANCH  24  25
ATOM     25  C   UNL     1     -10.807   6.812 129.881  0.00  0.00    +0.000 A 
ATOM     26  C   UNL     1     -12.009   6.358 129.329  0.00  0.00    +0.000 A 
ATOM     27  C   UNL     1     -12.450   6.879 128.110  0.00  0.00    +0.000 A 
ATOM     28  C   UNL     1     -11.744   7.910 127.490  0.00  0.00    +0.000 A 
ATOM     29  C   UNL     1     -10.569   8.394 128.059  0.00  0.00    +0.000 A 
ATOM     30  C   UNL     1     -10.097   7.841 129.246  0.00  0.00    +0.000 A 
ENDBRANCH  24  25
ENDBRANCH   2  19
TORSDOF 5
ENDMDL
MODEL 9
REMARK VINA RESULT:      -7.2      4.784      7.391
REMARK  Name = Oxacillin
REMARK  8 active torsions:
REMARK  status: ('A' for Active; 'I' for Inactive)
REMARK    1  A    between atoms: C_4  and  C_5
REMARK    2  A    between atoms: C_4  and  C_6
REMARK    3  A    between atoms: CA_7  and  C_27
REMARK    4  A    between atoms: CA_11  and  N_12
REMARK    5  A    between atoms: C_13  and  C_15
REMARK    6  A    between atoms: C_16  and  C_17
REMARK    7  A    between atoms: C_20  and  C_21
REMARK    8  A    between atoms: C_27  and  O_28
REMARK                            x       y       z     vdW  Elec       q    Type
REMARK                         _______ _______ _______ _____ _____    ______ ____
ROOT
ATOM      1  N   UNL     1      -7.280   0.072 128.099  0.00  0.00    +0.000 N 
ATOM      2  C   UNL     1      -7.060  -1.182 127.565  0.00  0.00    +0.000 C 
ATOM      3  O   UNL     1      -6.016  -1.790 127.771  0.00  0.00    +0.000 OA
ATOM      4  H   UNL     1      -8.177   0.528 127.969  0.00  0.00    +0.000 HD
ENDROOT
BRANCH   1  14
ATOM      5  C   UNL     1      -4.962   1.219 128.269  0.00  0.00    +0.000 C 
ATOM      6  S   UNL     1      -5.023   1.540 126.471  0.00  0.00    +0.000 S 
ATOM      7  C   UNL     1      -4.337   3.265 126.730  0.00  0.00    +0.000 C 
ATOM      8  C   UNL     1      -4.755   4.090 125.510  0.00  0.00    +0.000 C 
ATOM      9  C   UNL     1      -2.809   3.083 126.820  0.00  0.00    +0.000 C 
ATOM     10  CA  UNL     1      -5.028   3.743 128.029  0.00  0.00    +0.000 C 
ATOM     11  N   UNL     1      -5.192   2.542 128.878  0.00  0.00    +0.000 N 
ATOM     12  C   UNL     1      -6.423   2.185 129.374  0.00  0.00    +0.000 C 
ATOM     13  O   UNL     1      -7.338   2.871 129.788  0.00  0.00    +0.000 OA
ATOM     14  CA  UNL     1      -6.230   0.698 128.962  0.00  0.00    +0.000 C 
BRANCH  10  15
ATOM     15  C   UNL     1      -4.410   4.916 128.829  0.00  0.00    +0.000 C 
ATOM     16  OXT UNL     1      -3.827   4.750 129.895  0.00  0.00    +0.000 OA
BRANCH  15  17
ATOM     17  O   UNL     1      -4.538   6.174 128.365  0.00  0.00    +0.000 OA
ATOM     18  H   UNL     1      -3.784   6.652 127.987  0.00  0.00    +0.000 HD
ENDBRANCH  15  17
ENDBRANCH  10  15
ENDBRANCH   1  14
BRANCH   2  19
ATOM     19  C   UNL     1      -8.114  -1.742 126.753  0.00  0.00    +0.000 A 
ATOM     20  C   UNL     1      -8.823  -2.911 126.927  0.00  0.00    +0.000 A 
ATOM     21  C   UNL     1      -8.805  -4.002 127.914  0.00  0.00    +0.000 C 
ATOM     22  O   UNL     1      -9.785  -3.002 125.971  0.00  0.00    +0.000 OA
ATOM     23  N   UNL     1      -9.733  -1.893 125.152  0.00  0.00    +0.000 NA
ATOM     24  C   UNL     1      -8.728  -1.137 125.618  0.00  0.00    +0.000 A 
BRANCH  24  25
ATOM     25  C   UNL     1      -8.305   0.071 124.928  0.00  0.00    +0.000 A 
ATOM     26  C   UNL     1      -8.885   1.313 125.207  0.00  0.00    +0.000 A 
ATOM     27  C   UNL     1      -8.538   2.427 124.440  0.00  0.00    +0.000 A 
ATOM     28  C   UNL     1      -7.551   2.324 123.458  0.00  0.00    +0.000 A 
ATOM     29  C   UNL     1      -6.941   1.098 123.207  0.00  0.00    +0.000 A 
ATOM     30  C   UNL     1      -7.323  -0.026 123.933  0.00  0.00    +0.000 A 
ENDBRANCH  24  25
ENDBRANCH   2  19
TORSDOF 5
ENDMDL
