MODEL 1
REMARK VINA RESULT:      -6.4      0.000      0.000
REMARK  Name = Oxamniquine
REMARK  8 active torsions:
REMARK  status: ('A' for Active; 'I' for Inactive)
REMARK    1  A    between atoms: C_1  and  C_2
REMARK    2  A    between atoms: C_2  and  C_3
REMARK    3  A    between atoms: C_2  and  N_4
REMARK    4  A    between atoms: N_4  and  C_5
REMARK    5  A    between atoms: C_5  and  C_6
REMARK    6  A    between atoms: C_11  and  C_12
REMARK    7  A    between atoms: C_12  and  O_13
REMARK    8  A    between atoms: C_14  and  N_18
REMARK                            x       y       z     vdW  Elec       q    Type
REMARK                         _______ _______ _______ _____ _____    ______ ____
ROOT
ATOM      1  C   UNL     1      -7.781   0.184 125.919  0.00  0.00    +0.000 C 
ATOM      2  C   UNL     1      -9.292   0.425 125.859  0.00  0.00    +0.000 C 
ATOM      3  C   UNL     1      -9.741   0.888 124.474  0.00  0.00    +0.000 C 
ATOM      4  C   UNL     1      -8.731   1.796 123.804  0.00  0.00    +0.000 A 
ATOM      5  C   UNL     1      -9.040   2.402 122.578  0.00  0.00    +0.000 A 
ATOM      6  C   UNL     1      -8.116   3.219 121.861  0.00  0.00    +0.000 A 
ATOM      7  C   UNL     1      -6.813   3.312 122.395  0.00  0.00    +0.000 A 
ATOM      8  C   UNL     1      -6.514   2.706 123.640  0.00  0.00    +0.000 A 
ATOM      9  C   UNL     1      -7.466   1.995 124.367  0.00  0.00    +0.000 A 
ATOM     10  N   UNL     1      -7.152   1.484 125.638  0.00  0.00    +0.000 N 
ATOM     11  H   UNL     1      -6.191   1.589 125.946  0.00  0.00    +0.000 HD
ENDROOT
BRANCH   7  12
ATOM     12  N   UNL     1      -5.674   4.032 121.778  0.00  0.00    +0.000 N 
ATOM     13  O   UNL     1      -5.114   4.931 122.413  0.00  0.00    +0.000 OA
ATOM     14  O   UNL     1      -5.304   3.680 120.652  0.00  0.00    +0.000 OA
ENDBRANCH   7  12
BRANCH   1  15
ATOM     15  C   UNL     1      -7.193  -0.879 124.952  0.00  0.00    +0.000 C 
BRANCH  15  16
ATOM     16  N   UNL     1      -7.711  -2.238 125.088  0.00  0.00    +0.000 NA
ATOM     17  H   UNL     1      -7.034  -2.819 125.582  0.00  0.00    +0.000 HD
BRANCH  16  19
ATOM     18  C   UNL     1      -9.472  -3.259 123.776  0.00  0.00    +0.000 C 
ATOM     19  C   UNL     1      -8.011  -2.822 123.771  0.00  0.00    +0.000 C 
ATOM     20  C   UNL     1      -7.786  -1.841 122.610  0.00  0.00    +0.000 C 
ENDBRANCH  16  19
ENDBRANCH  15  16
ENDBRANCH   1  15
BRANCH   6  21
ATOM     21  C   UNL     1      -8.742   3.853 120.629  0.00  0.00    +0.000 C 
BRANCH  21  22
ATOM     22  O   UNL     1      -7.974   4.232 119.512  0.00  0.00    +0.000 OA
ATOM     23  H   UNL     1      -7.510   3.454 119.156  0.00  0.00    +0.000 HD
ENDBRANCH  21  22
ENDBRANCH   6  21
TORSDOF 6
ENDMDL
MODEL 2
REMARK VINA RESULT:      -6.2      2.441      3.589
REMARK  Name = Oxamniquine
REMARK  8 active torsions:
REMARK  status: ('A' for Active; 'I' for Inactive)
REMARK    1  A    between atoms: C_1  and  C_2
REMARK    2  A    between atoms: C_2  and  C_3
REMARK    3  A    between atoms: C_2  and  N_4
REMARK    4  A    between atoms: N_4  and  C_5
REMARK    5  A    between atoms: C_5  and  C_6
REMARK    6  A    between atoms: C_11  and  C_12
REMARK    7  A    between atoms: C_12  and  O_13
REMARK    8  A    between atoms: C_14  and  N_18
REMARK                            x       y       z     vdW  Elec       q    Type
REMARK                         _______ _______ _______ _____ _____    ______ ____
ROOT
ATOM      1  C   UNL     1      -8.747  -3.063 125.382  0.00  0.00    +0.000 C 
ATOM      2  C   UNL     1      -9.470  -3.280 124.050  0.00  0.00    +0.000 C 
ATOM      3  C   UNL     1      -9.178  -2.158 123.054  0.00  0.00    +0.000 C 
ATOM      4  C   UNL     1      -9.055  -0.804 123.717  0.00  0.00    +0.000 A 
ATOM      5  C   UNL     1      -8.903   0.349 122.932  0.00  0.00    +0.000 A 
ATOM      6  C   UNL     1      -8.721   1.649 123.489  0.00  0.00    +0.000 A 
ATOM      7  C   UNL     1      -8.592   1.720 124.893  0.00  0.00    +0.000 A 
ATOM      8  C   UNL     1      -8.758   0.553 125.678  0.00  0.00    +0.000 A 
ATOM      9  C   UNL     1      -9.033  -0.689 125.111  0.00  0.00    +0.000 A 
ATOM     10  N   UNL     1      -9.277  -1.805 125.931  0.00  0.00    +0.000 N 
ATOM     11  H   UNL     1      -9.159  -1.670 126.929  0.00  0.00    +0.000 HD
ENDROOT
BRANCH   7  12
ATOM     12  N   UNL     1      -8.314   2.947 125.675  0.00  0.00    +0.000 N 
ATOM     13  O   UNL     1      -7.522   2.892 126.621  0.00  0.00    +0.000 OA
ATOM     14  O   UNL     1      -8.868   3.996 125.329  0.00  0.00    +0.000 OA
ENDBRANCH   7  12
BRANCH   1  15
ATOM     15  C   UNL     1      -7.197  -2.981 125.344  0.00  0.00    +0.000 C 
BRANCH  15  16
ATOM     16  N   UNL     1      -6.520  -3.897 124.430  0.00  0.00    +0.000 NA
ATOM     17  H   UNL     1      -6.324  -4.778 124.905  0.00  0.00    +0.000 HD
BRANCH  16  19
ATOM     18  C   UNL     1      -4.355  -4.451 123.498  0.00  0.00    +0.000 C 
ATOM     19  C   UNL     1      -5.272  -3.308 123.922  0.00  0.00    +0.000 C 
ATOM     20  C   UNL     1      -5.490  -2.371 122.725  0.00  0.00    +0.000 C 
ENDBRANCH  16  19
ENDBRANCH  15  16
ENDBRANCH   1  15
BRANCH   6  21
ATOM     21  C   UNL     1      -8.709   2.736 122.425  0.00  0.00    +0.000 C 
BRANCH  21  22
ATOM     22  O   UNL     1      -7.771   3.785 122.439  0.00  0.00    +0.000 OA
ATOM     23  H   UNL     1      -7.131   3.661 121.716  0.00  0.00    +0.000 HD
ENDBRANCH  21  22
ENDBRANCH   6  21
TORSDOF 6
ENDMDL
MODEL 3
REMARK VINA RESULT:      -6.0      4.599      6.980
REMARK  Name = Oxamniquine
REMARK  8 active torsions:
REMARK  status: ('A' for Active; 'I' for Inactive)
REMARK    1  A    between atoms: C_1  and  C_2
REMARK    2  A    between atoms: C_2  and  C_3
REMARK    3  A    between atoms: C_2  and  N_4
REMARK    4  A    between atoms: N_4  and  C_5
REMARK    5  A    between atoms: C_5  and  C_6
REMARK    6  A    between atoms: C_11  and  C_12
REMARK    7  A    between atoms: C_12  and  O_13
REMARK    8  A    between atoms: C_14  and  N_18
REMARK                            x       y       z     vdW  Elec       q    Type
REMARK                         _______ _______ _______ _____ _____    ______ ____
ROOT
ATOM      1  C   UNL     1      -7.912  -1.969 123.100  0.00  0.00    +0.000 C 
ATOM      2  C   UNL     1      -9.017  -3.010 123.301  0.00  0.00    +0.000 C 
ATOM      3  C   UNL     1      -9.473  -3.082 124.757  0.00  0.00    +0.000 C 
ATOM      4  C   UNL     1      -8.338  -2.882 125.738  0.00  0.00    +0.000 A 
ATOM      5  C   UNL     1      -8.565  -3.035 127.114  0.00  0.00    +0.000 A 
ATOM      6  C   UNL     1      -7.559  -2.803 128.097  0.00  0.00    +0.000 A 
ATOM      7  C   UNL     1      -6.325  -2.302 127.630  0.00  0.00    +0.000 A 
ATOM      8  C   UNL     1      -6.100  -2.163 126.238  0.00  0.00    +0.000 A 
ATOM      9  C   UNL     1      -7.070  -2.490 125.294  0.00  0.00    +0.000 A 
ATOM     10  N   UNL     1      -6.776  -2.419 123.921  0.00  0.00    +0.000 N 
ATOM     11  H   UNL     1      -5.868  -2.045 123.669  0.00  0.00    +0.000 HD
ENDROOT
BRANCH   7  12
ATOM     12  N   UNL     1      -5.173  -1.912 128.475  0.00  0.00    +0.000 N 
ATOM     13  O   UNL     1      -4.985  -0.717 128.724  0.00  0.00    +0.000 OA
ATOM     14  O   UNL     1      -4.454  -2.809 128.929  0.00  0.00    +0.000 OA
ENDBRANCH   7  12
BRANCH   1  15
ATOM     15  C   UNL     1      -8.245  -0.498 123.469  0.00  0.00    +0.000 C 
BRANCH  15  16
ATOM     16  N   UNL     1      -9.642  -0.095 123.332  0.00  0.00    +0.000 NA
ATOM     17  H   UNL     1      -9.835   0.163 122.365  0.00  0.00    +0.000 HD
BRANCH  16  19
ATOM     18  C   UNL     1      -9.675   0.584 125.657  0.00  0.00    +0.000 C 
ATOM     19  C   UNL     1      -9.957   1.030 124.226  0.00  0.00    +0.000 C 
ATOM     20  C   UNL     1      -9.133   2.291 123.924  0.00  0.00    +0.000 C 
ENDBRANCH  16  19
ENDBRANCH  15  16
ENDBRANCH   1  15
BRANCH   6  21
ATOM     21  C   UNL     1      -8.029  -3.160 129.499  0.00  0.00    +0.000 C 
BRANCH  21  22
ATOM     22  O   UNL     1      -7.131  -3.534 130.515  0.00  0.00    +0.000 OA
ATOM     23  H   UNL     1      -6.624  -4.315 130.232  0.00  0.00    +0.000 HD
ENDBRANCH  21  22
ENDBRANCH   6  21
TORSDOF 6
ENDMDL
MODEL 4
REMARK VINA RESULT:      -5.7      4.606      6.271
REMARK  Name = Oxamniquine
REMARK  8 active torsions:
REMARK  status: ('A' for Active; 'I' for Inactive)
REMARK    1  A    between atoms: C_1  and  C_2
REMARK    2  A    between atoms: C_2  and  C_3
REMARK    3  A    between atoms: C_2  and  N_4
REMARK    4  A    between atoms: N_4  and  C_5
REMARK    5  A    between atoms: C_5  and  C_6
REMARK    6  A    between atoms: C_11  and  C_12
REMARK    7  A    between atoms: C_12  and  O_13
REMARK    8  A    between atoms: C_14  and  N_18
REMARK                            x       y       z     vdW  Elec       q    Type
REMARK                         _______ _______ _______ _____ _____    ______ ____
ROOT
ATOM      1  C   UNL     1      -6.936  -1.811 129.516  0.00  0.00    +0.000 C 
ATOM      2  C   UNL     1      -8.093  -2.788 129.741  0.00  0.00    +0.000 C 
ATOM      3  C   UNL     1      -8.412  -3.592 128.481  0.00  0.00    +0.000 C 
ATOM      4  C   UNL     1      -8.247  -2.784 127.213  0.00  0.00    +0.000 A 
ATOM      5  C   UNL     1      -8.613  -3.339 125.977  0.00  0.00    +0.000 A 
ATOM      6  C   UNL     1      -8.429  -2.659 124.737  0.00  0.00    +0.000 A 
ATOM      7  C   UNL     1      -7.754  -1.420 124.791  0.00  0.00    +0.000 A 
ATOM      8  C   UNL     1      -7.400  -0.863 126.045  0.00  0.00    +0.000 A 
ATOM      9  C   UNL     1      -7.680  -1.505 127.248  0.00  0.00    +0.000 A 
ATOM     10  N   UNL     1      -7.390  -0.878 128.472  0.00  0.00    +0.000 N 
ATOM     11  H   UNL     1      -6.901   0.009 128.424  0.00  0.00    +0.000 HD
ENDROOT
BRANCH   7  12
ATOM     12  N   UNL     1      -7.381  -0.585 123.626  0.00  0.00    +0.000 N 
ATOM     13  O   UNL     1      -6.513  -0.991 122.846  0.00  0.00    +0.000 OA
ATOM     14  O   UNL     1      -7.981   0.483 123.459  0.00  0.00    +0.000 OA
ENDBRANCH   7  12
BRANCH   1  15
ATOM     15  C   UNL     1      -5.569  -2.413 129.092  0.00  0.00    +0.000 C 
BRANCH  15  16
ATOM     16  N   UNL     1      -4.400  -1.555 129.264  0.00  0.00    +0.000 NA
ATOM     17  H   UNL     1      -4.100  -1.192 128.360  0.00  0.00    +0.000 HD
BRANCH  16  19
ATOM     18  C   UNL     1      -3.711  -2.597 131.339  0.00  0.00    +0.000 C 
ATOM     19  C   UNL     1      -3.297  -2.289 129.904  0.00  0.00    +0.000 C 
ATOM     20  C   UNL     1      -2.952  -3.604 129.189  0.00  0.00    +0.000 C 
ENDBRANCH  16  19
ENDBRANCH  15  16
ENDBRANCH   1  15
BRANCH   6  21
ATOM     21  C   UNL     1      -9.022  -3.426 123.565  0.00  0.00    +0.000 C 
BRANCH  21  22
ATOM     22  O   UNL     1     -10.394  -3.374 123.255  0.00  0.00    +0.000 OA
ATOM     23  H   UNL     1     -10.795  -4.248 123.403  0.00  0.00    +0.000 HD
ENDBRANCH  21  22
ENDBRANCH   6  21
TORSDOF 6
ENDMDL
MODEL 5
REMARK VINA RESULT:      -5.6      3.670      6.350
REMARK  Name = Oxamniquine
REMARK  8 active torsions:
REMARK  status: ('A' for Active; 'I' for Inactive)
REMARK    1  A    between atoms: C_1  and  C_2
REMARK    2  A    between atoms: C_2  and  C_3
REMARK    3  A    between atoms: C_2  and  N_4
REMARK    4  A    between atoms: N_4  and  C_5
REMARK    5  A    between atoms: C_5  and  C_6
REMARK    6  A    between atoms: C_11  and  C_12
REMARK    7  A    between atoms: C_12  and  O_13
REMARK    8  A    between atoms: C_14  and  N_18
REMARK                            x       y       z     vdW  Elec       q    Type
REMARK                         _______ _______ _______ _____ _____    ______ ____
ROOT
ATOM      1  C   UNL     1      -8.184   3.322 123.781  0.00  0.00    +0.000 C 
ATOM      2  C   UNL     1      -7.012   3.643 124.713  0.00  0.00    +0.000 C 
ATOM      3  C   UNL     1      -6.093   2.438 124.907  0.00  0.00    +0.000 C 
ATOM      4  C   UNL     1      -6.847   1.126 124.948  0.00  0.00    +0.000 A 
ATOM      5  C   UNL     1      -6.164  -0.065 125.236  0.00  0.00    +0.000 A 
ATOM      6  C   UNL     1      -6.797  -1.342 125.231  0.00  0.00    +0.000 A 
ATOM      7  C   UNL     1      -8.146  -1.376 124.815  0.00  0.00    +0.000 A 
ATOM      8  C   UNL     1      -8.830  -0.167 124.538  0.00  0.00    +0.000 A 
ATOM      9  C   UNL     1      -8.212   1.076 124.645  0.00  0.00    +0.000 A 
ATOM     10  N   UNL     1      -8.950   2.256 124.445  0.00  0.00    +0.000 N 
ATOM     11  H   UNL     1      -9.912   2.144 124.144  0.00  0.00    +0.000 HD
ENDROOT
BRANCH   7  12
ATOM     12  N   UNL     1      -8.972  -2.595 124.653  0.00  0.00    +0.000 N 
ATOM     13  O   UNL     1      -8.714  -3.381 123.736  0.00  0.00    +0.000 OA
ATOM     14  O   UNL     1      -9.878  -2.796 125.470  0.00  0.00    +0.000 OA
ENDBRANCH   7  12
BRANCH   1  15
ATOM     15  C   UNL     1      -7.840   2.869 122.337  0.00  0.00    +0.000 C 
BRANCH  15  16
ATOM     16  N   UNL     1      -8.117   3.828 121.271  0.00  0.00    +0.000 NA
ATOM     17  H   UNL     1      -8.774   3.424 120.603  0.00  0.00    +0.000 HD
BRANCH  16  19
ATOM     18  C   UNL     1      -5.824   3.162 120.869  0.00  0.00    +0.000 C 
ATOM     19  C   UNL     1      -6.879   4.226 120.584  0.00  0.00    +0.000 C 
ATOM     20  C   UNL     1      -7.050   4.367 119.064  0.00  0.00    +0.000 C 
ENDBRANCH  16  19
ENDBRANCH  15  16
ENDBRANCH   1  15
BRANCH   6  21
ATOM     21  C   UNL     1      -5.865  -2.450 125.699  0.00  0.00    +0.000 C 
BRANCH  21  22
ATOM     22  O   UNL     1      -5.213  -3.309 124.794  0.00  0.00    +0.000 OA
ATOM     23  H   UNL     1      -4.249  -3.208 124.885  0.00  0.00    +0.000 HD
ENDBRANCH  21  22
ENDBRANCH   6  21
TORSDOF 6
ENDMDL
MODEL 6
REMARK VINA RESULT:      -5.6      2.518      4.234
REMARK  Name = Oxamniquine
REMARK  8 active torsions:
REMARK  status: ('A' for Active; 'I' for Inactive)
REMARK    1  A    between atoms: C_1  and  C_2
REMARK    2  A    between atoms: C_2  and  C_3
REMARK    3  A    between atoms: C_2  and  N_4
REMARK    4  A    between atoms: N_4  and  C_5
REMARK    5  A    between atoms: C_5  and  C_6
REMARK    6  A    between atoms: C_11  and  C_12
REMARK    7  A    between atoms: C_12  and  O_13
REMARK    8  A    between atoms: C_14  and  N_18
REMARK                            x       y       z     vdW  Elec       q    Type
REMARK                         _______ _______ _______ _____ _____    ______ ____
ROOT
ATOM      1  C   UNL     1      -6.734  -2.604 123.284  0.00  0.00    +0.000 C 
ATOM      2  C   UNL     1      -5.507  -2.751 124.189  0.00  0.00    +0.000 C 
ATOM      3  C   UNL     1      -5.567  -1.805 125.387  0.00  0.00    +0.000 C 
ATOM      4  C   UNL     1      -6.188  -0.468 125.048  0.00  0.00    +0.000 A 
ATOM      5  C   UNL     1      -6.213   0.557 126.006  0.00  0.00    +0.000 A 
ATOM      6  C   UNL     1      -6.835   1.819 125.776  0.00  0.00    +0.000 A 
ATOM      7  C   UNL     1      -7.531   1.966 124.557  0.00  0.00    +0.000 A 
ATOM      8  C   UNL     1      -7.491   0.931 123.591  0.00  0.00    +0.000 A 
ATOM      9  C   UNL     1      -6.793  -0.255 123.803  0.00  0.00    +0.000 A 
ATOM     10  N   UNL     1      -6.706  -1.220 122.785  0.00  0.00    +0.000 N 
ATOM     11  H   UNL     1      -7.239  -1.040 121.941  0.00  0.00    +0.000 HD
ENDROOT
BRANCH   7  12
ATOM     12  N   UNL     1      -8.317   3.153 124.146  0.00  0.00    +0.000 N 
ATOM     13  O   UNL     1      -8.435   3.411 122.944  0.00  0.00    +0.000 OA
ATOM     14  O   UNL     1      -8.856   3.829 125.030  0.00  0.00    +0.000 OA
ENDBRANCH   7  12
BRANCH   1  15
ATOM     15  C   UNL     1      -8.123  -2.881 123.919  0.00  0.00    +0.000 C 
BRANCH  15  16
ATOM     16  N   UNL     1      -8.140  -3.756 125.089  0.00  0.00    +0.000 NA
ATOM     17  H   UNL     1      -8.412  -4.699 124.812  0.00  0.00    +0.000 HD
BRANCH  16  19
ATOM     18  C   UNL     1      -8.432  -3.512 127.480  0.00  0.00    +0.000 C 
ATOM     19  C   UNL     1      -9.060  -3.246 126.116  0.00  0.00    +0.000 C 
ATOM     20  C   UNL     1      -9.344  -1.743 125.980  0.00  0.00    +0.000 C 
ENDBRANCH  16  19
ENDBRANCH  15  16
ENDBRANCH   1  15
BRANCH   6  21
ATOM     21  C   UNL     1      -6.610   2.791 126.925  0.00  0.00    +0.000 C 
BRANCH  21  22
ATOM     22  O   UNL     1      -6.419   4.168 126.711  0.00  0.00    +0.000 OA
ATOM     23  H   UNL     1      -6.404   4.632 127.567  0.00  0.00    +0.000 HD
ENDBRANCH  21  22
ENDBRANCH   6  21
TORSDOF 6
ENDMDL
MODEL 7
REMARK VINA RESULT:      -5.6      7.915     10.288
REMARK  Name = Oxamniquine
REMARK  8 active torsions:
REMARK  status: ('A' for Active; 'I' for Inactive)
REMARK    1  A    between atoms: C_1  and  C_2
REMARK    2  A    between atoms: C_2  and  C_3
REMARK    3  A    between atoms: C_2  and  N_4
REMARK    4  A    between atoms: N_4  and  C_5
REMARK    5  A    between atoms: C_5  and  C_6
REMARK    6  A    between atoms: C_11  and  C_12
REMARK    7  A    between atoms: C_12  and  O_13
REMARK    8  A    between atoms: C_14  and  N_18
REMARK                            x       y       z     vdW  Elec       q    Type
REMARK                         _______ _______ _______ _____ _____    ______ ____
ROOT
ATOM      1  C   UNL     1     -11.297   5.969 130.357  0.00  0.00    +0.000 C 
ATOM      2  C   UNL     1     -11.216   6.478 131.799  0.00  0.00    +0.000 C 
ATOM      3  C   UNL     1      -9.970   5.960 132.516  0.00  0.00    +0.000 C 
ATOM      4  C   UNL     1      -9.610   4.545 132.117  0.00  0.00    +0.000 A 
ATOM      5  C   UNL     1      -8.562   3.879 132.768  0.00  0.00    +0.000 A 
ATOM      6  C   UNL     1      -8.129   2.570 132.404  0.00  0.00    +0.000 A 
ATOM      7  C   UNL     1      -8.742   1.997 131.268  0.00  0.00    +0.000 A 
ATOM      8  C   UNL     1      -9.808   2.672 130.624  0.00  0.00    +0.000 A 
ATOM      9  C   UNL     1     -10.275   3.909 131.063  0.00  0.00    +0.000 A 
ATOM     10  N   UNL     1     -11.391   4.504 130.449  0.00  0.00    +0.000 N 
ATOM     11  H   UNL     1     -11.770   4.030 129.636  0.00  0.00    +0.000 HD
ENDROOT
BRANCH   7  12
ATOM     12  N   UNL     1      -8.392   0.691 130.662  0.00  0.00    +0.000 N 
ATOM     13  O   UNL     1      -8.582  -0.344 131.308  0.00  0.00    +0.000 OA
ATOM     14  O   UNL     1      -7.949   0.685 129.508  0.00  0.00    +0.000 OA
ENDBRANCH   7  12
BRANCH   1  15
ATOM     15  C   UNL     1     -10.128   6.340 129.405  0.00  0.00    +0.000 C 
BRANCH  15  16
ATOM     16  N   UNL     1      -9.818   7.761 129.280  0.00  0.00    +0.000 NA
ATOM     17  H   UNL     1     -10.040   8.242 130.152  0.00  0.00    +0.000 HD
BRANCH  16  19
ATOM     18  C   UNL     1     -10.636   7.342 127.040  0.00  0.00    +0.000 C 
ATOM     19  C   UNL     1     -10.562   8.368 128.166  0.00  0.00    +0.000 C 
ATOM     20  C   UNL     1     -11.987   8.792 128.551  0.00  0.00    +0.000 C 
ENDBRANCH  16  19
ENDBRANCH  15  16
ENDBRANCH   1  15
BRANCH   6  21
ATOM     21  C   UNL     1      -7.064   2.031 133.346  0.00  0.00    +0.000 C 
BRANCH  21  22
ATOM     22  O   UNL     1      -7.051   0.689 133.769  0.00  0.00    +0.000 OA
ATOM     23  H   UNL     1      -7.616   0.156 133.183  0.00  0.00    +0.000 HD
ENDBRANCH  21  22
ENDBRANCH   6  21
TORSDOF 6
ENDMDL
MODEL 8
REMARK VINA RESULT:      -5.6      8.270      9.951
REMARK  Name = Oxamniquine
REMARK  8 active torsions:
REMARK  status: ('A' for Active; 'I' for Inactive)
REMARK    1  A    between atoms: C_1  and  C_2
REMARK    2  A    between atoms: C_2  and  C_3
REMARK    3  A    between atoms: C_2  and  N_4
REMARK    4  A    between atoms: N_4  and  C_5
REMARK    5  A    between atoms: C_5  and  C_6
REMARK    6  A    between atoms: C_11  and  C_12
REMARK    7  A    between atoms: C_12  and  O_13
REMARK    8  A    between atoms: C_14  and  N_18
REMARK                            x       y       z     vdW  Elec       q    Type
REMARK                         _______ _______ _______ _____ _____    ______ ____
ROOT
ATOM      1  C   UNL     1     -11.298   5.709 131.175  0.00  0.00    +0.000 C 
ATOM      2  C   UNL     1     -11.201   7.042 130.427  0.00  0.00    +0.000 C 
ATOM      3  C   UNL     1      -9.778   7.323 129.947  0.00  0.00    +0.000 C 
ATOM      4  C   UNL     1      -8.725   6.844 130.922  0.00  0.00    +0.000 A 
ATOM      5  C   UNL     1      -7.371   7.129 130.688  0.00  0.00    +0.000 A 
ATOM      6  C   UNL     1      -6.322   6.658 131.530  0.00  0.00    +0.000 A 
ATOM      7  C   UNL     1      -6.697   5.787 132.577  0.00  0.00    +0.000 A 
ATOM      8  C   UNL     1      -8.067   5.515 132.813  0.00  0.00    +0.000 A 
ATOM      9  C   UNL     1      -9.078   6.068 132.032  0.00  0.00    +0.000 A 
ATOM     10  N   UNL     1     -10.428   5.841 132.354  0.00  0.00    +0.000 N 
ATOM     11  H   UNL     1     -10.611   5.200 133.117  0.00  0.00    +0.000 HD
ENDROOT
BRANCH   7  12
ATOM     12  N   UNL     1      -5.770   5.115 133.517  0.00  0.00    +0.000 N 
ATOM     13  O   UNL     1      -5.617   3.892 133.441  0.00  0.00    +0.000 OA
ATOM     14  O   UNL     1      -5.157   5.815 134.331  0.00  0.00    +0.000 OA
ENDBRANCH   7  12
BRANCH   1  15
ATOM     15  C   UNL     1     -10.898   4.426 130.397  0.00  0.00    +0.000 C 
BRANCH  15  16
ATOM     16  N   UNL     1     -10.993   3.166 131.128  0.00  0.00    +0.000 NA
ATOM     17  H   UNL     1     -11.145   3.352 132.120  0.00  0.00    +0.000 HD
BRANCH  16  19
ATOM     18  C   UNL     1      -8.829   3.136 130.041  0.00  0.00    +0.000 C 
ATOM     19  C   UNL     1      -9.777   2.358 130.947  0.00  0.00    +0.000 C 
ATOM     20  C   UNL     1      -9.060   2.041 132.268  0.00  0.00    +0.000 C 
ENDBRANCH  16  19
ENDBRANCH  15  16
ENDBRANCH   1  15
BRANCH   6  21
ATOM     21  C   UNL     1      -4.965   7.212 131.126  0.00  0.00    +0.000 C 
BRANCH  21  22
ATOM     22  O   UNL     1      -4.691   7.634 129.811  0.00  0.00    +0.000 OA
ATOM     23  H   UNL     1      -3.900   7.175 129.479  0.00  0.00    +0.000 HD
ENDBRANCH  21  22
ENDBRANCH   6  21
TORSDOF 6
ENDMDL
MODEL 9
REMARK VINA RESULT:      -5.5      3.302      4.336
REMARK  Name = Oxamniquine
REMARK  8 active torsions:
REMARK  status: ('A' for Active; 'I' for Inactive)
REMARK    1  A    between atoms: C_1  and  C_2
REMARK    2  A    between atoms: C_2  and  C_3
REMARK    3  A    between atoms: C_2  and  N_4
REMARK    4  A    between atoms: N_4  and  C_5
REMARK    5  A    between atoms: C_5  and  C_6
REMARK    6  A    between atoms: C_11  and  C_12
REMARK    7  A    between atoms: C_12  and  O_13
REMARK    8  A    between atoms: C_14  and  N_18
REMARK                            x       y       z     vdW  Elec       q    Type
REMARK                         _______ _______ _______ _____ _____    ______ ____
ROOT
ATOM      1  C   UNL     1      -8.978  -0.383 123.906  0.00  0.00    +0.000 C 
ATOM      2  C   UNL     1      -7.573  -0.617 123.344  0.00  0.00    +0.000 C 
ATOM      3  C   UNL     1      -6.504   0.099 124.168  0.00  0.00    +0.000 C 
ATOM      4  C   UNL     1      -6.970   1.438 124.696  0.00  0.00    +0.000 A 
ATOM      5  C   UNL     1      -6.071   2.275 125.373  0.00  0.00    +0.000 A 
ATOM      6  C   UNL     1      -6.455   3.521 125.949  0.00  0.00    +0.000 A 
ATOM      7  C   UNL     1      -7.829   3.841 125.902  0.00  0.00    +0.000 A 
ATOM      8  C   UNL     1      -8.728   2.995 125.205  0.00  0.00    +0.000 A 
ATOM      9  C   UNL     1      -8.307   1.831 124.567  0.00  0.00    +0.000 A 
ATOM     10  N   UNL     1      -9.215   1.067 123.814  0.00  0.00    +0.000 N 
ATOM     11  H   UNL     1     -10.185   1.362 123.835  0.00  0.00    +0.000 HD
ENDROOT
BRANCH   7  12
ATOM     12  N   UNL     1      -8.463   5.035 126.508  0.00  0.00    +0.000 N 
ATOM     13  O   UNL     1      -9.005   5.868 125.774  0.00  0.00    +0.000 OA
ATOM     14  O   UNL     1      -8.450   5.139 127.739  0.00  0.00    +0.000 OA
ENDBRANCH   7  12
BRANCH   1  15
ATOM     15  C   UNL     1      -9.247  -0.845 125.363  0.00  0.00    +0.000 C 
BRANCH  15  16
ATOM     16  N   UNL     1      -9.652  -2.237 125.540  0.00  0.00    +0.000 NA
ATOM     17  H   UNL     1     -10.400  -2.295 126.231  0.00  0.00    +0.000 HD
BRANCH  16  19
ATOM     18  C   UNL     1      -8.905  -3.786 127.245  0.00  0.00    +0.000 C 
ATOM     19  C   UNL     1      -8.513  -3.069 125.957  0.00  0.00    +0.000 C 
ATOM     20  C   UNL     1      -8.109  -4.112 124.905  0.00  0.00    +0.000 C 
ENDBRANCH  16  19
ENDBRANCH  15  16
ENDBRANCH   1  15
BRANCH   6  21
ATOM     21  C   UNL     1      -5.268   4.287 126.513  0.00  0.00    +0.000 C 
BRANCH  21  22
ATOM     22  O   UNL     1      -5.357   5.036 127.701  0.00  0.00    +0.000 OA
ATOM     23  H   UNL     1      -4.813   5.839 127.622  0.00  0.00    +0.000 HD
ENDBRANCH  21  22
ENDBRANCH   6  21
TORSDOF 6
ENDMDL
