MODEL 1
REMARK VINA RESULT:      -7.6      0.000      0.000
REMARK  Name = Oxandrolone
REMARK  4 active torsions:
REMARK  status: ('A' for Active; 'I' for Inactive)
REMARK    1  A    between atoms: C_5  and  C_6
REMARK    2  A    between atoms: C_5  and  O_7
REMARK    3  A    between atoms: C_8  and  C_9
REMARK    4  A    between atoms: C_25  and  C_26
REMARK                            x       y       z     vdW  Elec       q    Type
REMARK                         _______ _______ _______ _____ _____    ______ ____
ROOT
ATOM      1  C   UNL     1      -7.356  -2.081 123.242  0.00  0.00    +0.000 C 
ATOM      2  C   UNL     1      -6.410  -1.442 122.399  0.00  0.00    +0.000 C 
ATOM      3  C   UNL     1      -6.223  -1.234 123.849  0.00  0.00    +0.000 C 
ATOM      4  C   UNL     1      -7.318  -2.580 125.026  0.00  0.00    +0.000 C 
ATOM      5  C   UNL     1      -8.261  -3.895 124.566  0.00  0.00    +0.000 C 
ATOM      6  C   UNL     1      -6.055  -2.688 124.471  0.00  0.00    +0.000 C 
ATOM      7  C   UNL     1      -5.295  -3.863 124.062  0.00  0.00    +0.000 C 
ATOM      8  C   UNL     1      -5.505  -1.590 125.866  0.00  0.00    +0.000 C 
ATOM      9  C   UNL     1      -6.764  -0.552 126.305  0.00  0.00    +0.000 C 
ATOM     10  C   UNL     1      -7.721   0.157 125.171  0.00  0.00    +0.000 C 
ATOM     11  C   UNL     1      -8.461  -0.856 124.039  0.00  0.00    +0.000 C 
ATOM     12  C   UNL     1      -9.144  -0.108 122.922  0.00  0.00    +0.000 C 
ATOM     13  C   UNL     1     -10.055   0.963 123.458  0.00  0.00    +0.000 C 
ATOM     14  C   UNL     1      -9.370   1.928 124.427  0.00  0.00    +0.000 C 
ATOM     15  C   UNL     1      -8.405   2.861 123.673  0.00  0.00    +0.000 C 
ATOM     16  C   UNL     1      -7.972   3.788 124.764  0.00  0.00    +0.000 C 
ATOM     17  O   UNL     1      -8.640   4.700 125.231  0.00  0.00    +0.000 OA
ATOM     18  O   UNL     1      -7.010   3.145 125.472  0.00  0.00    +0.000 OA
ATOM     19  C   UNL     1      -7.722   2.310 126.402  0.00  0.00    +0.000 C 
ATOM     20  C   UNL     1      -8.653   1.246 125.671  0.00  0.00    +0.000 C 
ATOM     21  C   UNL     1      -9.683   0.550 126.549  0.00  0.00    +0.000 C 
ENDROOT
BRANCH   4  22
ATOM     22  O   UNL     1      -6.957  -3.172 126.347  0.00  0.00    +0.000 OA
ATOM     23  H   UNL     1      -7.130  -4.127 126.423  0.00  0.00    +0.000 HD
ENDBRANCH   4  22
TORSDOF 1
ENDMDL
MODEL 2
REMARK VINA RESULT:      -7.5      1.635      3.301
REMARK  Name = Oxandrolone
REMARK  4 active torsions:
REMARK  status: ('A' for Active; 'I' for Inactive)
REMARK    1  A    between atoms: C_5  and  C_6
REMARK    2  A    between atoms: C_5  and  O_7
REMARK    3  A    between atoms: C_8  and  C_9
REMARK    4  A    between atoms: C_25  and  C_26
REMARK                            x       y       z     vdW  Elec       q    Type
REMARK                         _______ _______ _______ _____ _____    ______ ____
ROOT
ATOM      1  C   UNL     1      -6.412  -1.672 125.579  0.00  0.00    +0.000 C 
ATOM      2  C   UNL     1      -7.185  -1.682 126.768  0.00  0.00    +0.000 C 
ATOM      3  C   UNL     1      -7.880  -1.212 125.553  0.00  0.00    +0.000 C 
ATOM      4  C   UNL     1      -6.864  -1.689 123.782  0.00  0.00    +0.000 C 
ATOM      5  C   UNL     1      -5.470  -2.601 123.551  0.00  0.00    +0.000 C 
ATOM      6  C   UNL     1      -7.786  -2.414 124.516  0.00  0.00    +0.000 C 
ATOM      7  C   UNL     1      -7.979  -3.853 124.641  0.00  0.00    +0.000 C 
ATOM      8  C   UNL     1      -9.061  -1.309 123.734  0.00  0.00    +0.000 C 
ATOM      9  C   UNL     1      -8.388   0.210 123.430  0.00  0.00    +0.000 C 
ATOM     10  C   UNL     1      -7.383   0.933 124.514  0.00  0.00    +0.000 C 
ATOM     11  C   UNL     1      -6.048   0.042 125.044  0.00  0.00    +0.000 C 
ATOM     12  C   UNL     1      -5.307   0.696 126.183  0.00  0.00    +0.000 C 
ATOM     13  C   UNL     1      -4.988   2.133 125.874  0.00  0.00    +0.000 C 
ATOM     14  C   UNL     1      -6.206   2.962 125.464  0.00  0.00    +0.000 C 
ATOM     15  C   UNL     1      -7.115   3.227 126.678  0.00  0.00    +0.000 C 
ATOM     16  C   UNL     1      -8.136   4.151 126.091  0.00  0.00    +0.000 C 
ATOM     17  O   UNL     1      -7.964   5.336 125.841  0.00  0.00    +0.000 OA
ATOM     18  O   UNL     1      -9.028   3.380 125.421  0.00  0.00    +0.000 OA
ATOM     19  C   UNL     1      -8.433   3.147 124.133  0.00  0.00    +0.000 C 
ATOM     20  C   UNL     1      -7.039   2.385 124.240  0.00  0.00    +0.000 C 
ATOM     21  C   UNL     1      -6.183   2.386 122.981  0.00  0.00    +0.000 C 
ENDROOT
BRANCH   4  22
ATOM     22  O   UNL     1      -7.429  -2.028 122.444  0.00  0.00    +0.000 OA
ATOM     23  H   UNL     1      -8.166  -1.459 122.160  0.00  0.00    +0.000 HD
ENDBRANCH   4  22
TORSDOF 1
ENDMDL
MODEL 3
REMARK VINA RESULT:      -7.5      1.552      2.152
REMARK  Name = Oxandrolone
REMARK  4 active torsions:
REMARK  status: ('A' for Active; 'I' for Inactive)
REMARK    1  A    between atoms: C_5  and  C_6
REMARK    2  A    between atoms: C_5  and  O_7
REMARK    3  A    between atoms: C_8  and  C_9
REMARK    4  A    between atoms: C_25  and  C_26
REMARK                            x       y       z     vdW  Elec       q    Type
REMARK                         _______ _______ _______ _____ _____    ______ ____
ROOT
ATOM      1  C   UNL     1      -7.072  -1.985 123.625  0.00  0.00    +0.000 C 
ATOM      2  C   UNL     1      -5.752  -2.108 124.133  0.00  0.00    +0.000 C 
ATOM      3  C   UNL     1      -6.805  -1.834 125.133  0.00  0.00    +0.000 C 
ATOM      4  C   UNL     1      -8.744  -2.161 124.404  0.00  0.00    +0.000 C 
ATOM      5  C   UNL     1      -9.249  -2.779 122.924  0.00  0.00    +0.000 C 
ATOM      6  C   UNL     1      -7.844  -3.031 124.996  0.00  0.00    +0.000 C 
ATOM      7  C   UNL     1      -7.689  -4.473 124.860  0.00  0.00    +0.000 C 
ATOM      8  C   UNL     1      -8.354  -2.237 126.599  0.00  0.00    +0.000 C 
ATOM      9  C   UNL     1      -8.780  -0.625 126.326  0.00  0.00    +0.000 C 
ATOM     10  C   UNL     1      -7.914   0.326 125.301  0.00  0.00    +0.000 C 
ATOM     11  C   UNL     1      -7.661  -0.254 123.734  0.00  0.00    +0.000 C 
ATOM     12  C   UNL     1      -6.690   0.578 122.937  0.00  0.00    +0.000 C 
ATOM     13  C   UNL     1      -7.050   2.038 122.987  0.00  0.00    +0.000 C 
ATOM     14  C   UNL     1      -7.208   2.586 124.406  0.00  0.00    +0.000 C 
ATOM     15  C   UNL     1      -5.837   2.706 125.097  0.00  0.00    +0.000 C 
ATOM     16  C   UNL     1      -6.207   3.381 126.380  0.00  0.00    +0.000 C 
ATOM     17  O   UNL     1      -6.482   4.566 126.509  0.00  0.00    +0.000 OA
ATOM     18  O   UNL     1      -6.690   2.421 127.207  0.00  0.00    +0.000 OA
ATOM     19  C   UNL     1      -8.071   2.266 126.839  0.00  0.00    +0.000 C 
ATOM     20  C   UNL     1      -8.246   1.807 125.324  0.00  0.00    +0.000 C 
ATOM     21  C   UNL     1      -9.649   1.935 124.748  0.00  0.00    +0.000 C 
ENDROOT
BRANCH   4  22
ATOM     22  O   UNL     1      -9.944  -2.658 125.137  0.00  0.00    +0.000 OA
ATOM     23  H   UNL     1     -10.727  -2.805 124.577  0.00  0.00    +0.000 HD
ENDBRANCH   4  22
TORSDOF 1
ENDMDL
MODEL 4
REMARK VINA RESULT:      -7.5      2.978      5.656
REMARK  Name = Oxandrolone
REMARK  4 active torsions:
REMARK  status: ('A' for Active; 'I' for Inactive)
REMARK    1  A    between atoms: C_5  and  C_6
REMARK    2  A    between atoms: C_5  and  O_7
REMARK    3  A    between atoms: C_8  and  C_9
REMARK    4  A    between atoms: C_25  and  C_26
REMARK                            x       y       z     vdW  Elec       q    Type
REMARK                         _______ _______ _______ _____ _____    ______ ____
ROOT
ATOM      1  C   UNL     1      -6.750  -1.108 125.143  0.00  0.00    +0.000 C 
ATOM      2  C   UNL     1      -5.657  -1.911 124.724  0.00  0.00    +0.000 C 
ATOM      3  C   UNL     1      -6.716  -2.609 125.483  0.00  0.00    +0.000 C 
ATOM      4  C   UNL     1      -8.493  -1.507 125.627  0.00  0.00    +0.000 C 
ATOM      5  C   UNL     1      -8.909  -0.035 124.927  0.00  0.00    +0.000 C 
ATOM      6  C   UNL     1      -8.054  -2.385 124.652  0.00  0.00    +0.000 C 
ATOM      7  C   UNL     1      -8.367  -2.459 123.231  0.00  0.00    +0.000 C 
ATOM      8  C   UNL     1      -8.541  -3.725 125.845  0.00  0.00    +0.000 C 
ATOM      9  C   UNL     1      -8.351  -3.175 127.430  0.00  0.00    +0.000 C 
ATOM     10  C   UNL     1      -7.052  -2.265 127.869  0.00  0.00    +0.000 C 
ATOM     11  C   UNL     1      -6.738  -0.875 126.960  0.00  0.00    +0.000 C 
ATOM     12  C   UNL     1      -5.421  -0.225 127.298  0.00  0.00    +0.000 C 
ATOM     13  C   UNL     1      -5.277  -0.019 128.781  0.00  0.00    +0.000 C 
ATOM     14  C   UNL     1      -5.488  -1.290 129.604  0.00  0.00    +0.000 C 
ATOM     15  C   UNL     1      -4.298  -2.253 129.430  0.00  0.00    +0.000 C 
ATOM     16  C   UNL     1      -4.641  -3.330 130.411  0.00  0.00    +0.000 C 
ATOM     17  O   UNL     1      -4.523  -3.252 131.626  0.00  0.00    +0.000 OA
ATOM     18  O   UNL     1      -5.553  -4.135 129.811  0.00  0.00    +0.000 OA
ATOM     19  C   UNL     1      -6.820  -3.487 130.015  0.00  0.00    +0.000 C 
ATOM     20  C   UNL     1      -6.870  -2.037 129.358  0.00  0.00    +0.000 C 
ATOM     21  C   UNL     1      -8.027  -1.149 129.794  0.00  0.00    +0.000 C 
ENDROOT
BRANCH   4  22
ATOM     22  O   UNL     1      -9.899  -2.003 125.660  0.00  0.00    +0.000 OA
ATOM     23  H   UNL     1     -10.393  -1.877 124.831  0.00  0.00    +0.000 HD
ENDBRANCH   4  22
TORSDOF 1
ENDMDL
MODEL 5
REMARK VINA RESULT:      -7.4      2.349      4.114
REMARK  Name = Oxandrolone
REMARK  4 active torsions:
REMARK  status: ('A' for Active; 'I' for Inactive)
REMARK    1  A    between atoms: C_5  and  C_6
REMARK    2  A    between atoms: C_5  and  O_7
REMARK    3  A    between atoms: C_8  and  C_9
REMARK    4  A    between atoms: C_25  and  C_26
REMARK                            x       y       z     vdW  Elec       q    Type
REMARK                         _______ _______ _______ _____ _____    ______ ____
ROOT
ATOM      1  C   UNL     1      -8.007  -2.949 125.824  0.00  0.00    +0.000 C 
ATOM      2  C   UNL     1      -9.271  -3.124 126.445  0.00  0.00    +0.000 C 
ATOM      3  C   UNL     1      -9.087  -1.859 125.704  0.00  0.00    +0.000 C 
ATOM      4  C   UNL     1      -7.429  -1.886 124.420  0.00  0.00    +0.000 C 
ATOM      5  C   UNL     1      -6.378  -3.143 124.043  0.00  0.00    +0.000 C 
ATOM      6  C   UNL     1      -8.738  -2.286 124.212  0.00  0.00    +0.000 C 
ATOM      7  C   UNL     1      -9.291  -3.285 123.307  0.00  0.00    +0.000 C 
ATOM      8  C   UNL     1      -9.111  -0.473 124.033  0.00  0.00    +0.000 C 
ATOM      9  C   UNL     1      -8.052   0.424 124.995  0.00  0.00    +0.000 C 
ATOM     10  C   UNL     1      -7.639  -0.075 126.507  0.00  0.00    +0.000 C 
ATOM     11  C   UNL     1      -7.034  -1.645 126.666  0.00  0.00    +0.000 C 
ATOM     12  C   UNL     1      -6.881  -2.086 128.099  0.00  0.00    +0.000 C 
ATOM     13  C   UNL     1      -6.127  -1.066 128.908  0.00  0.00    +0.000 C 
ATOM     14  C   UNL     1      -6.714   0.344 128.826  0.00  0.00    +0.000 C 
ATOM     15  C   UNL     1      -8.039   0.425 129.608  0.00  0.00    +0.000 C 
ATOM     16  C   UNL     1      -8.350   1.886 129.517  0.00  0.00    +0.000 C 
ATOM     17  O   UNL     1      -7.805   2.772 130.162  0.00  0.00    +0.000 OA
ATOM     18  O   UNL     1      -8.901   2.099 128.297  0.00  0.00    +0.000 OA
ATOM     19  C   UNL     1      -7.787   2.235 127.398  0.00  0.00    +0.000 C 
ATOM     20  C   UNL     1      -6.879   0.927 127.357  0.00  0.00    +0.000 C 
ATOM     21  C   UNL     1      -5.513   1.086 126.703  0.00  0.00    +0.000 C 
ENDROOT
BRANCH   4  22
ATOM     22  O   UNL     1      -7.261  -1.213 123.100  0.00  0.00    +0.000 OA
ATOM     23  H   UNL     1      -6.700  -1.697 122.468  0.00  0.00    +0.000 HD
ENDBRANCH   4  22
TORSDOF 1
ENDMDL
MODEL 6
REMARK VINA RESULT:      -7.3      3.177      5.047
REMARK  Name = Oxandrolone
REMARK  4 active torsions:
REMARK  status: ('A' for Active; 'I' for Inactive)
REMARK    1  A    between atoms: C_5  and  C_6
REMARK    2  A    between atoms: C_5  and  O_7
REMARK    3  A    between atoms: C_8  and  C_9
REMARK    4  A    between atoms: C_25  and  C_26
REMARK                            x       y       z     vdW  Elec       q    Type
REMARK                         _______ _______ _______ _____ _____    ______ ____
ROOT
ATOM      1  C   UNL     1      -8.393  -2.601 125.612  0.00  0.00    +0.000 C 
ATOM      2  C   UNL     1      -9.388  -1.604 125.789  0.00  0.00    +0.000 C 
ATOM      3  C   UNL     1      -7.989  -1.127 125.802  0.00  0.00    +0.000 C 
ATOM      4  C   UNL     1      -6.629  -2.534 125.047  0.00  0.00    +0.000 C 
ATOM      5  C   UNL     1      -6.911  -4.037 124.348  0.00  0.00    +0.000 C 
ATOM      6  C   UNL     1      -7.377  -1.566 124.400  0.00  0.00    +0.000 C 
ATOM      7  C   UNL     1      -7.881  -1.511 123.034  0.00  0.00    +0.000 C 
ATOM      8  C   UNL     1      -6.106  -0.367 125.035  0.00  0.00    +0.000 C 
ATOM      9  C   UNL     1      -5.491  -0.916 126.509  0.00  0.00    +0.000 C 
ATOM     10  C   UNL     1      -6.470  -1.589 127.647  0.00  0.00    +0.000 C 
ATOM     11  C   UNL     1      -7.452  -2.875 127.160  0.00  0.00    +0.000 C 
ATOM     12  C   UNL     1      -8.459  -3.288 128.203  0.00  0.00    +0.000 C 
ATOM     13  C   UNL     1      -7.804  -3.504 129.540  0.00  0.00    +0.000 C 
ATOM     14  C   UNL     1      -6.973  -2.313 130.020  0.00  0.00    +0.000 C 
ATOM     15  C   UNL     1      -7.888  -1.149 130.443  0.00  0.00    +0.000 C 
ATOM     16  C   UNL     1      -6.895  -0.176 130.999  0.00  0.00    +0.000 C 
ATOM     17  O   UNL     1      -6.344  -0.264 132.087  0.00  0.00    +0.000 OA
ATOM     18  O   UNL     1      -6.338   0.468 129.943  0.00  0.00    +0.000 OA
ATOM     19  C   UNL     1      -5.292  -0.403 129.479  0.00  0.00    +0.000 C 
ATOM     20  C   UNL     1      -5.847  -1.820 129.012  0.00  0.00    +0.000 C 
ATOM     21  C   UNL     1      -4.804  -2.912 128.820  0.00  0.00    +0.000 C 
ENDROOT
BRANCH   4  22
ATOM     22  O   UNL     1      -5.373  -2.298 124.279  0.00  0.00    +0.000 OA
ATOM     23  H   UNL     1      -4.716  -1.746 124.737  0.00  0.00    +0.000 HD
ENDBRANCH   4  22
TORSDOF 1
ENDMDL
MODEL 7
REMARK VINA RESULT:      -7.1      3.339      5.519
REMARK  Name = Oxandrolone
REMARK  4 active torsions:
REMARK  status: ('A' for Active; 'I' for Inactive)
REMARK    1  A    between atoms: C_5  and  C_6
REMARK    2  A    between atoms: C_5  and  O_7
REMARK    3  A    between atoms: C_8  and  C_9
REMARK    4  A    between atoms: C_25  and  C_26
REMARK                            x       y       z     vdW  Elec       q    Type
REMARK                         _______ _______ _______ _____ _____    ______ ____
ROOT
ATOM      1  C   UNL     1      -7.296  -2.929 129.869  0.00  0.00    +0.000 C 
ATOM      2  C   UNL     1      -6.449  -4.046 129.646  0.00  0.00    +0.000 C 
ATOM      3  C   UNL     1      -5.904  -2.733 129.240  0.00  0.00    +0.000 C 
ATOM      4  C   UNL     1      -6.967  -1.113 130.042  0.00  0.00    +0.000 C 
ATOM      5  C   UNL     1      -8.243  -1.097 131.137  0.00  0.00    +0.000 C 
ATOM      6  C   UNL     1      -5.911  -1.844 130.559  0.00  0.00    +0.000 C 
ATOM      7  C   UNL     1      -5.526  -2.108 131.939  0.00  0.00    +0.000 C 
ATOM      8  C   UNL     1      -4.846  -0.846 129.407  0.00  0.00    +0.000 C 
ATOM      9  C   UNL     1      -5.729  -0.435 128.027  0.00  0.00    +0.000 C 
ATOM     10  C   UNL     1      -6.743  -1.513 127.309  0.00  0.00    +0.000 C 
ATOM     11  C   UNL     1      -7.913  -2.243 128.286  0.00  0.00    +0.000 C 
ATOM     12  C   UNL     1      -8.654  -3.361 127.597  0.00  0.00    +0.000 C 
ATOM     13  C   UNL     1      -9.177  -2.926 126.256  0.00  0.00    +0.000 C 
ATOM     14  C   UNL     1      -8.107  -2.331 125.340  0.00  0.00    +0.000 C 
ATOM     15  C   UNL     1      -7.160  -3.431 124.826  0.00  0.00    +0.000 C 
ATOM     16  C   UNL     1      -6.309  -2.666 123.861  0.00  0.00    +0.000 C 
ATOM     17  O   UNL     1      -6.649  -2.304 122.743  0.00  0.00    +0.000 OA
ATOM     18  O   UNL     1      -5.372  -2.013 124.591  0.00  0.00    +0.000 OA
ATOM     19  C   UNL     1      -6.017  -0.810 125.044  0.00  0.00    +0.000 C 
ATOM     20  C   UNL     1      -7.291  -1.112 125.951  0.00  0.00    +0.000 C 
ATOM     21  C   UNL     1      -8.222   0.066 126.202  0.00  0.00    +0.000 C 
ENDROOT
BRANCH   4  22
ATOM     22  O   UNL     1      -6.454   0.222 130.465  0.00  0.00    +0.000 OA
ATOM     23  H   UNL     1      -5.552   0.424 130.158  0.00  0.00    +0.000 HD
ENDBRANCH   4  22
TORSDOF 1
ENDMDL
MODEL 8
REMARK VINA RESULT:      -7.1      3.143      5.104
REMARK  Name = Oxandrolone
REMARK  4 active torsions:
REMARK  status: ('A' for Active; 'I' for Inactive)
REMARK    1  A    between atoms: C_5  and  C_6
REMARK    2  A    between atoms: C_5  and  O_7
REMARK    3  A    between atoms: C_8  and  C_9
REMARK    4  A    between atoms: C_25  and  C_26
REMARK                            x       y       z     vdW  Elec       q    Type
REMARK                         _______ _______ _______ _____ _____    ______ ____
ROOT
ATOM      1  C   UNL     1      -6.199  -1.123 129.701  0.00  0.00    +0.000 C 
ATOM      2  C   UNL     1      -7.128  -0.115 130.069  0.00  0.00    +0.000 C 
ATOM      3  C   UNL     1      -7.703  -1.319 129.435  0.00  0.00    +0.000 C 
ATOM      4  C   UNL     1      -6.374  -2.940 129.380  0.00  0.00    +0.000 C 
ATOM      5  C   UNL     1      -4.833  -3.093 130.037  0.00  0.00    +0.000 C 
ATOM      6  C   UNL     1      -7.265  -2.538 130.359  0.00  0.00    +0.000 C 
ATOM      7  C   UNL     1      -7.241  -2.732 131.803  0.00  0.00    +0.000 C 
ATOM      8  C   UNL     1      -8.572  -3.302 129.279  0.00  0.00    +0.000 C 
ATOM      9  C   UNL     1      -8.114  -3.179 127.658  0.00  0.00    +0.000 C 
ATOM     10  C   UNL     1      -7.409  -1.814 127.070  0.00  0.00    +0.000 C 
ATOM     11  C   UNL     1      -6.041  -1.239 127.879  0.00  0.00    +0.000 C 
ATOM     12  C   UNL     1      -5.590   0.118 127.403  0.00  0.00    +0.000 C 
ATOM     13  C   UNL     1      -5.464   0.158 125.905  0.00  0.00    +0.000 C 
ATOM     14  C   UNL     1      -6.725  -0.292 125.166  0.00  0.00    +0.000 C 
ATOM     15  C   UNL     1      -7.834   0.770 125.291  0.00  0.00    +0.000 C 
ATOM     16  C   UNL     1      -8.892   0.203 124.397  0.00  0.00    +0.000 C 
ATOM     17  O   UNL     1      -8.877   0.223 123.174  0.00  0.00    +0.000 OA
ATOM     18  O   UNL     1      -9.540  -0.753 125.108  0.00  0.00    +0.000 OA
ATOM     19  C   UNL     1      -8.732  -1.935 124.976  0.00  0.00    +0.000 C 
ATOM     20  C   UNL     1      -7.265  -1.734 125.561  0.00  0.00    +0.000 C 
ATOM     21  C   UNL     1      -6.245  -2.796 125.176  0.00  0.00    +0.000 C 
ENDROOT
BRANCH   4  22
ATOM     22  O   UNL     1      -6.674  -4.397 129.487  0.00  0.00    +0.000 OA
ATOM     23  H   UNL     1      -6.706  -4.866 128.635  0.00  0.00    +0.000 HD
ENDBRANCH   4  22
TORSDOF 1
ENDMDL
MODEL 9
REMARK VINA RESULT:      -7.1      5.606      8.569
REMARK  Name = Oxandrolone
REMARK  4 active torsions:
REMARK  status: ('A' for Active; 'I' for Inactive)
REMARK    1  A    between atoms: C_5  and  C_6
REMARK    2  A    between atoms: C_5  and  O_7
REMARK    3  A    between atoms: C_8  and  C_9
REMARK    4  A    between atoms: C_25  and  C_26
REMARK                            x       y       z     vdW  Elec       q    Type
REMARK                         _______ _______ _______ _____ _____    ______ ____
ROOT
ATOM      1  C   UNL     1      -2.344   6.110 129.418  0.00  0.00    +0.000 C 
ATOM      2  C   UNL     1      -2.502   7.161 128.477  0.00  0.00    +0.000 C 
ATOM      3  C   UNL     1      -3.745   6.666 129.104  0.00  0.00    +0.000 C 
ATOM      4  C   UNL     1      -3.401   5.497 130.810  0.00  0.00    +0.000 C 
ATOM      5  C   UNL     1      -1.961   5.147 131.605  0.00  0.00    +0.000 C 
ATOM      6  C   UNL     1      -3.541   6.867 130.669  0.00  0.00    +0.000 C 
ATOM      7  C   UNL     1      -3.012   7.963 131.471  0.00  0.00    +0.000 C 
ATOM      8  C   UNL     1      -5.364   6.522 130.542  0.00  0.00    +0.000 C 
ATOM      9  C   UNL     1      -5.609   5.004 129.843  0.00  0.00    +0.000 C 
ATOM     10  C   UNL     1      -4.694   4.488 128.577  0.00  0.00    +0.000 C 
ATOM     11  C   UNL     1      -3.016   4.536 128.765  0.00  0.00    +0.000 C 
ATOM     12  C   UNL     1      -2.262   4.246 127.492  0.00  0.00    +0.000 C 
ATOM     13  C   UNL     1      -2.759   2.986 126.837  0.00  0.00    +0.000 C 
ATOM     14  C   UNL     1      -4.269   2.969 126.598  0.00  0.00    +0.000 C 
ATOM     15  C   UNL     1      -4.649   3.935 125.460  0.00  0.00    +0.000 C 
ATOM     16  C   UNL     1      -6.111   3.653 125.305  0.00  0.00    +0.000 C 
ATOM     17  O   UNL     1      -6.593   2.670 124.759  0.00  0.00    +0.000 OA
ATOM     18  O   UNL     1      -6.753   4.339 126.283  0.00  0.00    +0.000 OA
ATOM     19  C   UNL     1      -6.669   3.500 127.448  0.00  0.00    +0.000 C 
ATOM     20  C   UNL     1      -5.164   3.221 127.887  0.00  0.00    +0.000 C 
ATOM     21  C   UNL     1      -4.963   2.093 128.890  0.00  0.00    +0.000 C 
ENDROOT
BRANCH   4  22
ATOM     22  O   UNL     1      -4.229   5.384 132.046  0.00  0.00    +0.000 OA
ATOM     23  H   UNL     1      -5.143   5.703 131.951  0.00  0.00    +0.000 HD
ENDBRANCH   4  22
TORSDOF 1
ENDMDL
