MODEL 1
REMARK VINA RESULT:      -7.5      0.000      0.000
REMARK  Name = Oxaprozin
REMARK  6 active torsions:
REMARK  status: ('A' for Active; 'I' for Inactive)
REMARK    1  A    between atoms: O_1  and  C_2
REMARK    2  A    between atoms: C_2  and  C_4
REMARK    3  A    between atoms: C_4  and  C_5
REMARK    4  A    between atoms: C_5  and  C_6
REMARK    5  A    between atoms: C_8  and  C_17
REMARK    6  A    between atoms: C_9  and  C_11
REMARK                            x       y       z     vdW  Elec       q    Type
REMARK                         _______ _______ _______ _____ _____    ______ ____
ROOT
ATOM      1  C   UNL     1     -11.788   6.201 129.872  0.00  0.00    +0.000 A 
ATOM      2  N   UNL     1     -10.892   6.864 130.579  0.00  0.00    +0.000 NA
ATOM      3  C   UNL     1      -9.945   5.918 130.862  0.00  0.00    +0.000 A 
ATOM      4  C   UNL     1     -10.321   4.687 130.364  0.00  0.00    +0.000 A 
ATOM      5  O   UNL     1     -11.511   4.863 129.696  0.00  0.00    +0.000 OA
ENDROOT
BRANCH   4   6
ATOM      6  C   UNL     1      -9.774   3.342 130.505  0.00  0.00    +0.000 A 
ATOM      7  C   UNL     1      -8.867   2.810 129.584  0.00  0.00    +0.000 A 
ATOM      8  C   UNL     1      -8.378   1.508 129.751  0.00  0.00    +0.000 A 
ATOM      9  C   UNL     1      -8.719   0.763 130.880  0.00  0.00    +0.000 A 
ATOM     10  C   UNL     1      -9.568   1.306 131.837  0.00  0.00    +0.000 A 
ATOM     11  C   UNL     1     -10.094   2.585 131.646  0.00  0.00    +0.000 A 
ENDBRANCH   4   6
BRANCH   3  12
ATOM     12  C   UNL     1      -8.762   6.121 131.664  0.00  0.00    +0.000 A 
ATOM     13  C   UNL     1      -7.567   6.531 131.054  0.00  0.00    +0.000 A 
ATOM     14  C   UNL     1      -6.364   6.444 131.748  0.00  0.00    +0.000 A 
ATOM     15  C   UNL     1      -6.363   6.043 133.082  0.00  0.00    +0.000 A 
ATOM     16  C   UNL     1      -7.559   5.694 133.712  0.00  0.00    +0.000 A 
ATOM     17  C   UNL     1      -8.761   5.728 133.003  0.00  0.00    +0.000 A 
ENDBRANCH   3  12
BRANCH   1  18
ATOM     18  C   UNL     1     -13.008   6.767 129.231  0.00  0.00    +0.000 C 
BRANCH  18  19
ATOM     19  C   UNL     1     -12.641   7.944 128.322  0.00  0.00    +0.000 C 
BRANCH  19  20
ATOM     20  C   UNL     1     -11.785   7.479 127.173  0.00  0.00    +0.000 C 
ATOM     21  O   UNL     1     -10.640   7.862 126.962  0.00  0.00    +0.000 OA
BRANCH  20  22
ATOM     22  O   UNL     1     -12.388   6.582 126.362  0.00  0.00    +0.000 OA
ATOM     23  H   UNL     1     -13.217   6.877 125.940  0.00  0.00    +0.000 HD
ENDBRANCH  20  22
ENDBRANCH  19  20
ENDBRANCH  18  19
ENDBRANCH   1  18
TORSDOF 6
ENDMDL
MODEL 2
REMARK VINA RESULT:      -7.4      7.226      9.182
REMARK  Name = Oxaprozin
REMARK  6 active torsions:
REMARK  status: ('A' for Active; 'I' for Inactive)
REMARK    1  A    between atoms: O_1  and  C_2
REMARK    2  A    between atoms: C_2  and  C_4
REMARK    3  A    between atoms: C_4  and  C_5
REMARK    4  A    between atoms: C_5  and  C_6
REMARK    5  A    between atoms: C_8  and  C_17
REMARK    6  A    between atoms: C_9  and  C_11
REMARK                            x       y       z     vdW  Elec       q    Type
REMARK                         _______ _______ _______ _____ _____    ______ ____
ROOT
ATOM      1  C   UNL     1      -9.245  -0.071 123.788  0.00  0.00    +0.000 A 
ATOM      2  N   UNL     1      -9.555  -0.393 125.029  0.00  0.00    +0.000 NA
ATOM      3  C   UNL     1      -8.593  -1.302 125.375  0.00  0.00    +0.000 A 
ATOM      4  C   UNL     1      -7.752  -1.550 124.309  0.00  0.00    +0.000 A 
ATOM      5  O   UNL     1      -8.152  -0.735 123.275  0.00  0.00    +0.000 OA
ENDROOT
BRANCH   4   6
ATOM      6  C   UNL     1      -6.681  -2.514 124.085  0.00  0.00    +0.000 A 
ATOM      7  C   UNL     1      -5.405  -2.123 123.669  0.00  0.00    +0.000 A 
ATOM      8  C   UNL     1      -4.410  -3.084 123.453  0.00  0.00    +0.000 A 
ATOM      9  C   UNL     1      -4.652  -4.429 123.732  0.00  0.00    +0.000 A 
ATOM     10  C   UNL     1      -5.897  -4.823 124.209  0.00  0.00    +0.000 A 
ATOM     11  C   UNL     1      -6.903  -3.871 124.378  0.00  0.00    +0.000 A 
ENDBRANCH   4   6
BRANCH   3  12
ATOM     12  C   UNL     1      -8.509  -2.006 126.632  0.00  0.00    +0.000 A 
ATOM     13  C   UNL     1      -7.602  -1.577 127.612  0.00  0.00    +0.000 A 
ATOM     14  C   UNL     1      -7.297  -2.404 128.689  0.00  0.00    +0.000 A 
ATOM     15  C   UNL     1      -7.969  -3.615 128.844  0.00  0.00    +0.000 A 
ATOM     16  C   UNL     1      -8.918  -4.016 127.902  0.00  0.00    +0.000 A 
ATOM     17  C   UNL     1      -9.187  -3.215 126.792  0.00  0.00    +0.000 A 
ENDBRANCH   3  12
BRANCH   1  18
ATOM     18  C   UNL     1      -9.921   0.949 122.939  0.00  0.00    +0.000 C 
BRANCH  18  19
ATOM     19  C   UNL     1      -8.995   2.143 122.691  0.00  0.00    +0.000 C 
BRANCH  19  20
ATOM     20  C   UNL     1      -8.438   2.661 123.992  0.00  0.00    +0.000 C 
ATOM     21  O   UNL     1      -7.258   2.590 124.318  0.00  0.00    +0.000 OA
BRANCH  20  22
ATOM     22  O   UNL     1      -9.360   3.225 124.803  0.00  0.00    +0.000 OA
ATOM     23  H   UNL     1     -10.274   2.899 124.702  0.00  0.00    +0.000 HD
ENDBRANCH  20  22
ENDBRANCH  19  20
ENDBRANCH  18  19
ENDBRANCH   1  18
TORSDOF 6
ENDMDL
MODEL 3
REMARK VINA RESULT:      -7.4      0.848      3.940
REMARK  Name = Oxaprozin
REMARK  6 active torsions:
REMARK  status: ('A' for Active; 'I' for Inactive)
REMARK    1  A    between atoms: O_1  and  C_2
REMARK    2  A    between atoms: C_2  and  C_4
REMARK    3  A    between atoms: C_4  and  C_5
REMARK    4  A    between atoms: C_5  and  C_6
REMARK    5  A    between atoms: C_8  and  C_17
REMARK    6  A    between atoms: C_9  and  C_11
REMARK                            x       y       z     vdW  Elec       q    Type
REMARK                         _______ _______ _______ _____ _____    ______ ____
ROOT
ATOM      1  C   UNL     1     -11.677   6.195 130.138  0.00  0.00    +0.000 A 
ATOM      2  N   UNL     1     -11.622   4.896 129.916  0.00  0.00    +0.000 NA
ATOM      3  C   UNL     1     -10.476   4.509 130.554  0.00  0.00    +0.000 A 
ATOM      4  C   UNL     1      -9.833   5.601 131.102  0.00  0.00    +0.000 A 
ATOM      5  O   UNL     1     -10.618   6.703 130.858  0.00  0.00    +0.000 OA
ENDROOT
BRANCH   4   6
ATOM      6  C   UNL     1      -8.534   5.777 131.743  0.00  0.00    +0.000 A 
ATOM      7  C   UNL     1      -8.276   5.317 133.037  0.00  0.00    +0.000 A 
ATOM      8  C   UNL     1      -7.018   5.521 133.619  0.00  0.00    +0.000 A 
ATOM      9  C   UNL     1      -5.985   6.104 132.885  0.00  0.00    +0.000 A 
ATOM     10  C   UNL     1      -6.209   6.506 131.574  0.00  0.00    +0.000 A 
ATOM     11  C   UNL     1      -7.477   6.347 131.011  0.00  0.00    +0.000 A 
ENDBRANCH   4   6
BRANCH   3  12
ATOM     12  C   UNL     1      -9.929   3.174 130.574  0.00  0.00    +0.000 A 
ATOM     13  C   UNL     1     -10.116   2.359 131.700  0.00  0.00    +0.000 A 
ATOM     14  C   UNL     1      -9.358   1.203 131.859  0.00  0.00    +0.000 A 
ATOM     15  C   UNL     1      -8.485   0.805 130.849  0.00  0.00    +0.000 A 
ATOM     16  C   UNL     1      -8.342   1.581 129.697  0.00  0.00    +0.000 A 
ATOM     17  C   UNL     1      -9.060   2.770 129.559  0.00  0.00    +0.000 A 
ENDBRANCH   3  12
BRANCH   1  18
ATOM     18  C   UNL     1     -12.771   7.120 129.731  0.00  0.00    +0.000 C 
BRANCH  18  19
ATOM     19  C   UNL     1     -13.184   6.860 128.279  0.00  0.00    +0.000 C 
BRANCH  19  20
ATOM     20  C   UNL     1     -12.137   7.382 127.330  0.00  0.00    +0.000 C 
ATOM     21  O   UNL     1     -11.503   8.418 127.497  0.00  0.00    +0.000 OA
BRANCH  20  22
ATOM     22  O   UNL     1     -11.940   6.603 126.242  0.00  0.00    +0.000 OA
ATOM     23  H   UNL     1     -11.230   6.887 125.636  0.00  0.00    +0.000 HD
ENDBRANCH  20  22
ENDBRANCH  19  20
ENDBRANCH  18  19
ENDBRANCH   1  18
TORSDOF 6
ENDMDL
MODEL 4
REMARK VINA RESULT:      -7.1      1.078      1.621
REMARK  Name = Oxaprozin
REMARK  6 active torsions:
REMARK  status: ('A' for Active; 'I' for Inactive)
REMARK    1  A    between atoms: O_1  and  C_2
REMARK    2  A    between atoms: C_2  and  C_4
REMARK    3  A    between atoms: C_4  and  C_5
REMARK    4  A    between atoms: C_5  and  C_6
REMARK    5  A    between atoms: C_8  and  C_17
REMARK    6  A    between atoms: C_9  and  C_11
REMARK                            x       y       z     vdW  Elec       q    Type
REMARK                         _______ _______ _______ _____ _____    ______ ____
ROOT
ATOM      1  C   UNL     1     -11.572   6.079 130.270  0.00  0.00    +0.000 A 
ATOM      2  N   UNL     1     -10.677   6.704 131.012  0.00  0.00    +0.000 NA
ATOM      3  C   UNL     1      -9.738   5.740 131.261  0.00  0.00    +0.000 A 
ATOM      4  C   UNL     1     -10.119   4.535 130.706  0.00  0.00    +0.000 A 
ATOM      5  O   UNL     1     -11.302   4.748 130.037  0.00  0.00    +0.000 OA
ENDROOT
BRANCH   4   6
ATOM      6  C   UNL     1      -9.582   3.181 130.792  0.00  0.00    +0.000 A 
ATOM      7  C   UNL     1      -9.934   2.307 131.824  0.00  0.00    +0.000 A 
ATOM      8  C   UNL     1      -9.383   1.021 131.876  0.00  0.00    +0.000 A 
ATOM      9  C   UNL     1      -8.548   0.567 130.855  0.00  0.00    +0.000 A 
ATOM     10  C   UNL     1      -8.242   1.405 129.788  0.00  0.00    +0.000 A 
ATOM     11  C   UNL     1      -8.753   2.703 129.762  0.00  0.00    +0.000 A 
ENDBRANCH   4   6
BRANCH   3  12
ATOM     12  C   UNL     1      -8.561   5.900 132.080  0.00  0.00    +0.000 A 
ATOM     13  C   UNL     1      -7.337   6.237 131.484  0.00  0.00    +0.000 A 
ATOM     14  C   UNL     1      -6.152   6.103 132.201  0.00  0.00    +0.000 A 
ATOM     15  C   UNL     1      -6.193   5.730 133.542  0.00  0.00    +0.000 A 
ATOM     16  C   UNL     1      -7.416   5.454 134.157  0.00  0.00    +0.000 A 
ATOM     17  C   UNL     1      -8.602   5.534 133.426  0.00  0.00    +0.000 A 
ENDBRANCH   3  12
BRANCH   1  18
ATOM     18  C   UNL     1     -12.783   6.681 129.645  0.00  0.00    +0.000 C 
BRANCH  18  19
ATOM     19  C   UNL     1     -12.884   8.169 129.992  0.00  0.00    +0.000 C 
BRANCH  19  20
ATOM     20  C   UNL     1     -12.537   9.017 128.797  0.00  0.00    +0.000 C 
ATOM     21  O   UNL     1     -11.779   8.671 127.897  0.00  0.00    +0.000 OA
BRANCH  20  22
ATOM     22  O   UNL     1     -13.137  10.228 128.785  0.00  0.00    +0.000 OA
ATOM     23  H   UNL     1     -13.423  10.554 127.911  0.00  0.00    +0.000 HD
ENDBRANCH  20  22
ENDBRANCH  19  20
ENDBRANCH  18  19
ENDBRANCH   1  18
TORSDOF 6
ENDMDL
MODEL 5
REMARK VINA RESULT:      -7.1      7.542     10.256
REMARK  Name = Oxaprozin
REMARK  6 active torsions:
REMARK  status: ('A' for Active; 'I' for Inactive)
REMARK    1  A    between atoms: O_1  and  C_2
REMARK    2  A    between atoms: C_2  and  C_4
REMARK    3  A    between atoms: C_4  and  C_5
REMARK    4  A    between atoms: C_5  and  C_6
REMARK    5  A    between atoms: C_8  and  C_17
REMARK    6  A    between atoms: C_9  and  C_11
REMARK                            x       y       z     vdW  Elec       q    Type
REMARK                         _______ _______ _______ _____ _____    ______ ____
ROOT
ATOM      1  C   UNL     1      -5.766   2.587 125.530  0.00  0.00    +0.000 A 
ATOM      2  N   UNL     1      -6.223   1.355 125.414  0.00  0.00    +0.000 NA
ATOM      3  C   UNL     1      -6.691   1.306 124.130  0.00  0.00    +0.000 A 
ATOM      4  C   UNL     1      -6.556   2.534 123.515  0.00  0.00    +0.000 A 
ATOM      5  O   UNL     1      -5.932   3.372 124.409  0.00  0.00    +0.000 OA
ENDROOT
BRANCH   4   6
ATOM      6  C   UNL     1      -7.015   3.067 122.237  0.00  0.00    +0.000 A 
ATOM      7  C   UNL     1      -8.370   3.253 121.954  0.00  0.00    +0.000 A 
ATOM      8  C   UNL     1      -8.767   3.755 120.708  0.00  0.00    +0.000 A 
ATOM      9  C   UNL     1      -7.815   4.156 119.771  0.00  0.00    +0.000 A 
ATOM     10  C   UNL     1      -6.461   4.038 120.066  0.00  0.00    +0.000 A 
ATOM     11  C   UNL     1      -6.067   3.493 121.289  0.00  0.00    +0.000 A 
ENDBRANCH   4   6
BRANCH   3  12
ATOM     12  C   UNL     1      -7.343   0.176 123.512  0.00  0.00    +0.000 A 
ATOM     13  C   UNL     1      -8.734   0.030 123.618  0.00  0.00    +0.000 A 
ATOM     14  C   UNL     1      -9.335  -1.183 123.295  0.00  0.00    +0.000 A 
ATOM     15  C   UNL     1      -8.563  -2.219 122.771  0.00  0.00    +0.000 A 
ATOM     16  C   UNL     1      -7.187  -2.055 122.605  0.00  0.00    +0.000 A 
ATOM     17  C   UNL     1      -6.573  -0.859 122.979  0.00  0.00    +0.000 A 
ENDBRANCH   3  12
BRANCH   1  18
ATOM     18  C   UNL     1      -5.068   3.169 126.710  0.00  0.00    +0.000 C 
BRANCH  18  19
ATOM     19  C   UNL     1      -3.988   4.159 126.263  0.00  0.00    +0.000 C 
BRANCH  19  20
ATOM     20  C   UNL     1      -2.736   3.984 127.081  0.00  0.00    +0.000 C 
ATOM     21  O   UNL     1      -2.654   4.220 128.282  0.00  0.00    +0.000 OA
BRANCH  20  22
ATOM     22  O   UNL     1      -1.674   3.535 126.377  0.00  0.00    +0.000 OA
ATOM     23  H   UNL     1      -0.845   3.421 126.880  0.00  0.00    +0.000 HD
ENDBRANCH  20  22
ENDBRANCH  19  20
ENDBRANCH  18  19
ENDBRANCH   1  18
TORSDOF 6
ENDMDL
MODEL 6
REMARK VINA RESULT:      -6.9      5.743      8.470
REMARK  Name = Oxaprozin
REMARK  6 active torsions:
REMARK  status: ('A' for Active; 'I' for Inactive)
REMARK    1  A    between atoms: O_1  and  C_2
REMARK    2  A    between atoms: C_2  and  C_4
REMARK    3  A    between atoms: C_4  and  C_5
REMARK    4  A    between atoms: C_5  and  C_6
REMARK    5  A    between atoms: C_8  and  C_17
REMARK    6  A    between atoms: C_9  and  C_11
REMARK                            x       y       z     vdW  Elec       q    Type
REMARK                         _______ _______ _______ _____ _____    ______ ____
ROOT
ATOM      1  C   UNL     1      -6.717   1.852 126.728  0.00  0.00    +0.000 A 
ATOM      2  N   UNL     1      -7.483   1.071 127.466  0.00  0.00    +0.000 NA
ATOM      3  C   UNL     1      -7.319  -0.165 126.901  0.00  0.00    +0.000 A 
ATOM      4  C   UNL     1      -6.497  -0.089 125.795  0.00  0.00    +0.000 A 
ATOM      5  O   UNL     1      -6.079   1.217 125.685  0.00  0.00    +0.000 OA
ENDROOT
BRANCH   4   6
ATOM      6  C   UNL     1      -6.119  -1.049 124.763  0.00  0.00    +0.000 A 
ATOM      7  C   UNL     1      -5.328  -2.166 125.043  0.00  0.00    +0.000 A 
ATOM      8  C   UNL     1      -4.977  -3.054 124.018  0.00  0.00    +0.000 A 
ATOM      9  C   UNL     1      -5.484  -2.884 122.730  0.00  0.00    +0.000 A 
ATOM     10  C   UNL     1      -6.326  -1.813 122.453  0.00  0.00    +0.000 A 
ATOM     11  C   UNL     1      -6.635  -0.901 123.464  0.00  0.00    +0.000 A 
ENDBRANCH   4   6
BRANCH   3  12
ATOM     12  C   UNL     1      -7.987  -1.376 127.312  0.00  0.00    +0.000 A 
ATOM     13  C   UNL     1      -7.678  -1.958 128.550  0.00  0.00    +0.000 A 
ATOM     14  C   UNL     1      -8.081  -3.261 128.828  0.00  0.00    +0.000 A 
ATOM     15  C   UNL     1      -8.875  -3.950 127.914  0.00  0.00    +0.000 A 
ATOM     16  C   UNL     1      -9.237  -3.350 126.706  0.00  0.00    +0.000 A 
ATOM     17  C   UNL     1      -8.790  -2.064 126.400  0.00  0.00    +0.000 A 
ENDBRANCH   3  12
BRANCH   1  18
ATOM     18  C   UNL     1      -6.456   3.302 126.947  0.00  0.00    +0.000 C 
BRANCH  18  19
ATOM     19  C   UNL     1      -6.738   4.098 125.669  0.00  0.00    +0.000 C 
BRANCH  19  20
ATOM     20  C   UNL     1      -8.219   4.309 125.492  0.00  0.00    +0.000 C 
ATOM     21  O   UNL     1      -8.964   3.535 124.899  0.00  0.00    +0.000 OA
BRANCH  20  22
ATOM     22  O   UNL     1      -8.686   5.449 126.047  0.00  0.00    +0.000 OA
ATOM     23  H   UNL     1      -9.639   5.622 125.931  0.00  0.00    +0.000 HD
ENDBRANCH  20  22
ENDBRANCH  19  20
ENDBRANCH  18  19
ENDBRANCH   1  18
TORSDOF 6
ENDMDL
MODEL 7
REMARK VINA RESULT:      -6.8      1.517      4.259
REMARK  Name = Oxaprozin
REMARK  6 active torsions:
REMARK  status: ('A' for Active; 'I' for Inactive)
REMARK    1  A    between atoms: O_1  and  C_2
REMARK    2  A    between atoms: C_2  and  C_4
REMARK    3  A    between atoms: C_4  and  C_5
REMARK    4  A    between atoms: C_5  and  C_6
REMARK    5  A    between atoms: C_8  and  C_17
REMARK    6  A    between atoms: C_9  and  C_11
REMARK                            x       y       z     vdW  Elec       q    Type
REMARK                         _______ _______ _______ _____ _____    ______ ____
ROOT
ATOM      1  C   UNL     1     -10.193   7.098 129.147  0.00  0.00    +0.000 A 
ATOM      2  N   UNL     1     -10.400   5.801 129.022  0.00  0.00    +0.000 NA
ATOM      3  C   UNL     1      -9.530   5.249 129.924  0.00  0.00    +0.000 A 
ATOM      4  C   UNL     1      -8.776   6.230 130.534  0.00  0.00    +0.000 A 
ATOM      5  O   UNL     1      -9.214   7.442 130.054  0.00  0.00    +0.000 OA
ENDROOT
BRANCH   4   6
ATOM      6  C   UNL     1      -7.631   6.193 131.438  0.00  0.00    +0.000 A 
ATOM      7  C   UNL     1      -7.726   5.685 132.736  0.00  0.00    +0.000 A 
ATOM      8  C   UNL     1      -6.604   5.681 133.575  0.00  0.00    +0.000 A 
ATOM      9  C   UNL     1      -5.362   6.100 133.098  0.00  0.00    +0.000 A 
ATOM     10  C   UNL     1      -5.240   6.546 131.786  0.00  0.00    +0.000 A 
ATOM     11  C   UNL     1      -6.368   6.595 130.967  0.00  0.00    +0.000 A 
ENDBRANCH   4   6
BRANCH   3  12
ATOM     12  C   UNL     1      -9.328   3.838 130.147  0.00  0.00    +0.000 A 
ATOM     13  C   UNL     1      -9.981   3.198 131.211  0.00  0.00    +0.000 A 
ATOM     14  C   UNL     1      -9.575   1.932 131.618  0.00  0.00    +0.000 A 
ATOM     15  C   UNL     1      -8.585   1.260 130.905  0.00  0.00    +0.000 A 
ATOM     16  C   UNL     1      -7.975   1.869 129.806  0.00  0.00    +0.000 A 
ATOM     17  C   UNL     1      -8.342   3.161 129.428  0.00  0.00    +0.000 A 
ENDBRANCH   3  12
BRANCH   1  18
ATOM     18  C   UNL     1     -10.933   8.186 128.450  0.00  0.00    +0.000 C 
BRANCH  18  19
ATOM     19  C   UNL     1     -12.120   8.656 129.295  0.00  0.00    +0.000 C 
BRANCH  19  20
ATOM     20  C   UNL     1     -12.955   7.483 129.737  0.00  0.00    +0.000 C 
ATOM     21  O   UNL     1     -13.144   7.167 130.906  0.00  0.00    +0.000 OA
BRANCH  20  22
ATOM     22  O   UNL     1     -13.497   6.776 128.720  0.00  0.00    +0.000 OA
ATOM     23  H   UNL     1     -13.895   5.919 128.960  0.00  0.00    +0.000 HD
ENDBRANCH  20  22
ENDBRANCH  19  20
ENDBRANCH  18  19
ENDBRANCH   1  18
TORSDOF 6
ENDMDL
MODEL 8
REMARK VINA RESULT:      -6.7      3.311      5.844
REMARK  Name = Oxaprozin
REMARK  6 active torsions:
REMARK  status: ('A' for Active; 'I' for Inactive)
REMARK    1  A    between atoms: O_1  and  C_2
REMARK    2  A    between atoms: C_2  and  C_4
REMARK    3  A    between atoms: C_4  and  C_5
REMARK    4  A    between atoms: C_5  and  C_6
REMARK    5  A    between atoms: C_8  and  C_17
REMARK    6  A    between atoms: C_9  and  C_11
REMARK                            x       y       z     vdW  Elec       q    Type
REMARK                         _______ _______ _______ _____ _____    ______ ____
ROOT
ATOM      1  C   UNL     1      -5.705   6.705 131.170  0.00  0.00    +0.000 A 
ATOM      2  N   UNL     1      -5.870   5.440 131.503  0.00  0.00    +0.000 NA
ATOM      3  C   UNL     1      -7.211   5.234 131.327  0.00  0.00    +0.000 A 
ATOM      4  C   UNL     1      -7.836   6.404 130.943  0.00  0.00    +0.000 A 
ATOM      5  O   UNL     1      -6.861   7.365 130.814  0.00  0.00    +0.000 OA
ENDROOT
BRANCH   4   6
ATOM      6  C   UNL     1      -9.235   6.778 130.770  0.00  0.00    +0.000 A 
ATOM      7  C   UNL     1      -9.687   7.457 129.635  0.00  0.00    +0.000 A 
ATOM      8  C   UNL     1     -11.038   7.810 129.518  0.00  0.00    +0.000 A 
ATOM      9  C   UNL     1     -11.960   7.413 130.486  0.00  0.00    +0.000 A 
ATOM     10  C   UNL     1     -11.534   6.680 131.588  0.00  0.00    +0.000 A 
ATOM     11  C   UNL     1     -10.180   6.371 131.728  0.00  0.00    +0.000 A 
ENDBRANCH   4   6
BRANCH   3  12
ATOM     12  C   UNL     1      -7.922   4.009 131.604  0.00  0.00    +0.000 A 
ATOM     13  C   UNL     1      -8.426   3.240 130.545  0.00  0.00    +0.000 A 
ATOM     14  C   UNL     1      -9.355   2.234 130.795  0.00  0.00    +0.000 A 
ATOM     15  C   UNL     1      -9.706   1.927 132.108  0.00  0.00    +0.000 A 
ATOM     16  C   UNL     1      -9.158   2.650 133.169  0.00  0.00    +0.000 A 
ATOM     17  C   UNL     1      -8.268   3.696 132.920  0.00  0.00    +0.000 A 
ENDBRANCH   3  12
BRANCH   1  18
ATOM     18  C   UNL     1      -4.413   7.444 131.103  0.00  0.00    +0.000 C 
BRANCH  18  19
ATOM     19  C   UNL     1      -4.206   8.039 129.706  0.00  0.00    +0.000 C 
BRANCH  19  20
ATOM     20  C   UNL     1      -3.508   7.052 128.808  0.00  0.00    +0.000 C 
ATOM     21  O   UNL     1      -2.339   6.704 128.935  0.00  0.00    +0.000 OA
BRANCH  20  22
ATOM     22  O   UNL     1      -4.285   6.561 127.817  0.00  0.00    +0.000 OA
ATOM     23  H   UNL     1      -5.117   6.135 128.098  0.00  0.00    +0.000 HD
ENDBRANCH  20  22
ENDBRANCH  19  20
ENDBRANCH  18  19
ENDBRANCH   1  18
TORSDOF 6
ENDMDL
MODEL 9
REMARK VINA RESULT:      -6.7      7.453      9.517
REMARK  Name = Oxaprozin
REMARK  6 active torsions:
REMARK  status: ('A' for Active; 'I' for Inactive)
REMARK    1  A    between atoms: O_1  and  C_2
REMARK    2  A    between atoms: C_2  and  C_4
REMARK    3  A    between atoms: C_4  and  C_5
REMARK    4  A    between atoms: C_5  and  C_6
REMARK    5  A    between atoms: C_8  and  C_17
REMARK    6  A    between atoms: C_9  and  C_11
REMARK                            x       y       z     vdW  Elec       q    Type
REMARK                         _______ _______ _______ _____ _____    ______ ____
ROOT
ATOM      1  C   UNL     1      -4.954   1.225 127.336  0.00  0.00    +0.000 A 
ATOM      2  N   UNL     1      -5.441   0.730 126.214  0.00  0.00    +0.000 NA
ATOM      3  C   UNL     1      -5.862  -0.522 126.573  0.00  0.00    +0.000 A 
ATOM      4  C   UNL     1      -5.565  -0.775 127.897  0.00  0.00    +0.000 A 
ATOM      5  O   UNL     1      -4.994   0.365 128.412  0.00  0.00    +0.000 OA
ENDROOT
BRANCH   4   6
ATOM      6  C   UNL     1      -5.652  -1.969 128.729  0.00  0.00    +0.000 A 
ATOM      7  C   UNL     1      -6.875  -2.468 129.187  0.00  0.00    +0.000 A 
ATOM      8  C   UNL     1      -6.910  -3.610 129.996  0.00  0.00    +0.000 A 
ATOM      9  C   UNL     1      -5.739  -4.312 130.282  0.00  0.00    +0.000 A 
ATOM     10  C   UNL     1      -4.523  -3.864 129.778  0.00  0.00    +0.000 A 
ATOM     11  C   UNL     1      -4.483  -2.698 129.012  0.00  0.00    +0.000 A 
ENDBRANCH   4   6
BRANCH   3  12
ATOM     12  C   UNL     1      -6.435  -1.506 125.686  0.00  0.00    +0.000 A 
ATOM     13  C   UNL     1      -7.813  -1.766 125.729  0.00  0.00    +0.000 A 
ATOM     14  C   UNL     1      -8.329  -2.899 125.109  0.00  0.00    +0.000 A 
ATOM     15  C   UNL     1      -7.489  -3.721 124.361  0.00  0.00    +0.000 A 
ATOM     16  C   UNL     1      -6.126  -3.431 124.264  0.00  0.00    +0.000 A 
ATOM     17  C   UNL     1      -5.595  -2.325 124.930  0.00  0.00    +0.000 A 
ENDBRANCH   3  12
BRANCH   1  18
ATOM     18  C   UNL     1      -4.425   2.602 127.543  0.00  0.00    +0.000 C 
BRANCH  18  19
ATOM     19  C   UNL     1      -3.537   3.020 126.366  0.00  0.00    +0.000 C 
BRANCH  19  20
ATOM     20  C   UNL     1      -2.153   3.370 126.846  0.00  0.00    +0.000 C 
ATOM     21  O   UNL     1      -1.167   2.657 126.699  0.00  0.00    +0.000 OA
BRANCH  20  22
ATOM     22  O   UNL     1      -2.071   4.565 127.472  0.00  0.00    +0.000 OA
ATOM     23  H   UNL     1      -2.155   4.545 128.444  0.00  0.00    +0.000 HD
ENDBRANCH  20  22
ENDBRANCH  19  20
ENDBRANCH  18  19
ENDBRANCH   1  18
TORSDOF 6
ENDMDL
