MODEL 1
REMARK VINA RESULT:      -9.7      0.000      0.000
REMARK  Name = Oxatomide
REMARK  7 active torsions:
REMARK  status: ('A' for Active; 'I' for Inactive)
REMARK    1  A    between atoms: N_10  and  C_11
REMARK    2  A    between atoms: C_11  and  C_12
REMARK    3  A    between atoms: C_12  and  C_13
REMARK    4  A    between atoms: C_13  and  N_14
REMARK    5  A    between atoms: N_17  and  C_20
REMARK    6  A    between atoms: C_20  and  C_21
REMARK    7  A    between atoms: C_20  and  C_27
REMARK                            x       y       z     vdW  Elec       q    Type
REMARK                         _______ _______ _______ _____ _____    ______ ____
ROOT
ATOM      1  N   UNL     1      -8.083   3.420 126.966  0.00  0.00    +0.000 NA
ATOM      2  C   UNL     1      -7.968   4.135 125.676  0.00  0.00    +0.000 C 
ATOM      3  C   UNL     1      -6.649   3.875 124.950  0.00  0.00    +0.000 C 
ATOM      4  N   UNL     1      -6.526   2.453 124.591  0.00  0.00    +0.000 NA
ATOM      5  C   UNL     1      -6.482   1.748 125.896  0.00  0.00    +0.000 C 
ATOM      6  C   UNL     1      -7.738   1.998 126.772  0.00  0.00    +0.000 C 
ENDROOT
BRANCH   1   7
ATOM      7  C   UNL     1      -7.379   4.192 127.998  0.00  0.00    +0.000 C 
BRANCH   7   8
ATOM      8  C   UNL     1      -8.453   4.351 129.067  0.00  0.00    +0.000 C 
BRANCH   8   9
ATOM      9  C   UNL     1      -8.284   5.355 130.155  0.00  0.00    +0.000 C 
BRANCH   9  19
ATOM     10  O   UNL     1      -9.561   4.432 132.604  0.00  0.00    +0.000 OA
ATOM     11  C   UNL     1     -10.084   5.273 131.876  0.00  0.00    +0.000 A 
ATOM     12  N   UNL     1     -11.321   5.883 132.087  0.00  0.00    +0.000 N 
ATOM     13  C   UNL     1     -11.567   6.788 131.059  0.00  0.00    +0.000 A 
ATOM     14  C   UNL     1     -10.487   6.763 130.180  0.00  0.00    +0.000 A 
ATOM     15  C   UNL     1     -10.501   7.597 129.068  0.00  0.00    +0.000 A 
ATOM     16  C   UNL     1     -11.596   8.438 128.854  0.00  0.00    +0.000 A 
ATOM     17  C   UNL     1     -12.673   8.437 129.744  0.00  0.00    +0.000 A 
ATOM     18  C   UNL     1     -12.668   7.602 130.867  0.00  0.00    +0.000 A 
ATOM     19  N   UNL     1      -9.564   5.799 130.682  0.00  0.00    +0.000 N 
ATOM     20  H   UNL     1     -11.915   5.672 132.871  0.00  0.00    +0.000 HD
ENDBRANCH   9  19
ENDBRANCH   8   9
ENDBRANCH   7   8
ENDBRANCH   1   7
BRANCH   4  21
ATOM     21  C   UNL     1      -7.675   2.072 123.683  0.00  0.00    +0.000 C 
BRANCH  21  22
ATOM     22  C   UNL     1      -7.498   2.816 122.337  0.00  0.00    +0.000 A 
ATOM     23  C   UNL     1      -8.644   3.278 121.656  0.00  0.00    +0.000 A 
ATOM     24  C   UNL     1      -8.538   3.913 120.427  0.00  0.00    +0.000 A 
ATOM     25  C   UNL     1      -7.278   4.153 119.890  0.00  0.00    +0.000 A 
ATOM     26  C   UNL     1      -6.128   3.757 120.578  0.00  0.00    +0.000 A 
ATOM     27  C   UNL     1      -6.234   3.042 121.772  0.00  0.00    +0.000 A 
ENDBRANCH  21  22
BRANCH  21  28
ATOM     28  C   UNL     1      -7.822   0.562 123.487  0.00  0.00    +0.000 A 
ATOM     29  C   UNL     1      -6.707  -0.267 123.314  0.00  0.00    +0.000 A 
ATOM     30  C   UNL     1      -6.846  -1.530 122.756  0.00  0.00    +0.000 A 
ATOM     31  C   UNL     1      -8.112  -2.080 122.634  0.00  0.00    +0.000 A 
ATOM     32  C   UNL     1      -9.219  -1.375 123.081  0.00  0.00    +0.000 A 
ATOM     33  C   UNL     1      -9.079  -0.051 123.461  0.00  0.00    +0.000 A 
ENDBRANCH  21  28
ENDBRANCH   4  21
TORSDOF 7
ENDMDL
MODEL 2
REMARK VINA RESULT:      -9.2      0.911      3.533
REMARK  Name = Oxatomide
REMARK  7 active torsions:
REMARK  status: ('A' for Active; 'I' for Inactive)
REMARK    1  A    between atoms: N_10  and  C_11
REMARK    2  A    between atoms: C_11  and  C_12
REMARK    3  A    between atoms: C_12  and  C_13
REMARK    4  A    between atoms: C_13  and  N_14
REMARK    5  A    between atoms: N_17  and  C_20
REMARK    6  A    between atoms: C_20  and  C_21
REMARK    7  A    between atoms: C_20  and  C_27
REMARK                            x       y       z     vdW  Elec       q    Type
REMARK                         _______ _______ _______ _____ _____    ______ ____
ROOT
ATOM      1  N   UNL     1      -7.035   2.909 127.194  0.00  0.00    +0.000 NA
ATOM      2  C   UNL     1      -7.335   1.563 126.660  0.00  0.00    +0.000 C 
ATOM      3  C   UNL     1      -8.677   1.479 125.935  0.00  0.00    +0.000 C 
ATOM      4  N   UNL     1      -8.683   2.350 124.750  0.00  0.00    +0.000 NA
ATOM      5  C   UNL     1      -8.541   3.721 125.302  0.00  0.00    +0.000 C 
ATOM      6  C   UNL     1      -7.246   3.917 126.135  0.00  0.00    +0.000 C 
ENDROOT
BRANCH   1   7
ATOM      7  C   UNL     1      -7.723   3.071 128.481  0.00  0.00    +0.000 C 
BRANCH   7   8
ATOM      8  C   UNL     1      -7.727   4.584 128.655  0.00  0.00    +0.000 C 
BRANCH   8   9
ATOM      9  C   UNL     1      -8.088   5.186 129.970  0.00  0.00    +0.000 C 
BRANCH   9  19
ATOM     10  O   UNL     1      -9.957   3.397 131.305  0.00  0.00    +0.000 OA
ATOM     11  C   UNL     1     -10.328   4.436 130.763  0.00  0.00    +0.000 A 
ATOM     12  N   UNL     1     -11.642   4.899 130.691  0.00  0.00    +0.000 N 
ATOM     13  C   UNL     1     -11.664   6.113 130.014  0.00  0.00    +0.000 A 
ATOM     14  C   UNL     1     -10.361   6.438 129.645  0.00  0.00    +0.000 A 
ATOM     15  C   UNL     1     -10.127   7.624 128.958  0.00  0.00    +0.000 A 
ATOM     16  C   UNL     1     -11.202   8.461 128.648  0.00  0.00    +0.000 A 
ATOM     17  C   UNL     1     -12.502   8.108 129.018  0.00  0.00    +0.000 A 
ATOM     18  C   UNL     1     -12.747   6.917 129.712  0.00  0.00    +0.000 A 
ATOM     19  N   UNL     1      -9.523   5.376 130.099  0.00  0.00    +0.000 N 
ATOM     20  H   UNL     1     -12.426   4.400 131.077  0.00  0.00    +0.000 HD
ENDBRANCH   9  19
ENDBRANCH   8   9
ENDBRANCH   7   8
ENDBRANCH   1   7
BRANCH   4  21
ATOM     21  C   UNL     1      -7.584   1.910 123.808  0.00  0.00    +0.000 C 
BRANCH  21  22
ATOM     22  C   UNL     1      -7.859   0.445 123.391  0.00  0.00    +0.000 A 
ATOM     23  C   UNL     1      -6.773  -0.448 123.277  0.00  0.00    +0.000 A 
ATOM     24  C   UNL     1      -6.966  -1.759 122.866  0.00  0.00    +0.000 A 
ATOM     25  C   UNL     1      -8.258  -2.215 122.623  0.00  0.00    +0.000 A 
ATOM     26  C   UNL     1      -9.352  -1.362 122.789  0.00  0.00    +0.000 A 
ATOM     27  C   UNL     1      -9.154  -0.020 123.119  0.00  0.00    +0.000 A 
ENDBRANCH  21  22
BRANCH  21  28
ATOM     28  C   UNL     1      -7.415   2.829 122.597  0.00  0.00    +0.000 A 
ATOM     29  C   UNL     1      -8.515   3.271 121.853  0.00  0.00    +0.000 A 
ATOM     30  C   UNL     1      -8.347   3.758 120.565  0.00  0.00    +0.000 A 
ATOM     31  C   UNL     1      -7.073   4.071 120.120  0.00  0.00    +0.000 A 
ATOM     32  C   UNL     1      -5.986   3.911 120.966  0.00  0.00    +0.000 A 
ATOM     33  C   UNL     1      -6.151   3.254 122.174  0.00  0.00    +0.000 A 
ENDBRANCH  21  28
ENDBRANCH   4  21
TORSDOF 7
ENDMDL
MODEL 3
REMARK VINA RESULT:      -8.9      4.642      8.375
REMARK  Name = Oxatomide
REMARK  7 active torsions:
REMARK  status: ('A' for Active; 'I' for Inactive)
REMARK    1  A    between atoms: N_10  and  C_11
REMARK    2  A    between atoms: C_11  and  C_12
REMARK    3  A    between atoms: C_12  and  C_13
REMARK    4  A    between atoms: C_13  and  N_14
REMARK    5  A    between atoms: N_17  and  C_20
REMARK    6  A    between atoms: C_20  and  C_21
REMARK    7  A    between atoms: C_20  and  C_27
REMARK                            x       y       z     vdW  Elec       q    Type
REMARK                         _______ _______ _______ _____ _____    ______ ____
ROOT
ATOM      1  N   UNL     1      -6.756   1.806 125.793  0.00  0.00    +0.000 NA
ATOM      2  C   UNL     1      -6.061   1.299 126.996  0.00  0.00    +0.000 C 
ATOM      3  C   UNL     1      -7.008   0.905 128.127  0.00  0.00    +0.000 C 
ATOM      4  N   UNL     1      -7.877  -0.208 127.713  0.00  0.00    +0.000 NA
ATOM      5  C   UNL     1      -8.689   0.354 126.605  0.00  0.00    +0.000 C 
ATOM      6  C   UNL     1      -7.835   0.870 125.417  0.00  0.00    +0.000 C 
ENDROOT
BRANCH   1   7
ATOM      7  C   UNL     1      -7.079   3.224 125.997  0.00  0.00    +0.000 C 
BRANCH   7   8
ATOM      8  C   UNL     1      -6.780   3.821 124.628  0.00  0.00    +0.000 C 
BRANCH   8   9
ATOM      9  C   UNL     1      -6.417   2.934 123.486  0.00  0.00    +0.000 C 
BRANCH   9  19
ATOM     10  O   UNL     1      -9.234   2.452 122.925  0.00  0.00    +0.000 OA
ATOM     11  C   UNL     1      -8.495   3.005 122.113  0.00  0.00    +0.000 A 
ATOM     12  N   UNL     1      -8.864   3.458 120.846  0.00  0.00    +0.000 N 
ATOM     13  C   UNL     1      -7.762   4.041 120.229  0.00  0.00    +0.000 A 
ATOM     14  C   UNL     1      -6.677   3.964 121.098  0.00  0.00    +0.000 A 
ATOM     15  C   UNL     1      -5.454   4.494 120.701  0.00  0.00    +0.000 A 
ATOM     16  C   UNL     1      -5.338   5.087 119.441  0.00  0.00    +0.000 A 
ATOM     17  C   UNL     1      -6.439   5.142 118.582  0.00  0.00    +0.000 A 
ATOM     18  C   UNL     1      -7.675   4.613 118.973  0.00  0.00    +0.000 A 
ATOM     19  N   UNL     1      -7.131   3.298 122.274  0.00  0.00    +0.000 N 
ATOM     20  H   UNL     1      -9.792   3.357 120.471  0.00  0.00    +0.000 HD
ENDBRANCH   9  19
ENDBRANCH   8   9
ENDBRANCH   7   8
ENDBRANCH   1   7
BRANCH   4  21
ATOM     21  C   UNL     1      -7.016  -1.398 127.351  0.00  0.00    +0.000 C 
BRANCH  21  22
ATOM     22  C   UNL     1      -6.744  -2.211 128.640  0.00  0.00    +0.000 A 
ATOM     23  C   UNL     1      -5.493  -2.844 128.796  0.00  0.00    +0.000 A 
ATOM     24  C   UNL     1      -5.217  -3.617 129.915  0.00  0.00    +0.000 A 
ATOM     25  C   UNL     1      -6.167  -3.716 130.926  0.00  0.00    +0.000 A 
ATOM     26  C   UNL     1      -7.389  -3.047 130.817  0.00  0.00    +0.000 A 
ATOM     27  C   UNL     1      -7.702  -2.339 129.655  0.00  0.00    +0.000 A 
ENDBRANCH  21  22
BRANCH  21  28
ATOM     28  C   UNL     1      -7.613  -2.267 126.242  0.00  0.00    +0.000 A 
ATOM     29  C   UNL     1      -6.891  -2.572 125.081  0.00  0.00    +0.000 A 
ATOM     30  C   UNL     1      -7.544  -3.007 123.938  0.00  0.00    +0.000 A 
ATOM     31  C   UNL     1      -8.867  -3.410 124.025  0.00  0.00    +0.000 A 
ATOM     32  C   UNL     1      -9.517  -3.390 125.250  0.00  0.00    +0.000 A 
ATOM     33  C   UNL     1      -8.910  -2.781 126.336  0.00  0.00    +0.000 A 
ENDBRANCH  21  28
ENDBRANCH   4  21
TORSDOF 7
ENDMDL
MODEL 4
REMARK VINA RESULT:      -8.9      3.619      6.259
REMARK  Name = Oxatomide
REMARK  7 active torsions:
REMARK  status: ('A' for Active; 'I' for Inactive)
REMARK    1  A    between atoms: N_10  and  C_11
REMARK    2  A    between atoms: C_11  and  C_12
REMARK    3  A    between atoms: C_12  and  C_13
REMARK    4  A    between atoms: C_13  and  N_14
REMARK    5  A    between atoms: N_17  and  C_20
REMARK    6  A    between atoms: C_20  and  C_21
REMARK    7  A    between atoms: C_20  and  C_27
REMARK                            x       y       z     vdW  Elec       q    Type
REMARK                         _______ _______ _______ _____ _____    ______ ____
ROOT
ATOM      1  N   UNL     1      -6.693   3.279 127.096  0.00  0.00    +0.000 NA
ATOM      2  C   UNL     1      -7.041   1.909 126.662  0.00  0.00    +0.000 C 
ATOM      3  C   UNL     1      -8.421   1.806 126.015  0.00  0.00    +0.000 C 
ATOM      4  N   UNL     1      -8.476   2.604 124.780  0.00  0.00    +0.000 NA
ATOM      5  C   UNL     1      -8.283   4.003 125.238  0.00  0.00    +0.000 C 
ATOM      6  C   UNL     1      -6.943   4.224 125.990  0.00  0.00    +0.000 C 
ENDROOT
BRANCH   1   7
ATOM      7  C   UNL     1      -7.309   3.531 128.405  0.00  0.00    +0.000 C 
BRANCH   7   8
ATOM      8  C   UNL     1      -6.133   4.055 129.218  0.00  0.00    +0.000 C 
BRANCH   8   9
ATOM      9  C   UNL     1      -4.737   3.833 128.746  0.00  0.00    +0.000 C 
BRANCH   9  19
ATOM     10  O   UNL     1      -4.194   6.364 127.412  0.00  0.00    +0.000 OA
ATOM     11  C   UNL     1      -3.652   6.059 128.472  0.00  0.00    +0.000 A 
ATOM     12  N   UNL     1      -2.722   6.832 129.168  0.00  0.00    +0.000 N 
ATOM     13  C   UNL     1      -2.346   6.162 130.328  0.00  0.00    +0.000 A 
ATOM     14  C   UNL     1      -3.033   4.952 130.382  0.00  0.00    +0.000 A 
ATOM     15  C   UNL     1      -2.826   4.105 131.465  0.00  0.00    +0.000 A 
ATOM     16  C   UNL     1      -1.933   4.481 132.471  0.00  0.00    +0.000 A 
ATOM     17  C   UNL     1      -1.246   5.696 132.389  0.00  0.00    +0.000 A 
ATOM     18  C   UNL     1      -1.449   6.556 131.304  0.00  0.00    +0.000 A 
ATOM     19  N   UNL     1      -3.839   4.878 129.208  0.00  0.00    +0.000 N 
ATOM     20  H   UNL     1      -2.396   7.728 128.847  0.00  0.00    +0.000 HD
ENDBRANCH   9  19
ENDBRANCH   8   9
ENDBRANCH   7   8
ENDBRANCH   1   7
BRANCH   4  21
ATOM     21  C   UNL     1      -7.435   2.087 123.811  0.00  0.00    +0.000 C 
BRANCH  21  22
ATOM     22  C   UNL     1      -7.803   0.631 123.434  0.00  0.00    +0.000 A 
ATOM     23  C   UNL     1      -6.779  -0.337 123.370  0.00  0.00    +0.000 A 
ATOM     24  C   UNL     1      -7.054  -1.644 122.996  0.00  0.00    +0.000 A 
ATOM     25  C   UNL     1      -8.369  -2.019 122.742  0.00  0.00    +0.000 A 
ATOM     26  C   UNL     1      -9.405  -1.088 122.860  0.00  0.00    +0.000 A 
ATOM     27  C   UNL     1      -9.121   0.247 123.152  0.00  0.00    +0.000 A 
ENDBRANCH  21  22
BRANCH  21  28
ATOM     28  C   UNL     1      -7.258   2.971 122.576  0.00  0.00    +0.000 A 
ATOM     29  C   UNL     1      -8.351   3.364 121.793  0.00  0.00    +0.000 A 
ATOM     30  C   UNL     1      -8.163   3.815 120.494  0.00  0.00    +0.000 A 
ATOM     31  C   UNL     1      -6.886   4.145 120.070  0.00  0.00    +0.000 A 
ATOM     32  C   UNL     1      -5.816   4.038 120.947  0.00  0.00    +0.000 A 
ATOM     33  C   UNL     1      -5.995   3.414 122.170  0.00  0.00    +0.000 A 
ENDBRANCH  21  28
ENDBRANCH   4  21
TORSDOF 7
ENDMDL
MODEL 5
REMARK VINA RESULT:      -8.8      3.334      5.022
REMARK  Name = Oxatomide
REMARK  7 active torsions:
REMARK  status: ('A' for Active; 'I' for Inactive)
REMARK    1  A    between atoms: N_10  and  C_11
REMARK    2  A    between atoms: C_11  and  C_12
REMARK    3  A    between atoms: C_12  and  C_13
REMARK    4  A    between atoms: C_13  and  N_14
REMARK    5  A    between atoms: N_17  and  C_20
REMARK    6  A    between atoms: C_20  and  C_21
REMARK    7  A    between atoms: C_20  and  C_27
REMARK                            x       y       z     vdW  Elec       q    Type
REMARK                         _______ _______ _______ _____ _____    ______ ____
ROOT
ATOM      1  N   UNL     1      -7.882   1.711 128.911  0.00  0.00    +0.000 NA
ATOM      2  C   UNL     1      -8.338   1.047 127.671  0.00  0.00    +0.000 C 
ATOM      3  C   UNL     1      -7.199   0.678 126.722  0.00  0.00    +0.000 C 
ATOM      4  N   UNL     1      -6.297  -0.300 127.349  0.00  0.00    +0.000 NA
ATOM      5  C   UNL     1      -5.718   0.425 128.507  0.00  0.00    +0.000 C 
ATOM      6  C   UNL     1      -6.785   0.928 129.514  0.00  0.00    +0.000 C 
ENDROOT
BRANCH   1   7
ATOM      7  C   UNL     1      -7.673   3.138 128.633  0.00  0.00    +0.000 C 
BRANCH   7   8
ATOM      8  C   UNL     1      -8.726   3.795 129.515  0.00  0.00    +0.000 C 
BRANCH   8   9
ATOM      9  C   UNL     1      -8.454   5.115 130.152  0.00  0.00    +0.000 C 
BRANCH   9  19
ATOM     10  O   UNL     1      -9.603   4.567 132.771  0.00  0.00    +0.000 OA
ATOM     11  C   UNL     1     -10.124   5.356 131.985  0.00  0.00    +0.000 A 
ATOM     12  N   UNL     1     -11.301   6.072 132.204  0.00  0.00    +0.000 N 
ATOM     13  C   UNL     1     -11.564   6.870 131.095  0.00  0.00    +0.000 A 
ATOM     14  C   UNL     1     -10.556   6.669 130.156  0.00  0.00    +0.000 A 
ATOM     15  C   UNL     1     -10.598   7.372 128.957  0.00  0.00    +0.000 A 
ATOM     16  C   UNL     1     -11.651   8.259 128.718  0.00  0.00    +0.000 A 
ATOM     17  C   UNL     1     -12.657   8.435 129.671  0.00  0.00    +0.000 A 
ATOM     18  C   UNL     1     -12.622   7.734 130.881  0.00  0.00    +0.000 A 
ATOM     19  N   UNL     1      -9.660   5.705 130.706  0.00  0.00    +0.000 N 
ATOM     20  H   UNL     1     -11.848   5.993 133.044  0.00  0.00    +0.000 HD
ENDBRANCH   9  19
ENDBRANCH   8   9
ENDBRANCH   7   8
ENDBRANCH   1   7
BRANCH   4  21
ATOM     21  C   UNL     1      -7.082  -1.549 127.688  0.00  0.00    +0.000 C 
BRANCH  21  22
ATOM     22  C   UNL     1      -7.580  -2.183 126.367  0.00  0.00    +0.000 A 
ATOM     23  C   UNL     1      -6.639  -2.504 125.366  0.00  0.00    +0.000 A 
ATOM     24  C   UNL     1      -7.041  -3.036 124.150  0.00  0.00    +0.000 A 
ATOM     25  C   UNL     1      -8.388  -3.314 123.939  0.00  0.00    +0.000 A 
ATOM     26  C   UNL     1      -9.327  -3.060 124.942  0.00  0.00    +0.000 A 
ATOM     27  C   UNL     1      -8.937  -2.446 126.133  0.00  0.00    +0.000 A 
ENDBRANCH  21  22
BRANCH  21  28
ATOM     28  C   UNL     1      -6.300  -2.546 128.544  0.00  0.00    +0.000 A 
ATOM     29  C   UNL     1      -6.939  -3.365 129.484  0.00  0.00    +0.000 A 
ATOM     30  C   UNL     1      -6.217  -3.962 130.507  0.00  0.00    +0.000 A 
ATOM     31  C   UNL     1      -4.833  -3.981 130.438  0.00  0.00    +0.000 A 
ATOM     32  C   UNL     1      -4.187  -3.421 129.345  0.00  0.00    +0.000 A 
ATOM     33  C   UNL     1      -4.912  -2.672 128.433  0.00  0.00    +0.000 A 
ENDBRANCH  21  28
ENDBRANCH   4  21
TORSDOF 7
ENDMDL
MODEL 6
REMARK VINA RESULT:      -8.5      4.498      6.616
REMARK  Name = Oxatomide
REMARK  7 active torsions:
REMARK  status: ('A' for Active; 'I' for Inactive)
REMARK    1  A    between atoms: N_10  and  C_11
REMARK    2  A    between atoms: C_11  and  C_12
REMARK    3  A    between atoms: C_12  and  C_13
REMARK    4  A    between atoms: C_13  and  N_14
REMARK    5  A    between atoms: N_17  and  C_20
REMARK    6  A    between atoms: C_20  and  C_21
REMARK    7  A    between atoms: C_20  and  C_27
REMARK                            x       y       z     vdW  Elec       q    Type
REMARK                         _______ _______ _______ _____ _____    ______ ____
ROOT
ATOM      1  N   UNL     1      -6.799   2.133 130.333  0.00  0.00    +0.000 NA
ATOM      2  C   UNL     1      -5.877   1.128 130.904  0.00  0.00    +0.000 C 
ATOM      3  C   UNL     1      -6.575   0.085 131.776  0.00  0.00    +0.000 C 
ATOM      4  N   UNL     1      -7.526  -0.705 130.979  0.00  0.00    +0.000 NA
ATOM      5  C   UNL     1      -8.542   0.282 130.536  0.00  0.00    +0.000 C 
ATOM      6  C   UNL     1      -7.944   1.447 129.702  0.00  0.00    +0.000 C 
ENDROOT
BRANCH   1   7
ATOM      7  C   UNL     1      -7.053   3.169 131.342  0.00  0.00    +0.000 C 
BRANCH   7   8
ATOM      8  C   UNL     1      -7.632   4.300 130.503  0.00  0.00    +0.000 C 
BRANCH   8   9
ATOM      9  C   UNL     1      -7.794   5.661 131.088  0.00  0.00    +0.000 C 
BRANCH   9  19
ATOM     10  O   UNL     1      -9.257   4.744 133.433  0.00  0.00    +0.000 OA
ATOM     11  C   UNL     1      -9.785   5.442 132.570  0.00  0.00    +0.000 A 
ATOM     12  N   UNL     1     -11.111   5.876 132.566  0.00  0.00    +0.000 N 
ATOM     13  C   UNL     1     -11.335   6.655 131.435  0.00  0.00    +0.000 A 
ATOM     14  C   UNL     1     -10.152   6.724 130.705  0.00  0.00    +0.000 A 
ATOM     15  C   UNL     1     -10.126   7.463 129.526  0.00  0.00    +0.000 A 
ATOM     16  C   UNL     1     -11.286   8.114 129.099  0.00  0.00    +0.000 A 
ATOM     17  C   UNL     1     -12.465   8.019 129.843  0.00  0.00    +0.000 A 
ATOM     18  C   UNL     1     -12.500   7.280 131.031  0.00  0.00    +0.000 A 
ATOM     19  N   UNL     1      -9.183   5.948 131.406  0.00  0.00    +0.000 N 
ATOM     20  H   UNL     1     -11.773   5.638 133.285  0.00  0.00    +0.000 HD
ENDBRANCH   9  19
ENDBRANCH   8   9
ENDBRANCH   7   8
ENDBRANCH   1   7
BRANCH   4  21
ATOM     21  C   UNL     1      -6.776  -1.409 129.869  0.00  0.00    +0.000 C 
BRANCH  21  22
ATOM     22  C   UNL     1      -5.832  -2.456 130.510  0.00  0.00    +0.000 A 
ATOM     23  C   UNL     1      -4.512  -2.572 130.026  0.00  0.00    +0.000 A 
ATOM     24  C   UNL     1      -3.643  -3.524 130.541  0.00  0.00    +0.000 A 
ATOM     25  C   UNL     1      -4.062  -4.332 131.592  0.00  0.00    +0.000 A 
ATOM     26  C   UNL     1      -5.346  -4.191 132.125  0.00  0.00    +0.000 A 
ATOM     27  C   UNL     1      -6.250  -3.294 131.554  0.00  0.00    +0.000 A 
ENDBRANCH  21  22
BRANCH  21  28
ATOM     28  C   UNL     1      -7.690  -2.033 128.815  0.00  0.00    +0.000 A 
ATOM     29  C   UNL     1      -8.464  -3.166 129.092  0.00  0.00    +0.000 A 
ATOM     30  C   UNL     1      -8.970  -3.946 128.062  0.00  0.00    +0.000 A 
ATOM     31  C   UNL     1      -8.952  -3.452 126.767  0.00  0.00    +0.000 A 
ATOM     32  C   UNL     1      -8.447  -2.185 126.517  0.00  0.00    +0.000 A 
ATOM     33  C   UNL     1      -7.782  -1.503 127.523  0.00  0.00    +0.000 A 
ENDBRANCH  21  28
ENDBRANCH   4  21
TORSDOF 7
ENDMDL
MODEL 7
REMARK VINA RESULT:      -8.3      2.796      4.815
REMARK  Name = Oxatomide
REMARK  7 active torsions:
REMARK  status: ('A' for Active; 'I' for Inactive)
REMARK    1  A    between atoms: N_10  and  C_11
REMARK    2  A    between atoms: C_11  and  C_12
REMARK    3  A    between atoms: C_12  and  C_13
REMARK    4  A    between atoms: C_13  and  N_14
REMARK    5  A    between atoms: N_17  and  C_20
REMARK    6  A    between atoms: C_20  and  C_21
REMARK    7  A    between atoms: C_20  and  C_27
REMARK                            x       y       z     vdW  Elec       q    Type
REMARK                         _______ _______ _______ _____ _____    ______ ____
ROOT
ATOM      1  N   UNL     1      -6.462   2.357 127.960  0.00  0.00    +0.000 NA
ATOM      2  C   UNL     1      -7.162   1.157 128.465  0.00  0.00    +0.000 C 
ATOM      3  C   UNL     1      -8.339   0.724 127.594  0.00  0.00    +0.000 C 
ATOM      4  N   UNL     1      -7.877   0.338 126.251  0.00  0.00    +0.000 NA
ATOM      5  C   UNL     1      -7.316   1.588 125.683  0.00  0.00    +0.000 C 
ATOM      6  C   UNL     1      -6.156   2.181 126.526  0.00  0.00    +0.000 C 
ENDROOT
BRANCH   1   7
ATOM      7  C   UNL     1      -7.201   3.551 128.391  0.00  0.00    +0.000 C 
BRANCH   7   8
ATOM      8  C   UNL     1      -6.531   3.881 129.719  0.00  0.00    +0.000 C 
BRANCH   8   9
ATOM      9  C   UNL     1      -7.290   3.749 130.994  0.00  0.00    +0.000 C 
BRANCH   9  19
ATOM     10  O   UNL     1      -9.426   1.784 131.226  0.00  0.00    +0.000 OA
ATOM     11  C   UNL     1      -9.651   2.957 130.936  0.00  0.00    +0.000 A 
ATOM     12  N   UNL     1     -10.905   3.509 130.670  0.00  0.00    +0.000 N 
ATOM     13  C   UNL     1     -10.760   4.865 130.396  0.00  0.00    +0.000 A 
ATOM     14  C   UNL     1      -9.409   5.191 130.483  0.00  0.00    +0.000 A 
ATOM     15  C   UNL     1      -9.015   6.506 130.256  0.00  0.00    +0.000 A 
ATOM     16  C   UNL     1      -9.979   7.467 129.942  0.00  0.00    +0.000 A 
ATOM     17  C   UNL     1     -11.328   7.112 129.848  0.00  0.00    +0.000 A 
ATOM     18  C   UNL     1     -11.734   5.792 130.077  0.00  0.00    +0.000 A 
ATOM     19  N   UNL     1      -8.710   3.991 130.804  0.00  0.00    +0.000 N 
ATOM     20  H   UNL     1     -11.758   2.975 130.681  0.00  0.00    +0.000 HD
ENDBRANCH   9  19
ENDBRANCH   8   9
ENDBRANCH   7   8
ENDBRANCH   1   7
BRANCH   4  21
ATOM     21  C   UNL     1      -6.904  -0.815 126.377  0.00  0.00    +0.000 C 
BRANCH  21  22
ATOM     22  C   UNL     1      -7.609  -1.964 127.138  0.00  0.00    +0.000 A 
ATOM     23  C   UNL     1      -8.667  -2.651 126.508  0.00  0.00    +0.000 A 
ATOM     24  C   UNL     1      -9.356  -3.660 127.166  0.00  0.00    +0.000 A 
ATOM     25  C   UNL     1      -8.954  -4.041 128.442  0.00  0.00    +0.000 A 
ATOM     26  C   UNL     1      -7.869  -3.412 129.058  0.00  0.00    +0.000 A 
ATOM     27  C   UNL     1      -7.229  -2.340 128.434  0.00  0.00    +0.000 A 
ENDBRANCH  21  22
BRANCH  21  28
ATOM     28  C   UNL     1      -6.334  -1.280 125.036  0.00  0.00    +0.000 A 
ATOM     29  C   UNL     1      -6.822  -0.786 123.820  0.00  0.00    +0.000 A 
ATOM     30  C   UNL     1      -6.596  -1.473 122.637  0.00  0.00    +0.000 A 
ATOM     31  C   UNL     1      -5.655  -2.489 122.613  0.00  0.00    +0.000 A 
ATOM     32  C   UNL     1      -4.940  -2.797 123.761  0.00  0.00    +0.000 A 
ATOM     33  C   UNL     1      -5.310  -2.230 124.969  0.00  0.00    +0.000 A 
ENDBRANCH  21  28
ENDBRANCH   4  21
TORSDOF 7
ENDMDL
MODEL 8
REMARK VINA RESULT:      -8.1      1.648      2.344
REMARK  Name = Oxatomide
REMARK  7 active torsions:
REMARK  status: ('A' for Active; 'I' for Inactive)
REMARK    1  A    between atoms: N_10  and  C_11
REMARK    2  A    between atoms: C_11  and  C_12
REMARK    3  A    between atoms: C_12  and  C_13
REMARK    4  A    between atoms: C_13  and  N_14
REMARK    5  A    between atoms: N_17  and  C_20
REMARK    6  A    between atoms: C_20  and  C_21
REMARK    7  A    between atoms: C_20  and  C_27
REMARK                            x       y       z     vdW  Elec       q    Type
REMARK                         _______ _______ _______ _____ _____    ______ ____
ROOT
ATOM      1  N   UNL     1      -8.165   1.285 128.798  0.00  0.00    +0.000 NA
ATOM      2  C   UNL     1      -8.230   2.201 127.638  0.00  0.00    +0.000 C 
ATOM      3  C   UNL     1      -6.953   2.216 126.800  0.00  0.00    +0.000 C 
ATOM      4  N   UNL     1      -6.707   0.893 126.206  0.00  0.00    +0.000 NA
ATOM      5  C   UNL     1      -6.484   0.003 127.372  0.00  0.00    +0.000 C 
ATOM      6  C   UNL     1      -7.686  -0.039 128.353  0.00  0.00    +0.000 C 
ENDROOT
BRANCH   1   7
ATOM      7  C   UNL     1      -7.468   1.965 129.898  0.00  0.00    +0.000 C 
BRANCH   7   8
ATOM      8  C   UNL     1      -8.111   3.345 129.880  0.00  0.00    +0.000 C 
BRANCH   8   9
ATOM      9  C   UNL     1      -7.807   4.328 130.958  0.00  0.00    +0.000 C 
BRANCH   9  19
ATOM     10  O   UNL     1      -8.953   4.001 133.615  0.00  0.00    +0.000 OA
ATOM     11  C   UNL     1      -9.473   4.724 132.767  0.00  0.00    +0.000 A 
ATOM     12  N   UNL     1     -10.648   5.459 132.927  0.00  0.00    +0.000 N 
ATOM     13  C   UNL     1     -10.911   6.163 131.757  0.00  0.00    +0.000 A 
ATOM     14  C   UNL     1      -9.905   5.883 130.837  0.00  0.00    +0.000 A 
ATOM     15  C   UNL     1      -9.947   6.485 129.584  0.00  0.00    +0.000 A 
ATOM     16  C   UNL     1     -10.998   7.352 129.273  0.00  0.00    +0.000 A 
ATOM     17  C   UNL     1     -12.003   7.608 130.210  0.00  0.00    +0.000 A 
ATOM     18  C   UNL     1     -11.968   7.009 131.474  0.00  0.00    +0.000 A 
ATOM     19  N   UNL     1      -9.011   4.965 131.463  0.00  0.00    +0.000 N 
ATOM     20  H   UNL     1     -11.195   5.450 133.772  0.00  0.00    +0.000 HD
ENDBRANCH   9  19
ENDBRANCH   8   9
ENDBRANCH   7   8
ENDBRANCH   1   7
BRANCH   4  21
ATOM     21  C   UNL     1      -7.877   0.524 125.319  0.00  0.00    +0.000 C 
BRANCH  21  22
ATOM     22  C   UNL     1      -7.886   1.483 124.104  0.00  0.00    +0.000 A 
ATOM     23  C   UNL     1      -6.664   2.025 123.653  0.00  0.00    +0.000 A 
ATOM     24  C   UNL     1      -6.628   2.921 122.594  0.00  0.00    +0.000 A 
ATOM     25  C   UNL     1      -7.807   3.240 121.929  0.00  0.00    +0.000 A 
ATOM     26  C   UNL     1      -9.018   2.666 122.323  0.00  0.00    +0.000 A 
ATOM     27  C   UNL     1      -9.071   1.832 123.441  0.00  0.00    +0.000 A 
ENDBRANCH  21  22
BRANCH  21  28
ATOM     28  C   UNL     1      -7.878  -0.944 124.891  0.00  0.00    +0.000 A 
ATOM     29  C   UNL     1      -8.912  -1.815 125.258  0.00  0.00    +0.000 A 
ATOM     30  C   UNL     1      -8.727  -3.189 125.215  0.00  0.00    +0.000 A 
ATOM     31  C   UNL     1      -7.629  -3.704 124.545  0.00  0.00    +0.000 A 
ATOM     32  C   UNL     1      -6.738  -2.847 123.915  0.00  0.00    +0.000 A 
ATOM     33  C   UNL     1      -6.838  -1.482 124.125  0.00  0.00    +0.000 A 
ENDBRANCH  21  28
ENDBRANCH   4  21
TORSDOF 7
ENDMDL
MODEL 9
REMARK VINA RESULT:      -8.0      3.617      9.952
REMARK  Name = Oxatomide
REMARK  7 active torsions:
REMARK  status: ('A' for Active; 'I' for Inactive)
REMARK    1  A    between atoms: N_10  and  C_11
REMARK    2  A    between atoms: C_11  and  C_12
REMARK    3  A    between atoms: C_12  and  C_13
REMARK    4  A    between atoms: C_13  and  N_14
REMARK    5  A    between atoms: N_17  and  C_20
REMARK    6  A    between atoms: C_20  and  C_21
REMARK    7  A    between atoms: C_20  and  C_27
REMARK                            x       y       z     vdW  Elec       q    Type
REMARK                         _______ _______ _______ _____ _____    ______ ____
ROOT
ATOM      1  N   UNL     1      -7.535   2.038 129.539  0.00  0.00    +0.000 NA
ATOM      2  C   UNL     1      -8.585   3.020 129.191  0.00  0.00    +0.000 C 
ATOM      3  C   UNL     1      -9.715   3.093 130.216  0.00  0.00    +0.000 C 
ATOM      4  N   UNL     1      -9.206   3.550 131.519  0.00  0.00    +0.000 NA
ATOM      5  C   UNL     1      -8.268   2.481 131.941  0.00  0.00    +0.000 C 
ATOM      6  C   UNL     1      -7.108   2.249 130.937  0.00  0.00    +0.000 C 
ENDROOT
BRANCH   1   7
ATOM      7  C   UNL     1      -7.980   0.702 129.121  0.00  0.00    +0.000 C 
BRANCH   7   8
ATOM      8  C   UNL     1      -6.930   0.324 128.086  0.00  0.00    +0.000 C 
BRANCH   8   9
ATOM      9  C   UNL     1      -6.455  -1.085 127.980  0.00  0.00    +0.000 C 
BRANCH   9  19
ATOM     10  O   UNL     1      -8.329  -3.015 129.095  0.00  0.00    +0.000 OA
ATOM     11  C   UNL     1      -8.242  -2.818 127.885  0.00  0.00    +0.000 A 
ATOM     12  N   UNL     1      -8.981  -3.467 126.895  0.00  0.00    +0.000 N 
ATOM     13  C   UNL     1      -8.615  -2.968 125.649  0.00  0.00    +0.000 A 
ATOM     14  C   UNL     1      -7.635  -1.996 125.832  0.00  0.00    +0.000 A 
ATOM     15  C   UNL     1      -7.115  -1.342 124.721  0.00  0.00    +0.000 A 
ATOM     16  C   UNL     1      -7.580  -1.676 123.447  0.00  0.00    +0.000 A 
ATOM     17  C   UNL     1      -8.556  -2.664 123.287  0.00  0.00    +0.000 A 
ATOM     18  C   UNL     1      -9.087  -3.326 124.400  0.00  0.00    +0.000 A 
ATOM     19  N   UNL     1      -7.387  -1.913 127.234  0.00  0.00    +0.000 N 
ATOM     20  H   UNL     1      -9.661  -4.181 127.091  0.00  0.00    +0.000 HD
ENDBRANCH   9  19
ENDBRANCH   8   9
ENDBRANCH   7   8
ENDBRANCH   1   7
BRANCH   4  21
ATOM     21  C   UNL     1      -8.596   4.925 131.356  0.00  0.00    +0.000 C 
BRANCH  21  22
ATOM     22  C   UNL     1      -9.725   5.916 130.978  0.00  0.00    +0.000 A 
ATOM     23  C   UNL     1     -10.893   5.953 131.769  0.00  0.00    +0.000 A 
ATOM     24  C   UNL     1     -11.948   6.794 131.446  0.00  0.00    +0.000 A 
ATOM     25  C   UNL     1     -11.825   7.657 130.362  0.00  0.00    +0.000 A 
ATOM     26  C   UNL     1     -10.652   7.677 129.604  0.00  0.00    +0.000 A 
ATOM     27  C   UNL     1      -9.624   6.773 129.874  0.00  0.00    +0.000 A 
ENDBRANCH  21  22
BRANCH  21  28
ATOM     28  C   UNL     1      -7.810   5.393 132.581  0.00  0.00    +0.000 A 
ATOM     29  C   UNL     1      -6.491   5.852 132.475  0.00  0.00    +0.000 A 
ATOM     30  C   UNL     1      -5.667   5.896 133.591  0.00  0.00    +0.000 A 
ATOM     31  C   UNL     1      -6.226   5.760 134.851  0.00  0.00    +0.000 A 
ATOM     32  C   UNL     1      -7.597   5.596 134.986  0.00  0.00    +0.000 A 
ATOM     33  C   UNL     1      -8.372   5.369 133.862  0.00  0.00    +0.000 A 
ENDBRANCH  21  28
ENDBRANCH   4  21
TORSDOF 7
ENDMDL
