MODEL 1
REMARK VINA RESULT:      -7.6      0.000      0.000
REMARK  Name = Oxazepam
REMARK  2 active torsions:
REMARK  status: ('A' for Active; 'I' for Inactive)
REMARK    1  A    between atoms: O_1  and  C_2
REMARK    2  A    between atoms: C_4  and  C_5
REMARK                            x       y       z     vdW  Elec       q    Type
REMARK                         _______ _______ _______ _____ _____    ______ ____
ROOT
ATOM      1  C   UNL     1      -7.614   4.511 125.513  0.00  0.00    +0.000 C 
ATOM      2  N   UNL     1      -8.200   3.267 125.009  0.00  0.00    +0.000 NA
ATOM      3  C   UNL     1      -7.874   2.830 123.838  0.00  0.00    +0.000 C 
ATOM      4  C   UNL     1      -6.956   3.513 122.877  0.00  0.00    +0.000 A 
ATOM      5  C   UNL     1      -5.747   4.101 123.277  0.00  0.00    +0.000 A 
ATOM      6  N   UNL     1      -5.306   4.151 124.603  0.00  0.00    +0.000 N 
ATOM      7  C   UNL     1      -6.085   4.322 125.718  0.00  0.00    +0.000 C 
ATOM      8  O   UNL     1      -5.504   4.438 126.807  0.00  0.00    +0.000 OA
ATOM      9  C   UNL     1      -4.894   4.655 122.314  0.00  0.00    +0.000 A 
ATOM     10  C   UNL     1      -5.250   4.649 120.965  0.00  0.00    +0.000 A 
ATOM     11  C   UNL     1      -6.437   4.045 120.568  0.00  0.00    +0.000 A 
ATOM     12 CL   UNL     1      -6.862   3.999 118.903  0.00  0.00    +0.000 Cl
ATOM     13  C   UNL     1      -7.285   3.473 121.512  0.00  0.00    +0.000 A 
ATOM     14  H   UNL     1      -4.317   4.249 124.801  0.00  0.00    +0.000 HD
ENDROOT
BRANCH   3  15
ATOM     15  C   UNL     1      -8.432   1.511 123.407  0.00  0.00    +0.000 A 
ATOM     16  C   UNL     1      -9.707   1.420 122.842  0.00  0.00    +0.000 A 
ATOM     17  C   UNL     1     -10.231   0.164 122.525  0.00  0.00    +0.000 A 
ATOM     18  C   UNL     1      -9.451  -0.984 122.689  0.00  0.00    +0.000 A 
ATOM     19  C   UNL     1      -8.145  -0.879 123.161  0.00  0.00    +0.000 A 
ATOM     20  C   UNL     1      -7.653   0.359 123.570  0.00  0.00    +0.000 A 
ENDBRANCH   3  15
BRANCH   1  21
ATOM     21  O   UNL     1      -8.217   4.962 126.717  0.00  0.00    +0.000 OA
ATOM     22  H   UNL     1      -7.475   5.228 127.279  0.00  0.00    +0.000 HD
ENDBRANCH   1  21
TORSDOF 2
ENDMDL
MODEL 2
REMARK VINA RESULT:      -7.4      3.276      5.272
REMARK  Name = Oxazepam
REMARK  2 active torsions:
REMARK  status: ('A' for Active; 'I' for Inactive)
REMARK    1  A    between atoms: O_1  and  C_2
REMARK    2  A    between atoms: C_4  and  C_5
REMARK                            x       y       z     vdW  Elec       q    Type
REMARK                         _______ _______ _______ _____ _____    ______ ____
ROOT
ATOM      1  C   UNL     1      -9.946   1.175 123.307  0.00  0.00    +0.000 C 
ATOM      2  N   UNL     1      -9.280   2.033 122.326  0.00  0.00    +0.000 NA
ATOM      3  C   UNL     1      -8.075   2.444 122.543  0.00  0.00    +0.000 C 
ATOM      4  C   UNL     1      -7.266   2.163 123.768  0.00  0.00    +0.000 A 
ATOM      5  C   UNL     1      -7.216   0.895 124.364  0.00  0.00    +0.000 A 
ATOM      6  N   UNL     1      -7.944  -0.209 123.910  0.00  0.00    +0.000 N 
ATOM      7  C   UNL     1      -9.212  -0.193 123.388  0.00  0.00    +0.000 C 
ATOM      8  O   UNL     1      -9.735  -1.286 123.129  0.00  0.00    +0.000 OA
ATOM      9  C   UNL     1      -6.375   0.679 125.463  0.00  0.00    +0.000 A 
ATOM     10  C   UNL     1      -5.607   1.721 125.984  0.00  0.00    +0.000 A 
ATOM     11  C   UNL     1      -5.640   2.971 125.377  0.00  0.00    +0.000 A 
ATOM     12 CL   UNL     1      -4.667   4.249 125.989  0.00  0.00    +0.000 Cl
ATOM     13  C   UNL     1      -6.456   3.195 124.272  0.00  0.00    +0.000 A 
ATOM     14  H   UNL     1      -7.624  -1.146 124.124  0.00  0.00    +0.000 HD
ENDROOT
BRANCH   3  15
ATOM     15  C   UNL     1      -7.408   3.245 121.470  0.00  0.00    +0.000 A 
ATOM     16  C   UNL     1      -6.022   3.426 121.465  0.00  0.00    +0.000 A 
ATOM     17  C   UNL     1      -5.439   4.248 120.496  0.00  0.00    +0.000 A 
ATOM     18  C   UNL     1      -6.226   4.811 119.488  0.00  0.00    +0.000 A 
ATOM     19  C   UNL     1      -7.593   4.549 119.441  0.00  0.00    +0.000 A 
ATOM     20  C   UNL     1      -8.194   3.811 120.459  0.00  0.00    +0.000 A 
ENDBRANCH   3  15
BRANCH   1  21
ATOM     21  O   UNL     1     -11.323   0.974 123.026  0.00  0.00    +0.000 OA
ATOM     22  H   UNL     1     -11.655   1.849 122.777  0.00  0.00    +0.000 HD
ENDBRANCH   1  21
TORSDOF 2
ENDMDL
MODEL 3
REMARK VINA RESULT:      -7.4      2.162      4.400
REMARK  Name = Oxazepam
REMARK  2 active torsions:
REMARK  status: ('A' for Active; 'I' for Inactive)
REMARK    1  A    between atoms: O_1  and  C_2
REMARK    2  A    between atoms: C_4  and  C_5
REMARK                            x       y       z     vdW  Elec       q    Type
REMARK                         _______ _______ _______ _____ _____    ______ ____
ROOT
ATOM      1  C   UNL     1      -6.310   3.911 125.878  0.00  0.00    +0.000 C 
ATOM      2  N   UNL     1      -6.501   4.155 124.446  0.00  0.00    +0.000 NA
ATOM      3  C   UNL     1      -6.898   3.195 123.678  0.00  0.00    +0.000 C 
ATOM      4  C   UNL     1      -7.150   1.785 124.103  0.00  0.00    +0.000 A 
ATOM      5  C   UNL     1      -7.831   1.464 125.285  0.00  0.00    +0.000 A 
ATOM      6  N   UNL     1      -8.296   2.414 126.199  0.00  0.00    +0.000 N 
ATOM      7  C   UNL     1      -7.680   3.591 126.540  0.00  0.00    +0.000 C 
ATOM      8  O   UNL     1      -8.195   4.263 127.445  0.00  0.00    +0.000 OA
ATOM      9  C   UNL     1      -8.104   0.123 125.585  0.00  0.00    +0.000 A 
ATOM     10  C   UNL     1      -7.681  -0.895 124.730  0.00  0.00    +0.000 A 
ATOM     11  C   UNL     1      -7.026  -0.573 123.547  0.00  0.00    +0.000 A 
ATOM     12 CL   UNL     1      -6.538  -1.820 122.469  0.00  0.00    +0.000 Cl
ATOM     13  C   UNL     1      -6.766   0.756 123.226  0.00  0.00    +0.000 A 
ATOM     14  H   UNL     1      -9.060   2.182 126.822  0.00  0.00    +0.000 HD
ENDROOT
BRANCH   3  15
ATOM     15  C   UNL     1      -7.162   3.518 122.241  0.00  0.00    +0.000 A 
ATOM     16  C   UNL     1      -6.116   3.846 121.374  0.00  0.00    +0.000 A 
ATOM     17  C   UNL     1      -6.406   4.222 120.059  0.00  0.00    +0.000 A 
ATOM     18  C   UNL     1      -7.722   4.182 119.591  0.00  0.00    +0.000 A 
ATOM     19  C   UNL     1      -8.750   3.761 120.431  0.00  0.00    +0.000 A 
ATOM     20  C   UNL     1      -8.480   3.479 121.769  0.00  0.00    +0.000 A 
ENDBRANCH   3  15
BRANCH   1  21
ATOM     21  O   UNL     1      -5.685   4.995 126.547  0.00  0.00    +0.000 OA
ATOM     22  H   UNL     1      -5.853   4.835 127.488  0.00  0.00    +0.000 HD
ENDBRANCH   1  21
TORSDOF 2
ENDMDL
MODEL 4
REMARK VINA RESULT:      -7.0      2.513      4.794
REMARK  Name = Oxazepam
REMARK  2 active torsions:
REMARK  status: ('A' for Active; 'I' for Inactive)
REMARK    1  A    between atoms: O_1  and  C_2
REMARK    2  A    between atoms: C_4  and  C_5
REMARK                            x       y       z     vdW  Elec       q    Type
REMARK                         _______ _______ _______ _____ _____    ______ ____
ROOT
ATOM      1  C   UNL     1      -8.491   0.321 124.116  0.00  0.00    +0.000 C 
ATOM      2  N   UNL     1      -7.475   1.044 124.884  0.00  0.00    +0.000 NA
ATOM      3  C   UNL     1      -6.939   2.113 124.395  0.00  0.00    +0.000 C 
ATOM      4  C   UNL     1      -7.223   2.692 123.046  0.00  0.00    +0.000 A 
ATOM      5  C   UNL     1      -8.521   2.797 122.529  0.00  0.00    +0.000 A 
ATOM      6  N   UNL     1      -9.663   2.334 123.189  0.00  0.00    +0.000 N 
ATOM      7  C   UNL     1      -9.760   1.207 123.965  0.00  0.00    +0.000 C 
ATOM      8  O   UNL     1     -10.882   0.903 124.392  0.00  0.00    +0.000 OA
ATOM      9  C   UNL     1      -8.726   3.423 121.293  0.00  0.00    +0.000 A 
ATOM     10  C   UNL     1      -7.645   3.918 120.561  0.00  0.00    +0.000 A 
ATOM     11  C   UNL     1      -6.361   3.834 121.088  0.00  0.00    +0.000 A 
ATOM     12 CL   UNL     1      -5.031   4.478 120.211  0.00  0.00    +0.000 Cl
ATOM     13  C   UNL     1      -6.146   3.232 122.324  0.00  0.00    +0.000 A 
ATOM     14  H   UNL     1     -10.569   2.732 122.969  0.00  0.00    +0.000 HD
ENDROOT
BRANCH   3  15
ATOM     15  C   UNL     1      -5.972   2.863 125.255  0.00  0.00    +0.000 A 
ATOM     16  C   UNL     1      -4.886   2.215 125.849  0.00  0.00    +0.000 A 
ATOM     17  C   UNL     1      -4.049   2.927 126.713  0.00  0.00    +0.000 A 
ATOM     18  C   UNL     1      -4.243   4.297 126.908  0.00  0.00    +0.000 A 
ATOM     19  C   UNL     1      -5.268   4.960 126.236  0.00  0.00    +0.000 A 
ATOM     20  C   UNL     1      -6.164   4.236 125.452  0.00  0.00    +0.000 A 
ENDBRANCH   3  15
BRANCH   1  21
ATOM     21  O   UNL     1      -8.836  -0.930 124.692  0.00  0.00    +0.000 OA
ATOM     22  H   UNL     1      -9.733  -0.806 125.034  0.00  0.00    +0.000 HD
ENDBRANCH   1  21
TORSDOF 2
ENDMDL
MODEL 5
REMARK VINA RESULT:      -7.0      4.736      6.519
REMARK  Name = Oxazepam
REMARK  2 active torsions:
REMARK  status: ('A' for Active; 'I' for Inactive)
REMARK    1  A    between atoms: O_1  and  C_2
REMARK    2  A    between atoms: C_4  and  C_5
REMARK                            x       y       z     vdW  Elec       q    Type
REMARK                         _______ _______ _______ _____ _____    ______ ____
ROOT
ATOM      1  C   UNL     1      -9.376  -2.565 124.400  0.00  0.00    +0.000 C 
ATOM      2  N   UNL     1      -9.114  -1.293 123.723  0.00  0.00    +0.000 NA
ATOM      3  C   UNL     1      -8.627  -0.299 124.388  0.00  0.00    +0.000 C 
ATOM      4  C   UNL     1      -8.331  -0.291 125.852  0.00  0.00    +0.000 A 
ATOM      5  C   UNL     1      -7.705  -1.364 126.501  0.00  0.00    +0.000 A 
ATOM      6  N   UNL     1      -7.341  -2.554 125.865  0.00  0.00    +0.000 N 
ATOM      7  C   UNL     1      -8.033  -3.193 124.867  0.00  0.00    +0.000 C 
ATOM      8  O   UNL     1      -7.604  -4.293 124.491  0.00  0.00    +0.000 OA
ATOM      9  C   UNL     1      -7.384  -1.260 127.861  0.00  0.00    +0.000 A 
ATOM     10  C   UNL     1      -7.706  -0.108 128.579  0.00  0.00    +0.000 A 
ATOM     11  C   UNL     1      -8.306   0.964 127.928  0.00  0.00    +0.000 A 
ATOM     12 CL   UNL     1      -8.669   2.402 128.798  0.00  0.00    +0.000 Cl
ATOM     13  C   UNL     1      -8.612   0.882 126.573  0.00  0.00    +0.000 A 
ATOM     14  H   UNL     1      -6.603  -3.129 126.254  0.00  0.00    +0.000 HD
ENDROOT
BRANCH   3  15
ATOM     15  C   UNL     1      -8.296   0.949 123.632  0.00  0.00    +0.000 A 
ATOM     16  C   UNL     1      -9.294   1.684 122.986  0.00  0.00    +0.000 A 
ATOM     17  C   UNL     1      -8.940   2.799 122.220  0.00  0.00    +0.000 A 
ATOM     18  C   UNL     1      -7.611   3.227 122.176  0.00  0.00    +0.000 A 
ATOM     19  C   UNL     1      -6.634   2.548 122.901  0.00  0.00    +0.000 A 
ATOM     20  C   UNL     1      -6.965   1.380 123.585  0.00  0.00    +0.000 A 
ENDBRANCH   3  15
BRANCH   1  21
ATOM     21  O   UNL     1     -10.091  -3.488 123.592  0.00  0.00    +0.000 OA
ATOM     22  H   UNL     1     -10.853  -2.989 123.263  0.00  0.00    +0.000 HD
ENDBRANCH   1  21
TORSDOF 2
ENDMDL
MODEL 6
REMARK VINA RESULT:      -6.9      1.514      2.057
REMARK  Name = Oxazepam
REMARK  2 active torsions:
REMARK  status: ('A' for Active; 'I' for Inactive)
REMARK    1  A    between atoms: O_1  and  C_2
REMARK    2  A    between atoms: C_4  and  C_5
REMARK                            x       y       z     vdW  Elec       q    Type
REMARK                         _______ _______ _______ _____ _____    ______ ____
ROOT
ATOM      1  C   UNL     1      -7.846   2.693 126.645  0.00  0.00    +0.000 C 
ATOM      2  N   UNL     1      -8.052   1.484 125.845  0.00  0.00    +0.000 NA
ATOM      3  C   UNL     1      -7.559   1.409 124.653  0.00  0.00    +0.000 C 
ATOM      4  C   UNL     1      -6.805   2.493 123.952  0.00  0.00    +0.000 A 
ATOM      5  C   UNL     1      -5.820   3.260 124.589  0.00  0.00    +0.000 A 
ATOM      6  N   UNL     1      -5.480   3.127 125.938  0.00  0.00    +0.000 N 
ATOM      7  C   UNL     1      -6.335   2.850 126.974  0.00  0.00    +0.000 C 
ATOM      8  O   UNL     1      -5.865   2.866 128.121  0.00  0.00    +0.000 OA
ATOM      9  C   UNL     1      -5.095   4.206 123.853  0.00  0.00    +0.000 A 
ATOM     10  C   UNL     1      -5.363   4.408 122.499  0.00  0.00    +0.000 A 
ATOM     11  C   UNL     1      -6.324   3.629 121.864  0.00  0.00    +0.000 A 
ATOM     12 CL   UNL     1      -6.631   3.845 120.186  0.00  0.00    +0.000 Cl
ATOM     13  C   UNL     1      -7.038   2.672 122.578  0.00  0.00    +0.000 A 
ATOM     14  H   UNL     1      -4.565   3.422 126.259  0.00  0.00    +0.000 HD
ENDROOT
BRANCH   3  15
ATOM     15  C   UNL     1      -7.721   0.120 123.911  0.00  0.00    +0.000 A 
ATOM     16  C   UNL     1      -6.623  -0.704 123.654  0.00  0.00    +0.000 A 
ATOM     17  C   UNL     1      -6.795  -1.860 122.888  0.00  0.00    +0.000 A 
ATOM     18  C   UNL     1      -8.071  -2.235 122.460  0.00  0.00    +0.000 A 
ATOM     19  C   UNL     1      -9.178  -1.461 122.801  0.00  0.00    +0.000 A 
ATOM     20  C   UNL     1      -8.999  -0.257 123.481  0.00  0.00    +0.000 A 
ENDBRANCH   3  15
BRANCH   1  21
ATOM     21  O   UNL     1      -8.610   2.705 127.841  0.00  0.00    +0.000 OA
ATOM     22  H   UNL     1      -8.155   2.087 128.431  0.00  0.00    +0.000 HD
ENDBRANCH   1  21
TORSDOF 2
ENDMDL
MODEL 7
REMARK VINA RESULT:      -6.8      6.487      8.559
REMARK  Name = Oxazepam
REMARK  2 active torsions:
REMARK  status: ('A' for Active; 'I' for Inactive)
REMARK    1  A    between atoms: O_1  and  C_2
REMARK    2  A    between atoms: C_4  and  C_5
REMARK                            x       y       z     vdW  Elec       q    Type
REMARK                         _______ _______ _______ _____ _____    ______ ____
ROOT
ATOM      1  C   UNL     1      -8.830   5.655 132.829  0.00  0.00    +0.000 C 
ATOM      2  N   UNL     1      -9.742   6.357 131.924  0.00  0.00    +0.000 NA
ATOM      3  C   UNL     1      -9.839   5.984 130.691  0.00  0.00    +0.000 C 
ATOM      4  C   UNL     1      -9.050   4.891 130.047  0.00  0.00    +0.000 A 
ATOM      5  C   UNL     1      -8.821   3.657 130.671  0.00  0.00    +0.000 A 
ATOM      6  N   UNL     1      -9.260   3.343 131.961  0.00  0.00    +0.000 N 
ATOM      7  C   UNL     1      -9.321   4.194 133.034  0.00  0.00    +0.000 C 
ATOM      8  O   UNL     1      -9.646   3.711 134.128  0.00  0.00    +0.000 OA
ATOM      9  C   UNL     1      -8.141   2.645 129.980  0.00  0.00    +0.000 A 
ATOM     10  C   UNL     1      -7.668   2.866 128.686  0.00  0.00    +0.000 A 
ATOM     11  C   UNL     1      -7.916   4.082 128.060  0.00  0.00    +0.000 A 
ATOM     12 CL   UNL     1      -7.371   4.347 126.452  0.00  0.00    +0.000 Cl
ATOM     13  C   UNL     1      -8.608   5.089 128.728  0.00  0.00    +0.000 A 
ATOM     14  H   UNL     1      -9.391   2.374 132.227  0.00  0.00    +0.000 HD
ENDROOT
BRANCH   3  15
ATOM     15  C   UNL     1     -10.849   6.676 129.831  0.00  0.00    +0.000 A 
ATOM     16  C   UNL     1     -10.562   7.909 129.238  0.00  0.00    +0.000 A 
ATOM     17  C   UNL     1     -11.556   8.567 128.508  0.00  0.00    +0.000 A 
ATOM     18  C   UNL     1     -12.795   7.956 128.297  0.00  0.00    +0.000 A 
ATOM     19  C   UNL     1     -13.041   6.684 128.808  0.00  0.00    +0.000 A 
ATOM     20  C   UNL     1     -12.091   6.066 129.619  0.00  0.00    +0.000 A 
ENDBRANCH   3  15
BRANCH   1  21
ATOM     21  O   UNL     1      -8.686   6.303 134.084  0.00  0.00    +0.000 OA
ATOM     22  H   UNL     1      -8.784   7.246 133.888  0.00  0.00    +0.000 HD
ENDBRANCH   1  21
TORSDOF 2
ENDMDL
MODEL 8
REMARK VINA RESULT:      -6.7      7.591      9.307
REMARK  Name = Oxazepam
REMARK  2 active torsions:
REMARK  status: ('A' for Active; 'I' for Inactive)
REMARK    1  A    between atoms: O_1  and  C_2
REMARK    2  A    between atoms: C_4  and  C_5
REMARK                            x       y       z     vdW  Elec       q    Type
REMARK                         _______ _______ _______ _____ _____    ______ ____
ROOT
ATOM      1  C   UNL     1     -10.408   5.598 130.170  0.00  0.00    +0.000 C 
ATOM      2  N   UNL     1     -10.047   4.183 130.065  0.00  0.00    +0.000 NA
ATOM      3  C   UNL     1      -9.202   3.670 130.897  0.00  0.00    +0.000 C 
ATOM      4  C   UNL     1      -8.483   4.412 131.977  0.00  0.00    +0.000 A 
ATOM      5  C   UNL     1      -9.122   5.347 132.804  0.00  0.00    +0.000 A 
ATOM      6  N   UNL     1     -10.466   5.712 132.674  0.00  0.00    +0.000 N 
ATOM      7  C   UNL     1     -11.168   5.845 131.503  0.00  0.00    +0.000 C 
ATOM      8  O   UNL     1     -12.328   6.273 131.580  0.00  0.00    +0.000 OA
ATOM      9  C   UNL     1      -8.410   5.948 133.849  0.00  0.00    +0.000 A 
ATOM     10  C   UNL     1      -7.064   5.643 134.058  0.00  0.00    +0.000 A 
ATOM     11  C   UNL     1      -6.440   4.699 133.251  0.00  0.00    +0.000 A 
ATOM     12 CL   UNL     1      -4.793   4.289 133.528  0.00  0.00    +0.000 Cl
ATOM     13  C   UNL     1      -7.140   4.079 132.221  0.00  0.00    +0.000 A 
ATOM     14  H   UNL     1     -10.963   6.092 133.470  0.00  0.00    +0.000 HD
ENDROOT
BRANCH   3  15
ATOM     15  C   UNL     1      -8.934   2.202 130.802  0.00  0.00    +0.000 A 
ATOM     16  C   UNL     1      -9.365   1.327 131.803  0.00  0.00    +0.000 A 
ATOM     17  C   UNL     1      -9.027  -0.027 131.725  0.00  0.00    +0.000 A 
ATOM     18  C   UNL     1      -8.341  -0.517 130.610  0.00  0.00    +0.000 A 
ATOM     19  C   UNL     1      -7.999   0.342 129.568  0.00  0.00    +0.000 A 
ATOM     20  C   UNL     1      -8.247   1.709 129.686  0.00  0.00    +0.000 A 
ENDBRANCH   3  15
BRANCH   1  21
ATOM     21  O   UNL     1     -11.184   6.056 129.074  0.00  0.00    +0.000 OA
ATOM     22  H   UNL     1     -11.774   5.318 128.863  0.00  0.00    +0.000 HD
ENDBRANCH   1  21
TORSDOF 2
ENDMDL
MODEL 9
REMARK VINA RESULT:      -6.6      8.780     10.616
REMARK  Name = Oxazepam
REMARK  2 active torsions:
REMARK  status: ('A' for Active; 'I' for Inactive)
REMARK    1  A    between atoms: O_1  and  C_2
REMARK    2  A    between atoms: C_4  and  C_5
REMARK                            x       y       z     vdW  Elec       q    Type
REMARK                         _______ _______ _______ _____ _____    ______ ____
ROOT
ATOM      1  C   UNL     1      -8.923   7.017 130.498  0.00  0.00    +0.000 C 
ATOM      2  N   UNL     1      -7.464   6.947 130.395  0.00  0.00    +0.000 NA
ATOM      3  C   UNL     1      -6.785   6.316 131.295  0.00  0.00    +0.000 C 
ATOM      4  C   UNL     1      -7.351   5.658 132.512  0.00  0.00    +0.000 A 
ATOM      5  C   UNL     1      -8.515   4.878 132.475  0.00  0.00    +0.000 A 
ATOM      6  N   UNL     1      -9.283   4.677 131.324  0.00  0.00    +0.000 N 
ATOM      7  C   UNL     1      -9.527   5.593 130.333  0.00  0.00    +0.000 C 
ATOM      8  O   UNL     1     -10.314   5.265 129.434  0.00  0.00    +0.000 OA
ATOM      9  C   UNL     1      -8.948   4.224 133.636  0.00  0.00    +0.000 A 
ATOM     10  C   UNL     1      -8.244   4.363 134.833  0.00  0.00    +0.000 A 
ATOM     11  C   UNL     1      -7.077   5.118 134.861  0.00  0.00    +0.000 A 
ATOM     12 CL   UNL     1      -6.183   5.262 136.322  0.00  0.00    +0.000 Cl
ATOM     13  C   UNL     1      -6.625   5.758 133.711  0.00  0.00    +0.000 A 
ATOM     14  H   UNL     1      -9.877   3.859 131.251  0.00  0.00    +0.000 HD
ENDROOT
BRANCH   3  15
ATOM     15  C   UNL     1      -5.307   6.198 131.098  0.00  0.00    +0.000 A 
ATOM     16  C   UNL     1      -4.712   4.958 130.852  0.00  0.00    +0.000 A 
ATOM     17  C   UNL     1      -3.320   4.871 130.755  0.00  0.00    +0.000 A 
ATOM     18  C   UNL     1      -2.538   6.028 130.812  0.00  0.00    +0.000 A 
ATOM     19  C   UNL     1      -3.144   7.274 130.960  0.00  0.00    +0.000 A 
ATOM     20  C   UNL     1      -4.522   7.356 131.156  0.00  0.00    +0.000 A 
ENDBRANCH   3  15
BRANCH   1  21
ATOM     21  O   UNL     1      -9.504   7.905 129.555  0.00  0.00    +0.000 OA
ATOM     22  H   UNL     1     -10.061   7.343 128.996  0.00  0.00    +0.000 HD
ENDBRANCH   1  21
TORSDOF 2
ENDMDL
