MODEL 1
REMARK VINA RESULT:      -7.8      0.000      0.000
REMARK  Name = Oxcarbazepine
REMARK  0 active torsions:
REMARK  status: ('A' for Active; 'I' for Inactive)
REMARK                            x       y       z     vdW  Elec       q    Type
REMARK                         _______ _______ _______ _____ _____    ______ ____
ROOT
ATOM      1  N   UNL     1      -5.160   1.825 125.797  0.00  0.00    +0.000 N 
ATOM      2  C   UNL     1      -6.230   2.397 125.183  0.00  0.00    +0.000 C 
ATOM      3  O   UNL     1      -6.545   3.533 125.549  0.00  0.00    +0.000 OA
ATOM      4  N   UNL     1      -6.896   1.699 124.169  0.00  0.00    +0.000 N 
ATOM      5  C   UNL     1      -7.237   2.463 123.001  0.00  0.00    +0.000 A 
ATOM      6  C   UNL     1      -6.209   3.112 122.297  0.00  0.00    +0.000 A 
ATOM      7  C   UNL     1      -6.477   3.813 121.115  0.00  0.00    +0.000 A 
ATOM      8  C   UNL     1      -7.779   3.897 120.634  0.00  0.00    +0.000 A 
ATOM      9  C   UNL     1      -8.810   3.274 121.331  0.00  0.00    +0.000 A 
ATOM     10  C   UNL     1      -8.542   2.569 122.515  0.00  0.00    +0.000 A 
ATOM     11  C   UNL     1      -9.650   1.894 123.245  0.00  0.00    +0.000 C 
ATOM     12  C   UNL     1      -9.543   0.425 123.007  0.00  0.00    +0.000 C 
ATOM     13  O   UNL     1     -10.408  -0.175 122.356  0.00  0.00    +0.000 OA
ATOM     14  C   UNL     1      -8.377  -0.308 123.583  0.00  0.00    +0.000 A 
ATOM     15  C   UNL     1      -7.217   0.280 124.161  0.00  0.00    +0.000 A 
ATOM     16  C   UNL     1      -6.309  -0.629 124.739  0.00  0.00    +0.000 A 
ATOM     17  C   UNL     1      -6.485  -2.014 124.726  0.00  0.00    +0.000 A 
ATOM     18  C   UNL     1      -7.617  -2.561 124.160  0.00  0.00    +0.000 A 
ATOM     19  C   UNL     1      -8.560  -1.713 123.600  0.00  0.00    +0.000 A 
ATOM     20  H   UNL     1      -4.688   2.460 126.432  0.00  0.00    +0.000 HD
ATOM     21  H   UNL     1      -4.508   1.313 125.222  0.00  0.00    +0.000 HD
ENDROOT
TORSDOF 0
ENDMDL
MODEL 2
REMARK VINA RESULT:      -7.7      1.680      2.220
REMARK  Name = Oxcarbazepine
REMARK  0 active torsions:
REMARK  status: ('A' for Active; 'I' for Inactive)
REMARK                            x       y       z     vdW  Elec       q    Type
REMARK                         _______ _______ _______ _____ _____    ______ ____
ROOT
ATOM      1  N   UNL     1      -4.795   4.654 126.206  0.00  0.00    +0.000 N 
ATOM      2  C   UNL     1      -5.760   4.717 125.250  0.00  0.00    +0.000 C 
ATOM      3  O   UNL     1      -6.311   5.808 125.081  0.00  0.00    +0.000 OA
ATOM      4  N   UNL     1      -6.060   3.574 124.500  0.00  0.00    +0.000 N 
ATOM      5  C   UNL     1      -6.220   3.776 123.086  0.00  0.00    +0.000 A 
ATOM      6  C   UNL     1      -5.158   4.343 122.362  0.00  0.00    +0.000 A 
ATOM      7  C   UNL     1      -5.237   4.499 120.973  0.00  0.00    +0.000 A 
ATOM      8  C   UNL     1      -6.386   4.114 120.292  0.00  0.00    +0.000 A 
ATOM      9  C   UNL     1      -7.453   3.567 120.998  0.00  0.00    +0.000 A 
ATOM     10  C   UNL     1      -7.375   3.409 122.391  0.00  0.00    +0.000 A 
ATOM     11  C   UNL     1      -8.516   2.809 123.136  0.00  0.00    +0.000 C 
ATOM     12  C   UNL     1      -8.147   1.415 123.518  0.00  0.00    +0.000 C 
ATOM     13  O   UNL     1      -8.738   0.446 123.025  0.00  0.00    +0.000 OA
ATOM     14  C   UNL     1      -7.058   1.215 124.519  0.00  0.00    +0.000 A 
ATOM     15  C   UNL     1      -6.164   2.212 125.000  0.00  0.00    +0.000 A 
ATOM     16  C   UNL     1      -5.299   1.795 126.030  0.00  0.00    +0.000 A 
ATOM     17  C   UNL     1      -5.267   0.494 126.536  0.00  0.00    +0.000 A 
ATOM     18  C   UNL     1      -6.143  -0.456 126.055  0.00  0.00    +0.000 A 
ATOM     19  C   UNL     1      -7.038  -0.095 125.060  0.00  0.00    +0.000 A 
ATOM     20  H   UNL     1      -4.582   5.562 126.607  0.00  0.00    +0.000 HD
ATOM     21  H   UNL     1      -3.959   4.130 125.995  0.00  0.00    +0.000 HD
ENDROOT
TORSDOF 0
ENDMDL
MODEL 3
REMARK VINA RESULT:      -7.7      2.925      4.936
REMARK  Name = Oxcarbazepine
REMARK  0 active torsions:
REMARK  status: ('A' for Active; 'I' for Inactive)
REMARK                            x       y       z     vdW  Elec       q    Type
REMARK                         _______ _______ _______ _____ _____    ______ ____
ROOT
ATOM      1  N   UNL     1      -9.798  -3.398 123.673  0.00  0.00    +0.000 N 
ATOM      2  C   UNL     1      -8.806  -2.472 123.583  0.00  0.00    +0.000 C 
ATOM      3  O   UNL     1      -8.323  -2.276 122.465  0.00  0.00    +0.000 OA
ATOM      4  N   UNL     1      -8.405  -1.781 124.732  0.00  0.00    +0.000 N 
ATOM      5  C   UNL     1      -8.208  -0.366 124.575  0.00  0.00    +0.000 A 
ATOM      6  C   UNL     1      -9.278   0.416 124.111  0.00  0.00    +0.000 A 
ATOM      7  C   UNL     1      -9.160   1.807 124.006  0.00  0.00    +0.000 A 
ATOM      8  C   UNL     1      -7.965   2.433 124.339  0.00  0.00    +0.000 A 
ATOM      9  C   UNL     1      -6.890   1.669 124.784  0.00  0.00    +0.000 A 
ATOM     10  C   UNL     1      -7.007   0.274 124.892  0.00  0.00    +0.000 A 
ATOM     11  C   UNL     1      -5.856  -0.532 125.383  0.00  0.00    +0.000 C 
ATOM     12  C   UNL     1      -6.145  -0.960 126.782  0.00  0.00    +0.000 C 
ATOM     13  O   UNL     1      -5.474  -0.528 127.728  0.00  0.00    +0.000 OA
ATOM     14  C   UNL     1      -7.254  -1.932 127.016  0.00  0.00    +0.000 A 
ATOM     15  C   UNL     1      -8.229  -2.341 126.063  0.00  0.00    +0.000 A 
ATOM     16  C   UNL     1      -9.101  -3.359 126.496  0.00  0.00    +0.000 A 
ATOM     17  C   UNL     1      -9.064  -3.918 127.776  0.00  0.00    +0.000 A 
ATOM     18  C   UNL     1      -8.111  -3.506 128.682  0.00  0.00    +0.000 A 
ATOM     19  C   UNL     1      -7.207  -2.527 128.301  0.00  0.00    +0.000 A 
ATOM     20  H   UNL     1     -10.085  -3.753 122.766  0.00  0.00    +0.000 HD
ATOM     21  H   UNL     1     -10.590  -3.182 124.260  0.00  0.00    +0.000 HD
ENDROOT
TORSDOF 0
ENDMDL
MODEL 4
REMARK VINA RESULT:      -7.5      1.113      1.385
REMARK  Name = Oxcarbazepine
REMARK  0 active torsions:
REMARK  status: ('A' for Active; 'I' for Inactive)
REMARK                            x       y       z     vdW  Elec       q    Type
REMARK                         _______ _______ _______ _____ _____    ______ ____
ROOT
ATOM      1  N   UNL     1      -4.688   0.977 126.331  0.00  0.00    +0.000 N 
ATOM      2  C   UNL     1      -5.915   1.408 125.933  0.00  0.00    +0.000 C 
ATOM      3  O   UNL     1      -6.392   2.374 126.534  0.00  0.00    +0.000 OA
ATOM      4  N   UNL     1      -6.556   0.766 124.867  0.00  0.00    +0.000 N 
ATOM      5  C   UNL     1      -7.178   1.627 123.899  0.00  0.00    +0.000 A 
ATOM      6  C   UNL     1      -6.387   2.585 123.244  0.00  0.00    +0.000 A 
ATOM      7  C   UNL     1      -6.928   3.402 122.244  0.00  0.00    +0.000 A 
ATOM      8  C   UNL     1      -8.272   3.291 121.903  0.00  0.00    +0.000 A 
ATOM      9  C   UNL     1      -9.071   2.359 122.557  0.00  0.00    +0.000 A 
ATOM     10  C   UNL     1      -8.530   1.537 123.558  0.00  0.00    +0.000 A 
ATOM     11  C   UNL     1      -9.390   0.533 124.241  0.00  0.00    +0.000 C 
ATOM     12  C   UNL     1      -9.037  -0.820 123.721  0.00  0.00    +0.000 C 
ATOM     13  O   UNL     1      -9.845  -1.470 123.046  0.00  0.00    +0.000 OA
ATOM     14  C   UNL     1      -7.690  -1.379 124.044  0.00  0.00    +0.000 A 
ATOM     15  C   UNL     1      -6.601  -0.667 124.619  0.00  0.00    +0.000 A 
ATOM     16  C   UNL     1      -5.473  -1.450 124.933  0.00  0.00    +0.000 A 
ATOM     17  C   UNL     1      -5.383  -2.819 124.673  0.00  0.00    +0.000 A 
ATOM     18  C   UNL     1      -6.451  -3.488 124.116  0.00  0.00    +0.000 A 
ATOM     19  C   UNL     1      -7.600  -2.774 123.811  0.00  0.00    +0.000 A 
ATOM     20  H   UNL     1      -4.271   1.582 127.032  0.00  0.00    +0.000 HD
ATOM     21  H   UNL     1      -4.027   0.717 125.615  0.00  0.00    +0.000 HD
ENDROOT
TORSDOF 0
ENDMDL
MODEL 5
REMARK VINA RESULT:      -7.4      2.373      5.369
REMARK  Name = Oxcarbazepine
REMARK  0 active torsions:
REMARK  status: ('A' for Active; 'I' for Inactive)
REMARK                            x       y       z     vdW  Elec       q    Type
REMARK                         _______ _______ _______ _____ _____    ______ ____
ROOT
ATOM      1  N   UNL     1      -5.888   1.393 125.643  0.00  0.00    +0.000 N 
ATOM      2  C   UNL     1      -6.025   0.041 125.677  0.00  0.00    +0.000 C 
ATOM      3  O   UNL     1      -5.023  -0.616 125.975  0.00  0.00    +0.000 OA
ATOM      4  N   UNL     1      -7.272  -0.531 125.404  0.00  0.00    +0.000 N 
ATOM      5  C   UNL     1      -7.682  -1.591 126.284  0.00  0.00    +0.000 A 
ATOM      6  C   UNL     1      -7.765  -1.329 127.662  0.00  0.00    +0.000 A 
ATOM      7  C   UNL     1      -8.224  -2.305 128.554  0.00  0.00    +0.000 A 
ATOM      8  C   UNL     1      -8.582  -3.564 128.086  0.00  0.00    +0.000 A 
ATOM      9  C   UNL     1      -8.489  -3.844 126.726  0.00  0.00    +0.000 A 
ATOM     10  C   UNL     1      -8.031  -2.865 125.830  0.00  0.00    +0.000 A 
ATOM     11  C   UNL     1      -7.948  -3.170 124.375  0.00  0.00    +0.000 C 
ATOM     12  C   UNL     1      -9.074  -2.476 123.685  0.00  0.00    +0.000 C 
ATOM     13  O   UNL     1      -9.989  -3.122 123.158  0.00  0.00    +0.000 OA
ATOM     14  C   UNL     1      -9.067  -0.984 123.632  0.00  0.00    +0.000 A 
ATOM     15  C   UNL     1      -8.205  -0.121 124.366  0.00  0.00    +0.000 A 
ATOM     16  C   UNL     1      -8.319   1.248 124.052  0.00  0.00    +0.000 A 
ATOM     17  C   UNL     1      -9.229   1.757 123.124  0.00  0.00    +0.000 A 
ATOM     18  C   UNL     1     -10.053   0.902 122.424  0.00  0.00    +0.000 A 
ATOM     19  C   UNL     1      -9.966  -0.459 122.671  0.00  0.00    +0.000 A 
ATOM     20  H   UNL     1      -4.976   1.702 125.965  0.00  0.00    +0.000 HD
ATOM     21  H   UNL     1      -6.634   1.951 126.032  0.00  0.00    +0.000 HD
ENDROOT
TORSDOF 0
ENDMDL
MODEL 6
REMARK VINA RESULT:      -6.9      1.722      2.067
REMARK  Name = Oxcarbazepine
REMARK  0 active torsions:
REMARK  status: ('A' for Active; 'I' for Inactive)
REMARK                            x       y       z     vdW  Elec       q    Type
REMARK                         _______ _______ _______ _____ _____    ______ ____
ROOT
ATOM      1  N   UNL     1      -7.672   0.256 127.848  0.00  0.00    +0.000 N 
ATOM      2  C   UNL     1      -8.202   1.084 126.909  0.00  0.00    +0.000 C 
ATOM      3  O   UNL     1      -8.642   2.168 127.303  0.00  0.00    +0.000 OA
ATOM      4  N   UNL     1      -8.203   0.691 125.566  0.00  0.00    +0.000 N 
ATOM      5  C   UNL     1      -7.815   1.698 124.617  0.00  0.00    +0.000 A 
ATOM      6  C   UNL     1      -6.554   2.303 124.755  0.00  0.00    +0.000 A 
ATOM      7  C   UNL     1      -6.100   3.239 123.819  0.00  0.00    +0.000 A 
ATOM      8  C   UNL     1      -6.908   3.604 122.748  0.00  0.00    +0.000 A 
ATOM      9  C   UNL     1      -8.165   3.026 122.609  0.00  0.00    +0.000 A 
ATOM     10  C   UNL     1      -8.622   2.085 123.545  0.00  0.00    +0.000 A 
ATOM     11  C   UNL     1      -9.964   1.462 123.380  0.00  0.00    +0.000 C 
ATOM     12  C   UNL     1      -9.777   0.063 122.899  0.00  0.00    +0.000 C 
ATOM     13  O   UNL     1     -10.143  -0.272 121.766  0.00  0.00    +0.000 OA
ATOM     14  C   UNL     1      -9.149  -0.930 123.822  0.00  0.00    +0.000 A 
ATOM     15  C   UNL     1      -8.497  -0.638 125.053  0.00  0.00    +0.000 A 
ATOM     16  C   UNL     1      -8.090  -1.763 125.796  0.00  0.00    +0.000 A 
ATOM     17  C   UNL     1      -8.260  -3.080 125.365  0.00  0.00    +0.000 A 
ATOM     18  C   UNL     1      -8.895  -3.338 124.169  0.00  0.00    +0.000 A 
ATOM     19  C   UNL     1      -9.343  -2.270 123.407  0.00  0.00    +0.000 A 
ATOM     20  H   UNL     1      -7.622   0.687 128.766  0.00  0.00    +0.000 HD
ATOM     21  H   UNL     1      -6.822  -0.235 127.615  0.00  0.00    +0.000 HD
ENDROOT
TORSDOF 0
ENDMDL
MODEL 7
REMARK VINA RESULT:      -6.9      3.566      5.567
REMARK  Name = Oxcarbazepine
REMARK  0 active torsions:
REMARK  status: ('A' for Active; 'I' for Inactive)
REMARK                            x       y       z     vdW  Elec       q    Type
REMARK                         _______ _______ _______ _____ _____    ______ ____
ROOT
ATOM      1  N   UNL     1      -7.080   1.747 126.363  0.00  0.00    +0.000 N 
ATOM      2  C   UNL     1      -7.523   0.639 125.712  0.00  0.00    +0.000 C 
ATOM      3  O   UNL     1      -8.035   0.808 124.602  0.00  0.00    +0.000 OA
ATOM      4  N   UNL     1      -7.358  -0.618 126.305  0.00  0.00    +0.000 N 
ATOM      5  C   UNL     1      -6.892  -1.665 125.437  0.00  0.00    +0.000 A 
ATOM      6  C   UNL     1      -5.673  -1.487 124.761  0.00  0.00    +0.000 A 
ATOM      7  C   UNL     1      -5.141  -2.502 123.958  0.00  0.00    +0.000 A 
ATOM      8  C   UNL     1      -5.830  -3.698 123.798  0.00  0.00    +0.000 A 
ATOM      9  C   UNL     1      -7.047  -3.882 124.446  0.00  0.00    +0.000 A 
ATOM     10  C   UNL     1      -7.581  -2.866 125.255  0.00  0.00    +0.000 A 
ATOM     11  C   UNL     1      -8.877  -3.078 125.956  0.00  0.00    +0.000 C 
ATOM     12  C   UNL     1      -8.596  -3.310 127.403  0.00  0.00    +0.000 C 
ATOM     13  O   UNL     1      -8.820  -4.411 127.922  0.00  0.00    +0.000 OA
ATOM     14  C   UNL     1      -8.050  -2.181 128.213  0.00  0.00    +0.000 A 
ATOM     15  C   UNL     1      -7.554  -0.947 127.708  0.00  0.00    +0.000 A 
ATOM     16  C   UNL     1      -7.202   0.003 128.688  0.00  0.00    +0.000 A 
ATOM     17  C   UNL     1      -7.285  -0.234 130.062  0.00  0.00    +0.000 A 
ATOM     18  C   UNL     1      -7.769  -1.437 130.527  0.00  0.00    +0.000 A 
ATOM     19  C   UNL     1      -8.158  -2.400 129.609  0.00  0.00    +0.000 A 
ATOM     20  H   UNL     1      -7.148   2.587 125.796  0.00  0.00    +0.000 HD
ATOM     21  H   UNL     1      -6.196   1.688 126.844  0.00  0.00    +0.000 HD
ENDROOT
TORSDOF 0
ENDMDL
MODEL 8
REMARK VINA RESULT:      -6.5      3.262      5.225
REMARK  Name = Oxcarbazepine
REMARK  0 active torsions:
REMARK  status: ('A' for Active; 'I' for Inactive)
REMARK                            x       y       z     vdW  Elec       q    Type
REMARK                         _______ _______ _______ _____ _____    ______ ____
ROOT
ATOM      1  N   UNL     1      -6.825   1.351 123.897  0.00  0.00    +0.000 N 
ATOM      2  C   UNL     1      -6.527   0.977 125.170  0.00  0.00    +0.000 C 
ATOM      3  O   UNL     1      -5.516   1.471 125.676  0.00  0.00    +0.000 OA
ATOM      4  N   UNL     1      -7.374   0.088 125.841  0.00  0.00    +0.000 N 
ATOM      5  C   UNL     1      -7.679   0.423 127.205  0.00  0.00    +0.000 A 
ATOM      6  C   UNL     1      -8.271   1.668 127.477  0.00  0.00    +0.000 A 
ATOM      7  C   UNL     1      -8.651   2.015 128.778  0.00  0.00    +0.000 A 
ATOM      8  C   UNL     1      -8.423   1.134 129.830  0.00  0.00    +0.000 A 
ATOM      9  C   UNL     1      -7.822  -0.095 129.579  0.00  0.00    +0.000 A 
ATOM     10  C   UNL     1      -7.442  -0.446 128.273  0.00  0.00    +0.000 A 
ATOM     11  C   UNL     1      -6.813  -1.769 128.012  0.00  0.00    +0.000 C 
ATOM     12  C   UNL     1      -7.823  -2.648 127.355  0.00  0.00    +0.000 C 
ATOM     13  O   UNL     1      -8.269  -3.646 127.937  0.00  0.00    +0.000 OA
ATOM     14  C   UNL     1      -8.276  -2.306 125.974  0.00  0.00    +0.000 A 
ATOM     15  C   UNL     1      -8.012  -1.092 125.280  0.00  0.00    +0.000 A 
ATOM     16  C   UNL     1      -8.451  -1.060 123.942  0.00  0.00    +0.000 A 
ATOM     17  C   UNL     1      -9.134  -2.110 123.325  0.00  0.00    +0.000 A 
ATOM     18  C   UNL     1      -9.378  -3.277 124.017  0.00  0.00    +0.000 A 
ATOM     19  C   UNL     1      -8.944  -3.377 125.330  0.00  0.00    +0.000 A 
ATOM     20  H   UNL     1      -6.210   2.080 123.550  0.00  0.00    +0.000 HD
ATOM     21  H   UNL     1      -7.792   1.537 123.676  0.00  0.00    +0.000 HD
ENDROOT
TORSDOF 0
ENDMDL
MODEL 9
REMARK VINA RESULT:      -6.5      7.299      9.516
REMARK  Name = Oxcarbazepine
REMARK  0 active torsions:
REMARK  status: ('A' for Active; 'I' for Inactive)
REMARK                            x       y       z     vdW  Elec       q    Type
REMARK                         _______ _______ _______ _____ _____    ______ ____
ROOT
ATOM      1  N   UNL     1      -9.092   4.459 134.622  0.00  0.00    +0.000 N 
ATOM      2  C   UNL     1      -8.298   3.938 133.649  0.00  0.00    +0.000 C 
ATOM      3  O   UNL     1      -7.195   3.507 133.996  0.00  0.00    +0.000 OA
ATOM      4  N   UNL     1      -8.767   3.891 132.331  0.00  0.00    +0.000 N 
ATOM      5  C   UNL     1      -8.527   2.663 131.624  0.00  0.00    +0.000 A 
ATOM      6  C   UNL     1      -9.024   1.465 132.164  0.00  0.00    +0.000 A 
ATOM      7  C   UNL     1      -8.877   0.252 131.482  0.00  0.00    +0.000 A 
ATOM      8  C   UNL     1      -8.210   0.214 130.263  0.00  0.00    +0.000 A 
ATOM      9  C   UNL     1      -7.697   1.389 129.724  0.00  0.00    +0.000 A 
ATOM     10  C   UNL     1      -7.845   2.607 130.406  0.00  0.00    +0.000 A 
ATOM     11  C   UNL     1      -7.305   3.861 129.813  0.00  0.00    +0.000 C 
ATOM     12  C   UNL     1      -8.447   4.661 129.283  0.00  0.00    +0.000 C 
ATOM     13  O   UNL     1      -8.578   4.851 128.068  0.00  0.00    +0.000 OA
ATOM     14  C   UNL     1      -9.424   5.239 130.254  0.00  0.00    +0.000 A 
ATOM     15  C   UNL     1      -9.515   4.929 131.640  0.00  0.00    +0.000 A 
ATOM     16  C   UNL     1     -10.447   5.697 132.365  0.00  0.00    +0.000 A 
ATOM     17  C   UNL     1     -11.265   6.671 131.788  0.00  0.00    +0.000 A 
ATOM     18  C   UNL     1     -11.158   6.954 130.444  0.00  0.00    +0.000 A 
ATOM     19  C   UNL     1     -10.238   6.249 129.684  0.00  0.00    +0.000 A 
ATOM     20  H   UNL     1      -8.700   4.340 135.551  0.00  0.00    +0.000 HD
ATOM     21  H   UNL     1     -10.075   4.235 134.596  0.00  0.00    +0.000 HD
ENDROOT
TORSDOF 0
ENDMDL
