MODEL 1
REMARK VINA RESULT:      -6.6      0.000      0.000
REMARK  Name = Oxeladin
REMARK  17 active torsions:
REMARK  status: ('A' for Active; 'I' for Inactive)
REMARK    1  A    between atoms: C_1  and  C_2
REMARK    2  A    between atoms: C_2  and  N_3
REMARK    3  A    between atoms: N_3  and  C_4
REMARK    4  A    between atoms: N_3  and  C_6
REMARK    5  A    between atoms: C_4  and  C_5
REMARK    6  A    between atoms: C_6  and  C_7
REMARK    7  A    between atoms: C_7  and  O_8
REMARK    8  A    between atoms: O_8  and  C_9
REMARK    9  A    between atoms: C_9  and  C_10
REMARK   10  A    between atoms: C_10  and  O_11
REMARK   11  A    between atoms: O_11  and  C_12
REMARK   12  A    between atoms: C_12  and  C_14
REMARK   13  A    between atoms: C_14  and  C_15
REMARK   14  A    between atoms: C_14  and  C_17
REMARK   15  A    between atoms: C_14  and  C_19
REMARK   16  A    between atoms: C_15  and  C_16
REMARK   17  A    between atoms: C_17  and  C_18
REMARK                            x       y       z     vdW  Elec       q    Type
REMARK                         _______ _______ _______ _____ _____    ______ ____
ROOT
ATOM      1  C   UNL     1      -8.438  -1.044 124.500  0.00  0.00    +0.000 C 
ATOM      2  O   UNL     1      -8.104  -0.352 123.557  0.00  0.00    +0.000 OA
ENDROOT
BRANCH   1   3
ATOM      3  O   UNL     1      -9.537  -0.700 125.232  0.00  0.00    +0.000 OA
BRANCH   3   4
ATOM      4  C   UNL     1      -9.688   0.727 125.283  0.00  0.00    +0.000 C 
BRANCH   4   5
ATOM      5  C   UNL     1      -8.843   1.268 126.405  0.00  0.00    +0.000 C 
BRANCH   5   6
ATOM      6  O   UNL     1      -8.494   2.623 126.120  0.00  0.00    +0.000 OA
BRANCH   6   7
ATOM      7  C   UNL     1      -7.353   2.628 125.269  0.00  0.00    +0.000 C 
BRANCH   7   8
ATOM      8  C   UNL     1      -7.514   3.628 124.119  0.00  0.00    +0.000 C 
BRANCH   8   9
ATOM      9  N   UNL     1      -7.352   3.000 122.774  0.00  0.00    +0.000 NA
BRANCH   9  11
ATOM     10  C   UNL     1      -8.858   3.682 120.846  0.00  0.00    +0.000 C 
ATOM     11  C   UNL     1      -8.688   2.903 122.145  0.00  0.00    +0.000 C 
ENDBRANCH   9  11
BRANCH   9  12
ATOM     12  C   UNL     1      -6.375   3.772 121.978  0.00  0.00    +0.000 C 
ATOM     13  C   UNL     1      -5.501   2.985 121.017  0.00  0.00    +0.000 C 
ENDBRANCH   9  12
ENDBRANCH   8   9
ENDBRANCH   7   8
ENDBRANCH   6   7
ENDBRANCH   5   6
ENDBRANCH   4   5
ENDBRANCH   3   4
ENDBRANCH   1   3
BRANCH   1  14
ATOM     14  C   UNL     1      -7.743  -2.364 125.002  0.00  0.00    +0.000 C 
BRANCH  14  15
ATOM     15  C   UNL     1      -7.988  -2.643 126.518  0.00  0.00    +0.000 A 
ATOM     16  C   UNL     1      -7.337  -1.933 127.540  0.00  0.00    +0.000 A 
ATOM     17  C   UNL     1      -7.434  -2.287 128.878  0.00  0.00    +0.000 A 
ATOM     18  C   UNL     1      -8.324  -3.271 129.259  0.00  0.00    +0.000 A 
ATOM     19  C   UNL     1      -9.071  -3.933 128.289  0.00  0.00    +0.000 A 
ATOM     20  C   UNL     1      -8.896  -3.636 126.933  0.00  0.00    +0.000 A 
ENDBRANCH  14  15
BRANCH  14  21
ATOM     21  C   UNL     1      -8.251  -3.588 124.188  0.00  0.00    +0.000 C 
ATOM     22  C   UNL     1      -9.497  -3.273 123.378  0.00  0.00    +0.000 C 
ENDBRANCH  14  21
BRANCH  14  23
ATOM     23  C   UNL     1      -6.194  -2.221 124.800  0.00  0.00    +0.000 C 
ATOM     24  C   UNL     1      -5.556  -3.248 123.869  0.00  0.00    +0.000 C 
ENDBRANCH  14  23
ENDBRANCH   1  14
TORSDOF 13
ENDMDL
MODEL 2
REMARK VINA RESULT:      -6.3      1.718      3.446
REMARK  Name = Oxeladin
REMARK  17 active torsions:
REMARK  status: ('A' for Active; 'I' for Inactive)
REMARK    1  A    between atoms: C_1  and  C_2
REMARK    2  A    between atoms: C_2  and  N_3
REMARK    3  A    between atoms: N_3  and  C_4
REMARK    4  A    between atoms: N_3  and  C_6
REMARK    5  A    between atoms: C_4  and  C_5
REMARK    6  A    between atoms: C_6  and  C_7
REMARK    7  A    between atoms: C_7  and  O_8
REMARK    8  A    between atoms: O_8  and  C_9
REMARK    9  A    between atoms: C_9  and  C_10
REMARK   10  A    between atoms: C_10  and  O_11
REMARK   11  A    between atoms: O_11  and  C_12
REMARK   12  A    between atoms: C_12  and  C_14
REMARK   13  A    between atoms: C_14  and  C_15
REMARK   14  A    between atoms: C_14  and  C_17
REMARK   15  A    between atoms: C_14  and  C_19
REMARK   16  A    between atoms: C_15  and  C_16
REMARK   17  A    between atoms: C_17  and  C_18
REMARK                            x       y       z     vdW  Elec       q    Type
REMARK                         _______ _______ _______ _____ _____    ______ ____
ROOT
ATOM      1  C   UNL     1      -8.872  -0.702 124.947  0.00  0.00    +0.000 C 
ATOM      2  O   UNL     1      -9.937  -0.370 125.434  0.00  0.00    +0.000 OA
ENDROOT
BRANCH   1   3
ATOM      3  O   UNL     1      -8.181   0.184 124.173  0.00  0.00    +0.000 OA
BRANCH   3   4
ATOM      4  C   UNL     1      -9.080   1.057 123.472  0.00  0.00    +0.000 C 
BRANCH   4   5
ATOM      5  C   UNL     1      -8.586   2.473 123.601  0.00  0.00    +0.000 C 
BRANCH   5   6
ATOM      6  O   UNL     1      -9.058   3.025 124.830  0.00  0.00    +0.000 OA
BRANCH   6   7
ATOM      7  C   UNL     1      -8.078   3.929 125.327  0.00  0.00    +0.000 C 
BRANCH   7   8
ATOM      8  C   UNL     1      -7.638   3.554 126.747  0.00  0.00    +0.000 C 
BRANCH   8   9
ATOM      9  N   UNL     1      -7.469   2.083 126.934  0.00  0.00    +0.000 NA
BRANCH   9  11
ATOM     10  C   UNL     1      -5.263   1.022 126.255  0.00  0.00    +0.000 C 
ATOM     11  C   UNL     1      -6.055   1.821 127.283  0.00  0.00    +0.000 C 
ENDBRANCH   9  11
BRANCH   9  12
ATOM     12  C   UNL     1      -8.429   1.595 127.946  0.00  0.00    +0.000 C 
ATOM     13  C   UNL     1      -7.891   1.374 129.350  0.00  0.00    +0.000 C 
ENDBRANCH   9  12
ENDBRANCH   8   9
ENDBRANCH   7   8
ENDBRANCH   6   7
ENDBRANCH   5   6
ENDBRANCH   4   5
ENDBRANCH   3   4
ENDBRANCH   1   3
BRANCH   1  14
ATOM     14  C   UNL     1      -8.141  -2.085 125.116  0.00  0.00    +0.000 C 
BRANCH  14  15
ATOM     15  C   UNL     1      -8.051  -2.547 126.605  0.00  0.00    +0.000 A 
ATOM     16  C   UNL     1      -8.823  -3.597 127.126  0.00  0.00    +0.000 A 
ATOM     17  C   UNL     1      -8.860  -3.901 128.480  0.00  0.00    +0.000 A 
ATOM     18  C   UNL     1      -7.991  -3.265 129.343  0.00  0.00    +0.000 A 
ATOM     19  C   UNL     1      -7.129  -2.288 128.854  0.00  0.00    +0.000 A 
ATOM     20  C   UNL     1      -7.167  -1.920 127.505  0.00  0.00    +0.000 A 
ENDBRANCH  14  15
BRANCH  14  21
ATOM     21  C   UNL     1      -8.872  -3.190 124.302  0.00  0.00    +0.000 C 
ATOM     22  C   UNL     1      -9.317  -2.706 122.932  0.00  0.00    +0.000 C 
ENDBRANCH  14  21
BRANCH  14  23
ATOM     23  C   UNL     1      -6.673  -1.943 124.584  0.00  0.00    +0.000 C 
ATOM     24  C   UNL     1      -5.978  -3.252 124.218  0.00  0.00    +0.000 C 
ENDBRANCH  14  23
ENDBRANCH   1  14
TORSDOF 13
ENDMDL
MODEL 3
REMARK VINA RESULT:      -6.3      1.308      2.287
REMARK  Name = Oxeladin
REMARK  17 active torsions:
REMARK  status: ('A' for Active; 'I' for Inactive)
REMARK    1  A    between atoms: C_1  and  C_2
REMARK    2  A    between atoms: C_2  and  N_3
REMARK    3  A    between atoms: N_3  and  C_4
REMARK    4  A    between atoms: N_3  and  C_6
REMARK    5  A    between atoms: C_4  and  C_5
REMARK    6  A    between atoms: C_6  and  C_7
REMARK    7  A    between atoms: C_7  and  O_8
REMARK    8  A    between atoms: O_8  and  C_9
REMARK    9  A    between atoms: C_9  and  C_10
REMARK   10  A    between atoms: C_10  and  O_11
REMARK   11  A    between atoms: O_11  and  C_12
REMARK   12  A    between atoms: C_12  and  C_14
REMARK   13  A    between atoms: C_14  and  C_15
REMARK   14  A    between atoms: C_14  and  C_17
REMARK   15  A    between atoms: C_14  and  C_19
REMARK   16  A    between atoms: C_15  and  C_16
REMARK   17  A    between atoms: C_17  and  C_18
REMARK                            x       y       z     vdW  Elec       q    Type
REMARK                         _______ _______ _______ _____ _____    ______ ____
ROOT
ATOM      1  C   UNL     1      -8.947  -0.913 124.626  0.00  0.00    +0.000 C 
ATOM      2  O   UNL     1      -9.929  -0.585 125.266  0.00  0.00    +0.000 OA
ENDROOT
BRANCH   1   3
ATOM      3  O   UNL     1      -8.616  -0.221 123.498  0.00  0.00    +0.000 OA
BRANCH   3   4
ATOM      4  C   UNL     1      -9.644   0.724 123.162  0.00  0.00    +0.000 C 
BRANCH   4   5
ATOM      5  C   UNL     1      -9.059   2.111 123.183  0.00  0.00    +0.000 C 
BRANCH   5   6
ATOM      6  O   UNL     1      -7.842   2.096 123.929  0.00  0.00    +0.000 OA
BRANCH   6   7
ATOM      7  C   UNL     1      -6.850   2.803 123.194  0.00  0.00    +0.000 C 
BRANCH   7   8
ATOM      8  C   UNL     1      -7.409   3.343 121.873  0.00  0.00    +0.000 C 
BRANCH   8   9
ATOM      9  N   UNL     1      -6.488   4.308 121.202  0.00  0.00    +0.000 NA
BRANCH   9  11
ATOM     10  C   UNL     1      -4.149   5.275 121.414  0.00  0.00    +0.000 C 
ATOM     11  C   UNL     1      -5.201   4.302 121.932  0.00  0.00    +0.000 C 
ENDBRANCH   9  11
BRANCH   9  12
ATOM     12  C   UNL     1      -6.360   3.963 119.771  0.00  0.00    +0.000 C 
ATOM     13  C   UNL     1      -7.435   4.496 118.839  0.00  0.00    +0.000 C 
ENDBRANCH   9  12
ENDBRANCH   8   9
ENDBRANCH   7   8
ENDBRANCH   6   7
ENDBRANCH   5   6
ENDBRANCH   4   5
ENDBRANCH   3   4
ENDBRANCH   1   3
BRANCH   1  14
ATOM     14  C   UNL     1      -7.945  -2.080 124.958  0.00  0.00    +0.000 C 
BRANCH  14  15
ATOM     15  C   UNL     1      -8.035  -2.557 126.442  0.00  0.00    +0.000 A 
ATOM     16  C   UNL     1      -8.743  -3.705 126.834  0.00  0.00    +0.000 A 
ATOM     17  C   UNL     1      -8.956  -4.037 128.164  0.00  0.00    +0.000 A 
ATOM     18  C   UNL     1      -8.322  -3.315 129.155  0.00  0.00    +0.000 A 
ATOM     19  C   UNL     1      -7.523  -2.229 128.809  0.00  0.00    +0.000 A 
ATOM     20  C   UNL     1      -7.392  -1.843 127.472  0.00  0.00    +0.000 A 
ENDBRANCH  14  15
BRANCH  14  21
ATOM     21  C   UNL     1      -8.209  -3.302 124.032  0.00  0.00    +0.000 C 
ATOM     22  C   UNL     1      -9.621  -3.317 123.475  0.00  0.00    +0.000 C 
ENDBRANCH  14  21
BRANCH  14  23
ATOM     23  C   UNL     1      -6.482  -1.566 124.724  0.00  0.00    +0.000 C 
ATOM     24  C   UNL     1      -5.496  -2.607 124.203  0.00  0.00    +0.000 C 
ENDBRANCH  14  23
ENDBRANCH   1  14
TORSDOF 13
ENDMDL
MODEL 4
REMARK VINA RESULT:      -6.3      2.143      3.401
REMARK  Name = Oxeladin
REMARK  17 active torsions:
REMARK  status: ('A' for Active; 'I' for Inactive)
REMARK    1  A    between atoms: C_1  and  C_2
REMARK    2  A    between atoms: C_2  and  N_3
REMARK    3  A    between atoms: N_3  and  C_4
REMARK    4  A    between atoms: N_3  and  C_6
REMARK    5  A    between atoms: C_4  and  C_5
REMARK    6  A    between atoms: C_6  and  C_7
REMARK    7  A    between atoms: C_7  and  O_8
REMARK    8  A    between atoms: O_8  and  C_9
REMARK    9  A    between atoms: C_9  and  C_10
REMARK   10  A    between atoms: C_10  and  O_11
REMARK   11  A    between atoms: O_11  and  C_12
REMARK   12  A    between atoms: C_12  and  C_14
REMARK   13  A    between atoms: C_14  and  C_15
REMARK   14  A    between atoms: C_14  and  C_17
REMARK   15  A    between atoms: C_14  and  C_19
REMARK   16  A    between atoms: C_15  and  C_16
REMARK   17  A    between atoms: C_17  and  C_18
REMARK                            x       y       z     vdW  Elec       q    Type
REMARK                         _______ _______ _______ _____ _____    ______ ____
ROOT
ATOM      1  C   UNL     1      -8.746  -0.696 124.851  0.00  0.00    +0.000 C 
ATOM      2  O   UNL     1      -9.795  -0.277 125.305  0.00  0.00    +0.000 OA
ENDROOT
BRANCH   1   3
ATOM      3  O   UNL     1      -7.971   0.123 124.082  0.00  0.00    +0.000 OA
BRANCH   3   4
ATOM      4  C   UNL     1      -8.388   1.490 124.215  0.00  0.00    +0.000 C 
BRANCH   4   5
ATOM      5  C   UNL     1      -7.483   2.360 123.384  0.00  0.00    +0.000 C 
BRANCH   5   6
ATOM      6  O   UNL     1      -7.252   3.590 124.071  0.00  0.00    +0.000 OA
BRANCH   6   7
ATOM      7  C   UNL     1      -5.876   3.928 123.945  0.00  0.00    +0.000 C 
BRANCH   7   8
ATOM      8  C   UNL     1      -5.262   4.296 125.300  0.00  0.00    +0.000 C 
BRANCH   8   9
ATOM      9  N   UNL     1      -4.386   3.221 125.853  0.00  0.00    +0.000 NA
BRANCH   9  11
ATOM     10  C   UNL     1      -1.963   3.115 126.607  0.00  0.00    +0.000 C 
ATOM     11  C   UNL     1      -3.291   3.862 126.614  0.00  0.00    +0.000 C 
ENDBRANCH   9  11
BRANCH   9  12
ATOM     12  C   UNL     1      -5.198   2.283 126.658  0.00  0.00    +0.000 C 
ATOM     13  C   UNL     1      -5.159   0.820 126.249  0.00  0.00    +0.000 C 
ENDBRANCH   9  12
ENDBRANCH   8   9
ENDBRANCH   7   8
ENDBRANCH   6   7
ENDBRANCH   5   6
ENDBRANCH   4   5
ENDBRANCH   3   4
ENDBRANCH   1   3
BRANCH   1  14
ATOM     14  C   UNL     1      -8.126  -2.127 125.061  0.00  0.00    +0.000 C 
BRANCH  14  15
ATOM     15  C   UNL     1      -8.107  -2.569 126.558  0.00  0.00    +0.000 A 
ATOM     16  C   UNL     1      -8.863  -3.647 127.045  0.00  0.00    +0.000 A 
ATOM     17  C   UNL     1      -8.969  -3.938 128.398  0.00  0.00    +0.000 A 
ATOM     18  C   UNL     1      -8.183  -3.254 129.304  0.00  0.00    +0.000 A 
ATOM     19  C   UNL     1      -7.338  -2.244 128.855  0.00  0.00    +0.000 A 
ATOM     20  C   UNL     1      -7.309  -1.893 127.502  0.00  0.00    +0.000 A 
ENDBRANCH  14  15
BRANCH  14  21
ATOM     21  C   UNL     1      -8.918  -3.187 124.245  0.00  0.00    +0.000 C 
ATOM     22  C   UNL     1      -9.395  -2.654 122.905  0.00  0.00    +0.000 C 
ENDBRANCH  14  21
BRANCH  14  23
ATOM     23  C   UNL     1      -6.638  -2.104 124.564  0.00  0.00    +0.000 C 
ATOM     24  C   UNL     1      -6.035  -3.467 124.236  0.00  0.00    +0.000 C 
ENDBRANCH  14  23
ENDBRANCH   1  14
TORSDOF 13
ENDMDL
MODEL 5
REMARK VINA RESULT:      -6.3      1.006      2.049
REMARK  Name = Oxeladin
REMARK  17 active torsions:
REMARK  status: ('A' for Active; 'I' for Inactive)
REMARK    1  A    between atoms: C_1  and  C_2
REMARK    2  A    between atoms: C_2  and  N_3
REMARK    3  A    between atoms: N_3  and  C_4
REMARK    4  A    between atoms: N_3  and  C_6
REMARK    5  A    between atoms: C_4  and  C_5
REMARK    6  A    between atoms: C_6  and  C_7
REMARK    7  A    between atoms: C_7  and  O_8
REMARK    8  A    between atoms: O_8  and  C_9
REMARK    9  A    between atoms: C_9  and  C_10
REMARK   10  A    between atoms: C_10  and  O_11
REMARK   11  A    between atoms: O_11  and  C_12
REMARK   12  A    between atoms: C_12  and  C_14
REMARK   13  A    between atoms: C_14  and  C_15
REMARK   14  A    between atoms: C_14  and  C_17
REMARK   15  A    between atoms: C_14  and  C_19
REMARK   16  A    between atoms: C_15  and  C_16
REMARK   17  A    between atoms: C_17  and  C_18
REMARK                            x       y       z     vdW  Elec       q    Type
REMARK                         _______ _______ _______ _____ _____    ______ ____
ROOT
ATOM      1  C   UNL     1      -8.318  -1.058 124.512  0.00  0.00    +0.000 C 
ATOM      2  O   UNL     1      -7.960  -0.308 123.624  0.00  0.00    +0.000 OA
ENDROOT
BRANCH   1   3
ATOM      3  O   UNL     1      -9.432  -0.757 125.240  0.00  0.00    +0.000 OA
BRANCH   3   4
ATOM      4  C   UNL     1      -9.560   0.664 125.408  0.00  0.00    +0.000 C 
BRANCH   4   5
ATOM      5  C   UNL     1      -9.019   1.046 126.760  0.00  0.00    +0.000 C 
BRANCH   5   6
ATOM      6  O   UNL     1      -8.435   2.346 126.682  0.00  0.00    +0.000 OA
BRANCH   6   7
ATOM      7  C   UNL     1      -8.457   2.772 125.324  0.00  0.00    +0.000 C 
BRANCH   7   8
ATOM      8  C   UNL     1      -7.874   4.181 125.169  0.00  0.00    +0.000 C 
BRANCH   8   9
ATOM      9  N   UNL     1      -6.604   4.202 124.384  0.00  0.00    +0.000 NA
BRANCH   9  11
ATOM     10  C   UNL     1      -4.835   3.133 125.862  0.00  0.00    +0.000 C 
ATOM     11  C   UNL     1      -5.482   4.406 125.327  0.00  0.00    +0.000 C 
ENDBRANCH   9  11
BRANCH   9  12
ATOM     12  C   UNL     1      -6.491   2.962 123.587  0.00  0.00    +0.000 C 
ATOM     13  C   UNL     1      -6.361   3.125 122.082  0.00  0.00    +0.000 C 
ENDBRANCH   9  12
ENDBRANCH   8   9
ENDBRANCH   7   8
ENDBRANCH   6   7
ENDBRANCH   5   6
ENDBRANCH   4   5
ENDBRANCH   3   4
ENDBRANCH   1   3
BRANCH   1  14
ATOM     14  C   UNL     1      -7.639  -2.411 124.943  0.00  0.00    +0.000 C 
BRANCH  14  15
ATOM     15  C   UNL     1      -7.848  -2.743 126.454  0.00  0.00    +0.000 A 
ATOM     16  C   UNL     1      -8.742  -3.729 126.903  0.00  0.00    +0.000 A 
ATOM     17  C   UNL     1      -9.045  -3.912 128.245  0.00  0.00    +0.000 A 
ATOM     18  C   UNL     1      -8.333  -3.220 129.203  0.00  0.00    +0.000 A 
ATOM     19  C   UNL     1      -7.360  -2.305 128.809  0.00  0.00    +0.000 A 
ATOM     20  C   UNL     1      -7.130  -2.056 127.452  0.00  0.00    +0.000 A 
ENDBRANCH  14  15
BRANCH  14  21
ATOM     21  C   UNL     1      -8.197  -3.592 124.098  0.00  0.00    +0.000 C 
ATOM     22  C   UNL     1      -9.494  -3.240 123.391  0.00  0.00    +0.000 C 
ENDBRANCH  14  21
BRANCH  14  23
ATOM     23  C   UNL     1      -6.094  -2.294 124.703  0.00  0.00    +0.000 C 
ATOM     24  C   UNL     1      -5.426  -3.532 124.111  0.00  0.00    +0.000 C 
ENDBRANCH  14  23
ENDBRANCH   1  14
TORSDOF 13
ENDMDL
MODEL 6
REMARK VINA RESULT:      -6.1      1.960      2.703
REMARK  Name = Oxeladin
REMARK  17 active torsions:
REMARK  status: ('A' for Active; 'I' for Inactive)
REMARK    1  A    between atoms: C_1  and  C_2
REMARK    2  A    between atoms: C_2  and  N_3
REMARK    3  A    between atoms: N_3  and  C_4
REMARK    4  A    between atoms: N_3  and  C_6
REMARK    5  A    between atoms: C_4  and  C_5
REMARK    6  A    between atoms: C_6  and  C_7
REMARK    7  A    between atoms: C_7  and  O_8
REMARK    8  A    between atoms: O_8  and  C_9
REMARK    9  A    between atoms: C_9  and  C_10
REMARK   10  A    between atoms: C_10  and  O_11
REMARK   11  A    between atoms: O_11  and  C_12
REMARK   12  A    between atoms: C_12  and  C_14
REMARK   13  A    between atoms: C_14  and  C_15
REMARK   14  A    between atoms: C_14  and  C_17
REMARK   15  A    between atoms: C_14  and  C_19
REMARK   16  A    between atoms: C_15  and  C_16
REMARK   17  A    between atoms: C_17  and  C_18
REMARK                            x       y       z     vdW  Elec       q    Type
REMARK                         _______ _______ _______ _____ _____    ______ ____
ROOT
ATOM      1  C   UNL     1      -8.428  -1.056 124.524  0.00  0.00    +0.000 C 
ATOM      2  O   UNL     1      -8.074  -0.336 123.609  0.00  0.00    +0.000 OA
ENDROOT
BRANCH   1   3
ATOM      3  O   UNL     1      -9.545  -0.736 125.239  0.00  0.00    +0.000 OA
BRANCH   3   4
ATOM      4  C   UNL     1      -9.646   0.685 125.415  0.00  0.00    +0.000 C 
BRANCH   4   5
ATOM      5  C   UNL     1      -8.884   1.080 126.652  0.00  0.00    +0.000 C 
BRANCH   5   6
ATOM      6  O   UNL     1      -8.662   2.490 126.637  0.00  0.00    +0.000 OA
BRANCH   6   7
ATOM      7  C   UNL     1      -7.987   2.830 125.431  0.00  0.00    +0.000 C 
BRANCH   7   8
ATOM      8  C   UNL     1      -6.472   2.642 125.563  0.00  0.00    +0.000 C 
BRANCH   8   9
ATOM      9  N   UNL     1      -5.949   3.054 126.899  0.00  0.00    +0.000 NA
BRANCH   9  11
ATOM     10  C   UNL     1      -5.130   0.665 126.621  0.00  0.00    +0.000 C 
ATOM     11  C   UNL     1      -5.311   1.877 127.529  0.00  0.00    +0.000 C 
ENDBRANCH   9  11
BRANCH   9  12
ATOM     12  C   UNL     1      -5.040   4.209 126.744  0.00  0.00    +0.000 C 
ATOM     13  C   UNL     1      -3.742   3.962 125.994  0.00  0.00    +0.000 C 
ENDBRANCH   9  12
ENDBRANCH   8   9
ENDBRANCH   7   8
ENDBRANCH   6   7
ENDBRANCH   5   6
ENDBRANCH   4   5
ENDBRANCH   3   4
ENDBRANCH   1   3
BRANCH   1  14
ATOM     14  C   UNL     1      -7.740  -2.388 125.003  0.00  0.00    +0.000 C 
BRANCH  14  15
ATOM     15  C   UNL     1      -7.976  -2.684 126.518  0.00  0.00    +0.000 A 
ATOM     16  C   UNL     1      -7.282  -2.019 127.542  0.00  0.00    +0.000 A 
ATOM     17  C   UNL     1      -7.375  -2.393 128.875  0.00  0.00    +0.000 A 
ATOM     18  C   UNL     1      -8.299  -3.346 129.252  0.00  0.00    +0.000 A 
ATOM     19  C   UNL     1      -9.086  -3.960 128.282  0.00  0.00    +0.000 A 
ATOM     20  C   UNL     1      -8.918  -3.647 126.930  0.00  0.00    +0.000 A 
ENDBRANCH  14  15
BRANCH  14  21
ATOM     21  C   UNL     1      -8.265  -3.598 124.179  0.00  0.00    +0.000 C 
ATOM     22  C   UNL     1      -9.501  -3.256 123.365  0.00  0.00    +0.000 C 
ENDBRANCH  14  21
BRANCH  14  23
ATOM     23  C   UNL     1      -6.192  -2.256 124.791  0.00  0.00    +0.000 C 
ATOM     24  C   UNL     1      -5.568  -3.287 123.854  0.00  0.00    +0.000 C 
ENDBRANCH  14  23
ENDBRANCH   1  14
TORSDOF 13
ENDMDL
MODEL 7
REMARK VINA RESULT:      -5.9      2.957      4.888
REMARK  Name = Oxeladin
REMARK  17 active torsions:
REMARK  status: ('A' for Active; 'I' for Inactive)
REMARK    1  A    between atoms: C_1  and  C_2
REMARK    2  A    between atoms: C_2  and  N_3
REMARK    3  A    between atoms: N_3  and  C_4
REMARK    4  A    between atoms: N_3  and  C_6
REMARK    5  A    between atoms: C_4  and  C_5
REMARK    6  A    between atoms: C_6  and  C_7
REMARK    7  A    between atoms: C_7  and  O_8
REMARK    8  A    between atoms: O_8  and  C_9
REMARK    9  A    between atoms: C_9  and  C_10
REMARK   10  A    between atoms: C_10  and  O_11
REMARK   11  A    between atoms: O_11  and  C_12
REMARK   12  A    between atoms: C_12  and  C_14
REMARK   13  A    between atoms: C_14  and  C_15
REMARK   14  A    between atoms: C_14  and  C_17
REMARK   15  A    between atoms: C_14  and  C_19
REMARK   16  A    between atoms: C_15  and  C_16
REMARK   17  A    between atoms: C_17  and  C_18
REMARK                            x       y       z     vdW  Elec       q    Type
REMARK                         _______ _______ _______ _____ _____    ______ ____
ROOT
ATOM      1  C   UNL     1      -8.543  -1.071 124.620  0.00  0.00    +0.000 C 
ATOM      2  O   UNL     1      -8.374  -0.360 123.648  0.00  0.00    +0.000 OA
ENDROOT
BRANCH   1   3
ATOM      3  O   UNL     1      -9.543  -0.779 125.501  0.00  0.00    +0.000 OA
BRANCH   3   4
ATOM      4  C   UNL     1      -9.612   0.635 125.742  0.00  0.00    +0.000 C 
BRANCH   4   5
ATOM      5  C   UNL     1      -8.614   0.998 126.809  0.00  0.00    +0.000 C 
BRANCH   5   6
ATOM      6  O   UNL     1      -8.993   2.240 127.404  0.00  0.00    +0.000 OA
BRANCH   6   7
ATOM      7  C   UNL     1      -8.272   2.398 128.621  0.00  0.00    +0.000 C 
BRANCH   7   8
ATOM      8  C   UNL     1      -7.137   1.374 128.738  0.00  0.00    +0.000 C 
BRANCH   8   9
ATOM      9  N   UNL     1      -6.967   0.852 130.127  0.00  0.00    +0.000 NA
BRANCH   9  11
ATOM     10  C   UNL     1      -4.956   0.764 131.676  0.00  0.00    +0.000 C 
ATOM     11  C   UNL     1      -5.854   1.591 130.764  0.00  0.00    +0.000 C 
ENDBRANCH   9  11
BRANCH   9  12
ATOM     12  C   UNL     1      -8.246   0.958 130.860  0.00  0.00    +0.000 C 
ATOM     13  C   UNL     1      -8.642  -0.229 131.721  0.00  0.00    +0.000 C 
ENDBRANCH   9  12
ENDBRANCH   8   9
ENDBRANCH   7   8
ENDBRANCH   6   7
ENDBRANCH   5   6
ENDBRANCH   4   5
ENDBRANCH   3   4
ENDBRANCH   1   3
BRANCH   1  14
ATOM     14  C   UNL     1      -7.731  -2.362 125.005  0.00  0.00    +0.000 C 
BRANCH  14  15
ATOM     15  C   UNL     1      -7.871  -2.743 126.513  0.00  0.00    +0.000 A 
ATOM     16  C   UNL     1      -8.820  -3.665 126.982  0.00  0.00    +0.000 A 
ATOM     17  C   UNL     1      -9.050  -3.882 128.334  0.00  0.00    +0.000 A 
ATOM     18  C   UNL     1      -8.217  -3.300 129.268  0.00  0.00    +0.000 A 
ATOM     19  C   UNL     1      -7.193  -2.458 128.844  0.00  0.00    +0.000 A 
ATOM     20  C   UNL     1      -7.029  -2.169 127.485  0.00  0.00    +0.000 A 
ENDBRANCH  14  15
BRANCH  14  21
ATOM     21  C   UNL     1      -8.195  -3.573 124.147  0.00  0.00    +0.000 C 
ATOM     22  C   UNL     1      -9.525  -3.322 123.458  0.00  0.00    +0.000 C 
ENDBRANCH  14  21
BRANCH  14  23
ATOM     23  C   UNL     1      -6.209  -2.095 124.734  0.00  0.00    +0.000 C 
ATOM     24  C   UNL     1      -5.454  -3.233 124.052  0.00  0.00    +0.000 C 
ENDBRANCH  14  23
ENDBRANCH   1  14
TORSDOF 13
ENDMDL
MODEL 8
REMARK VINA RESULT:      -5.7      3.569      5.226
REMARK  Name = Oxeladin
REMARK  17 active torsions:
REMARK  status: ('A' for Active; 'I' for Inactive)
REMARK    1  A    between atoms: C_1  and  C_2
REMARK    2  A    between atoms: C_2  and  N_3
REMARK    3  A    between atoms: N_3  and  C_4
REMARK    4  A    between atoms: N_3  and  C_6
REMARK    5  A    between atoms: C_4  and  C_5
REMARK    6  A    between atoms: C_6  and  C_7
REMARK    7  A    between atoms: C_7  and  O_8
REMARK    8  A    between atoms: O_8  and  C_9
REMARK    9  A    between atoms: C_9  and  C_10
REMARK   10  A    between atoms: C_10  and  O_11
REMARK   11  A    between atoms: O_11  and  C_12
REMARK   12  A    between atoms: C_12  and  C_14
REMARK   13  A    between atoms: C_14  and  C_15
REMARK   14  A    between atoms: C_14  and  C_17
REMARK   15  A    between atoms: C_14  and  C_19
REMARK   16  A    between atoms: C_15  and  C_16
REMARK   17  A    between atoms: C_17  and  C_18
REMARK                            x       y       z     vdW  Elec       q    Type
REMARK                         _______ _______ _______ _____ _____    ______ ____
ROOT
ATOM      1  C   UNL     1      -8.961  -0.064 125.190  0.00  0.00    +0.000 C 
ATOM      2  O   UNL     1     -10.149   0.151 125.348  0.00  0.00    +0.000 OA
ENDROOT
BRANCH   1   3
ATOM      3  O   UNL     1      -8.115   0.978 124.949  0.00  0.00    +0.000 OA
BRANCH   3   4
ATOM      4  C   UNL     1      -8.493   2.130 125.719  0.00  0.00    +0.000 C 
BRANCH   4   5
ATOM      5  C   UNL     1      -7.889   2.018 127.093  0.00  0.00    +0.000 C 
BRANCH   5   6
ATOM      6  O   UNL     1      -8.897   2.273 128.071  0.00  0.00    +0.000 OA
BRANCH   6   7
ATOM      7  C   UNL     1      -8.271   2.768 129.249  0.00  0.00    +0.000 C 
BRANCH   7   8
ATOM      8  C   UNL     1      -8.726   4.196 129.570  0.00  0.00    +0.000 C 
BRANCH   8   9
ATOM      9  N   UNL     1      -9.350   4.318 130.920  0.00  0.00    +0.000 NA
BRANCH   9  11
ATOM     10  C   UNL     1      -9.399   2.523 132.717  0.00  0.00    +0.000 C 
ATOM     11  C   UNL     1      -8.577   3.482 131.864  0.00  0.00    +0.000 C 
ENDBRANCH   9  11
BRANCH   9  12
ATOM     12  C   UNL     1      -9.420   5.743 131.310  0.00  0.00    +0.000 C 
ATOM     13  C   UNL     1     -10.359   6.094 132.451  0.00  0.00    +0.000 C 
ENDBRANCH   9  12
ENDBRANCH   8   9
ENDBRANCH   7   8
ENDBRANCH   6   7
ENDBRANCH   5   6
ENDBRANCH   4   5
ENDBRANCH   3   4
ENDBRANCH   1   3
BRANCH   1  14
ATOM     14  C   UNL     1      -8.234  -1.458 125.250  0.00  0.00    +0.000 C 
BRANCH  14  15
ATOM     15  C   UNL     1      -8.329  -2.135 126.654  0.00  0.00    +0.000 A 
ATOM     16  C   UNL     1      -7.813  -1.549 127.820  0.00  0.00    +0.000 A 
ATOM     17  C   UNL     1      -7.756  -2.219 129.034  0.00  0.00    +0.000 A 
ATOM     18  C   UNL     1      -8.369  -3.450 129.162  0.00  0.00    +0.000 A 
ATOM     19  C   UNL     1      -8.986  -4.027 128.056  0.00  0.00    +0.000 A 
ATOM     20  C   UNL     1      -8.955  -3.387 126.812  0.00  0.00    +0.000 A 
ENDBRANCH  14  15
BRANCH  14  21
ATOM     21  C   UNL     1      -8.833  -2.430 124.194  0.00  0.00    +0.000 C 
ATOM     22  C   UNL     1      -8.847  -1.835 122.797  0.00  0.00    +0.000 C 
ENDBRANCH  14  21
BRANCH  14  23
ATOM     23  C   UNL     1      -6.711  -1.242 124.942  0.00  0.00    +0.000 C 
ATOM     24  C   UNL     1      -5.871  -2.513 124.861  0.00  0.00    +0.000 C 
ENDBRANCH  14  23
ENDBRANCH   1  14
TORSDOF 13
ENDMDL
MODEL 9
REMARK VINA RESULT:      -5.7      1.617      2.669
REMARK  Name = Oxeladin
REMARK  17 active torsions:
REMARK  status: ('A' for Active; 'I' for Inactive)
REMARK    1  A    between atoms: C_1  and  C_2
REMARK    2  A    between atoms: C_2  and  N_3
REMARK    3  A    between atoms: N_3  and  C_4
REMARK    4  A    between atoms: N_3  and  C_6
REMARK    5  A    between atoms: C_4  and  C_5
REMARK    6  A    between atoms: C_6  and  C_7
REMARK    7  A    between atoms: C_7  and  O_8
REMARK    8  A    between atoms: O_8  and  C_9
REMARK    9  A    between atoms: C_9  and  C_10
REMARK   10  A    between atoms: C_10  and  O_11
REMARK   11  A    between atoms: O_11  and  C_12
REMARK   12  A    between atoms: C_12  and  C_14
REMARK   13  A    between atoms: C_14  and  C_15
REMARK   14  A    between atoms: C_14  and  C_17
REMARK   15  A    between atoms: C_14  and  C_19
REMARK   16  A    between atoms: C_15  and  C_16
REMARK   17  A    between atoms: C_17  and  C_18
REMARK                            x       y       z     vdW  Elec       q    Type
REMARK                         _______ _______ _______ _____ _____    ______ ____
ROOT
ATOM      1  C   UNL     1      -7.350  -0.482 124.709  0.00  0.00    +0.000 C 
ATOM      2  O   UNL     1      -6.461   0.331 124.541  0.00  0.00    +0.000 OA
ENDROOT
BRANCH   1   3
ATOM      3  O   UNL     1      -8.650  -0.069 124.706  0.00  0.00    +0.000 OA
BRANCH   3   4
ATOM      4  C   UNL     1      -8.729   1.364 124.746  0.00  0.00    +0.000 C 
BRANCH   4   5
ATOM      5  C   UNL     1      -9.270   1.860 123.432  0.00  0.00    +0.000 C 
BRANCH   5   6
ATOM      6  O   UNL     1      -8.657   3.110 123.113  0.00  0.00    +0.000 OA
BRANCH   6   7
ATOM      7  C   UNL     1      -7.341   2.861 122.633  0.00  0.00    +0.000 C 
BRANCH   7   8
ATOM      8  C   UNL     1      -6.334   3.861 123.212  0.00  0.00    +0.000 C 
BRANCH   8   9
ATOM      9  N   UNL     1      -6.263   3.819 124.702  0.00  0.00    +0.000 NA
BRANCH   9  11
ATOM     10  C   UNL     1      -4.633   2.850 126.393  0.00  0.00    +0.000 C 
ATOM     11  C   UNL     1      -4.850   3.615 125.092  0.00  0.00    +0.000 C 
ENDBRANCH   9  11
BRANCH   9  12
ATOM     12  C   UNL     1      -6.862   5.048 125.264  0.00  0.00    +0.000 C 
ATOM     13  C   UNL     1      -8.189   4.894 125.987  0.00  0.00    +0.000 C 
ENDBRANCH   9  12
ENDBRANCH   8   9
ENDBRANCH   7   8
ENDBRANCH   6   7
ENDBRANCH   5   6
ENDBRANCH   4   5
ENDBRANCH   3   4
ENDBRANCH   1   3
BRANCH   1  14
ATOM     14  C   UNL     1      -7.189  -2.033 124.922  0.00  0.00    +0.000 C 
BRANCH  14  15
ATOM     15  C   UNL     1      -7.663  -2.506 126.332  0.00  0.00    +0.000 A 
ATOM     16  C   UNL     1      -7.125  -2.003 127.527  0.00  0.00    +0.000 A 
ATOM     17  C   UNL     1      -7.432  -2.537 128.771  0.00  0.00    +0.000 A 
ATOM     18  C   UNL     1      -8.422  -3.492 128.876  0.00  0.00    +0.000 A 
ATOM     19  C   UNL     1      -9.060  -3.949 127.726  0.00  0.00    +0.000 A 
ATOM     20  C   UNL     1      -8.677  -3.475 126.467  0.00  0.00    +0.000 A 
ENDBRANCH  14  15
BRANCH  14  21
ATOM     21  C   UNL     1      -7.992  -2.816 123.845  0.00  0.00    +0.000 C 
ATOM     22  C   UNL     1      -8.034  -2.093 122.510  0.00  0.00    +0.000 C 
ENDBRANCH  14  21
BRANCH  14  23
ATOM     23  C   UNL     1      -5.669  -2.400 124.796  0.00  0.00    +0.000 C 
ATOM     24  C   UNL     1      -5.369  -3.714 124.080  0.00  0.00    +0.000 C 
ENDBRANCH  14  23
ENDBRANCH   1  14
TORSDOF 13
ENDMDL
