MODEL 1
REMARK VINA RESULT:      -8.7      0.000      0.000
REMARK  Name = Oxiconazole
REMARK  6 active torsions:
REMARK  status: ('A' for Active; 'I' for Inactive)
REMARK    1  A    between atoms: C_6  and  C_7
REMARK    2  A    between atoms: C_7  and  O_8
REMARK    3  A    between atoms: O_8  and  N_9
REMARK    4  A    between atoms: C_10  and  C_11
REMARK    5  A    between atoms: C_10  and  C_17
REMARK    6  A    between atoms: C_11  and  N_12
REMARK                            x       y       z     vdW  Elec       q    Type
REMARK                         _______ _______ _______ _____ _____    ______ ____
ROOT
ATOM      1  N   UNL     1      -6.954   1.814 122.954  0.00  0.00    +0.000 NA
ATOM      2  C   UNL     1      -6.486   3.064 123.014  0.00  0.00    +0.000 C 
ENDROOT
BRANCH   2   3
ATOM      3  C   UNL     1      -6.439   3.776 121.650  0.00  0.00    +0.000 A 
ATOM      4  C   UNL     1      -5.202   4.363 121.297  0.00  0.00    +0.000 A 
ATOM      5  C   UNL     1      -5.032   5.026 120.072  0.00  0.00    +0.000 A 
ATOM      6  C   UNL     1      -6.087   5.087 119.169  0.00  0.00    +0.000 A 
ATOM      7 CL   UNL     1      -5.908   5.932 117.683  0.00  0.00    +0.000 Cl
ATOM      8  C   UNL     1      -7.302   4.485 119.476  0.00  0.00    +0.000 A 
ATOM      9  C   UNL     1      -7.484   3.838 120.710  0.00  0.00    +0.000 A 
ATOM     10 CL   UNL     1      -9.082   3.239 120.975  0.00  0.00    +0.000 Cl
ENDBRANCH   2   3
BRANCH   1  11
ATOM     11  O   UNL     1      -7.640   1.277 124.100  0.00  0.00    +0.000 OA
BRANCH  11  12
ATOM     12  C   UNL     1      -8.329  -0.040 123.937  0.00  0.00    +0.000 C 
BRANCH  12  18
ATOM     13 CL   UNL     1      -4.544  -4.960 123.703  0.00  0.00    +0.000 Cl
ATOM     14  C   UNL     1      -5.637  -3.637 123.802  0.00  0.00    +0.000 A 
ATOM     15  C   UNL     1      -6.861  -3.698 124.458  0.00  0.00    +0.000 A 
ATOM     16  C   UNL     1      -7.731  -2.559 124.524  0.00  0.00    +0.000 A 
ATOM     17 CL   UNL     1      -9.256  -2.775 125.300  0.00  0.00    +0.000 Cl
ATOM     18  C   UNL     1      -7.460  -1.372 123.842  0.00  0.00    +0.000 A 
ATOM     19  C   UNL     1      -6.426  -1.585 122.926  0.00  0.00    +0.000 A 
ATOM     20  C   UNL     1      -5.395  -2.532 123.049  0.00  0.00    +0.000 A 
ENDBRANCH  12  18
ENDBRANCH  11  12
ENDBRANCH   1  11
BRANCH   2  21
ATOM     21  C   UNL     1      -6.048   4.045 124.185  0.00  0.00    +0.000 C 
BRANCH  21  22
ATOM     22  N   UNL     1      -6.732   4.111 125.466  0.00  0.00    +0.000 N 
ATOM     23  C   UNL     1      -6.550   3.531 126.696  0.00  0.00    +0.000 A 
ATOM     24  C   UNL     1      -7.668   3.912 127.427  0.00  0.00    +0.000 A 
ATOM     25  N   UNL     1      -8.329   4.870 126.760  0.00  0.00    +0.000 NA
ATOM     26  C   UNL     1      -7.961   4.576 125.538  0.00  0.00    +0.000 A 
ENDBRANCH  21  22
ENDBRANCH   2  21
TORSDOF 6
ENDMDL
MODEL 2
REMARK VINA RESULT:      -8.3      1.765      2.094
REMARK  Name = Oxiconazole
REMARK  6 active torsions:
REMARK  status: ('A' for Active; 'I' for Inactive)
REMARK    1  A    between atoms: C_6  and  C_7
REMARK    2  A    between atoms: C_7  and  O_8
REMARK    3  A    between atoms: O_8  and  N_9
REMARK    4  A    between atoms: C_10  and  C_11
REMARK    5  A    between atoms: C_10  and  C_17
REMARK    6  A    between atoms: C_11  and  N_12
REMARK                            x       y       z     vdW  Elec       q    Type
REMARK                         _______ _______ _______ _____ _____    ______ ____
ROOT
ATOM      1  N   UNL     1      -6.763   1.908 123.008  0.00  0.00    +0.000 NA
ATOM      2  C   UNL     1      -6.412   3.196 123.038  0.00  0.00    +0.000 C 
ENDROOT
BRANCH   2   3
ATOM      3  C   UNL     1      -6.391   3.867 121.652  0.00  0.00    +0.000 A 
ATOM      4  C   UNL     1      -5.177   4.486 121.279  0.00  0.00    +0.000 A 
ATOM      5  C   UNL     1      -5.032   5.118 120.034  0.00  0.00    +0.000 A 
ATOM      6  C   UNL     1      -6.089   5.114 119.133  0.00  0.00    +0.000 A 
ATOM      7 CL   UNL     1      -5.942   5.920 117.621  0.00  0.00    +0.000 Cl
ATOM      8  C   UNL     1      -7.281   4.479 119.461  0.00  0.00    +0.000 A 
ATOM      9  C   UNL     1      -7.439   3.864 120.713  0.00  0.00    +0.000 A 
ATOM     10 CL   UNL     1      -9.014   3.217 121.001  0.00  0.00    +0.000 Cl
ENDBRANCH   2   3
BRANCH   1  11
ATOM     11  O   UNL     1      -7.429   1.345 124.153  0.00  0.00    +0.000 OA
BRANCH  11  12
ATOM     12  C   UNL     1      -8.365   0.203 123.915  0.00  0.00    +0.000 C 
BRANCH  12  18
ATOM     13 CL   UNL     1      -8.790  -4.178 128.299  0.00  0.00    +0.000 Cl
ATOM     14  C   UNL     1      -8.693  -3.012 127.039  0.00  0.00    +0.000 A 
ATOM     15  C   UNL     1      -9.044  -3.273 125.720  0.00  0.00    +0.000 A 
ATOM     16  C   UNL     1      -8.960  -2.259 124.709  0.00  0.00    +0.000 A 
ATOM     17 CL   UNL     1      -9.350  -2.721 123.094  0.00  0.00    +0.000 Cl
ATOM     18  C   UNL     1      -8.413  -0.999 124.959  0.00  0.00    +0.000 A 
ATOM     19  C   UNL     1      -7.753  -1.012 126.191  0.00  0.00    +0.000 A 
ATOM     20  C   UNL     1      -8.068  -1.831 127.289  0.00  0.00    +0.000 A 
ENDBRANCH  12  18
ENDBRANCH  11  12
ENDBRANCH   1  11
BRANCH   2  21
ATOM     21  C   UNL     1      -6.096   4.248 124.187  0.00  0.00    +0.000 C 
BRANCH  21  22
ATOM     22  N   UNL     1      -6.756   4.234 125.481  0.00  0.00    +0.000 N 
ATOM     23  C   UNL     1      -6.572   3.555 126.659  0.00  0.00    +0.000 A 
ATOM     24  C   UNL     1      -7.666   3.911 127.438  0.00  0.00    +0.000 A 
ATOM     25  N   UNL     1      -8.307   4.938 126.861  0.00  0.00    +0.000 NA
ATOM     26  C   UNL     1      -7.969   4.729 125.613  0.00  0.00    +0.000 A 
ENDBRANCH  21  22
ENDBRANCH   2  21
TORSDOF 6
ENDMDL
MODEL 3
REMARK VINA RESULT:      -7.9      5.369      9.299
REMARK  Name = Oxiconazole
REMARK  6 active torsions:
REMARK  status: ('A' for Active; 'I' for Inactive)
REMARK    1  A    between atoms: C_6  and  C_7
REMARK    2  A    between atoms: C_7  and  O_8
REMARK    3  A    between atoms: O_8  and  N_9
REMARK    4  A    between atoms: C_10  and  C_11
REMARK    5  A    between atoms: C_10  and  C_17
REMARK    6  A    between atoms: C_11  and  N_12
REMARK                            x       y       z     vdW  Elec       q    Type
REMARK                         _______ _______ _______ _____ _____    ______ ____
ROOT
ATOM      1  N   UNL     1      -7.975   4.550 127.945  0.00  0.00    +0.000 NA
ATOM      2  C   UNL     1      -7.547   3.376 127.475  0.00  0.00    +0.000 C 
ENDROOT
BRANCH   2   3
ATOM      3  C   UNL     1      -6.015   3.276 127.353  0.00  0.00    +0.000 A 
ATOM      4  C   UNL     1      -5.466   3.635 126.101  0.00  0.00    +0.000 A 
ATOM      5  C   UNL     1      -4.081   3.599 125.874  0.00  0.00    +0.000 A 
ATOM      6  C   UNL     1      -3.224   3.231 126.904  0.00  0.00    +0.000 A 
ATOM      7 CL   UNL     1      -1.529   3.141 126.630  0.00  0.00    +0.000 Cl
ATOM      8  C   UNL     1      -3.736   2.910 128.155  0.00  0.00    +0.000 A 
ATOM      9  C   UNL     1      -5.123   2.924 128.382  0.00  0.00    +0.000 A 
ATOM     10 CL   UNL     1      -5.596   2.397 129.957  0.00  0.00    +0.000 Cl
ENDBRANCH   2   3
BRANCH   1  11
ATOM     11  O   UNL     1      -9.204   4.590 128.692  0.00  0.00    +0.000 OA
BRANCH  11  12
ATOM     12  C   UNL     1      -9.341   5.646 129.742  0.00  0.00    +0.000 C 
BRANCH  12  18
ATOM     13 CL   UNL     1     -13.666   9.946 128.564  0.00  0.00    +0.000 Cl
ATOM     14  C   UNL     1     -12.495   8.751 128.954  0.00  0.00    +0.000 A 
ATOM     15  C   UNL     1     -12.438   8.099 130.180  0.00  0.00    +0.000 A 
ATOM     16  C   UNL     1     -11.449   7.096 130.450  0.00  0.00    +0.000 A 
ATOM     17 CL   UNL     1     -11.431   6.411 132.032  0.00  0.00    +0.000 Cl
ATOM     18  C   UNL     1     -10.421   6.802 129.552  0.00  0.00    +0.000 A 
ATOM     19  C   UNL     1     -10.369   7.787 128.562  0.00  0.00    +0.000 A 
ATOM     20  C   UNL     1     -11.452   8.557 128.104  0.00  0.00    +0.000 A 
ENDBRANCH  12  18
ENDBRANCH  11  12
ENDBRANCH   1  11
BRANCH   2  21
ATOM     21  C   UNL     1      -8.241   1.998 127.092  0.00  0.00    +0.000 C 
BRANCH  21  22
ATOM     22  N   UNL     1      -8.826   1.738 125.788  0.00  0.00    +0.000 N 
ATOM     23  C   UNL     1      -8.976   2.457 124.628  0.00  0.00    +0.000 A 
ATOM     24  C   UNL     1      -9.774   1.653 123.824  0.00  0.00    +0.000 A 
ATOM     25  N   UNL     1      -9.865   0.430 124.368  0.00  0.00    +0.000 NA
ATOM     26  C   UNL     1      -9.668   0.739 125.626  0.00  0.00    +0.000 A 
ENDBRANCH  21  22
ENDBRANCH   2  21
TORSDOF 6
ENDMDL
MODEL 4
REMARK VINA RESULT:      -7.8      1.835      2.228
REMARK  Name = Oxiconazole
REMARK  6 active torsions:
REMARK  status: ('A' for Active; 'I' for Inactive)
REMARK    1  A    between atoms: C_6  and  C_7
REMARK    2  A    between atoms: C_7  and  O_8
REMARK    3  A    between atoms: O_8  and  N_9
REMARK    4  A    between atoms: C_10  and  C_11
REMARK    5  A    between atoms: C_10  and  C_17
REMARK    6  A    between atoms: C_11  and  N_12
REMARK                            x       y       z     vdW  Elec       q    Type
REMARK                         _______ _______ _______ _____ _____    ______ ____
ROOT
ATOM      1  N   UNL     1      -6.919   1.905 124.492  0.00  0.00    +0.000 NA
ATOM      2  C   UNL     1      -6.485   3.164 124.380  0.00  0.00    +0.000 C 
ENDROOT
BRANCH   2   3
ATOM      3  C   UNL     1      -6.374   3.654 122.924  0.00  0.00    +0.000 A 
ATOM      4  C   UNL     1      -5.158   4.281 122.571  0.00  0.00    +0.000 A 
ATOM      5  C   UNL     1      -4.932   4.756 121.269  0.00  0.00    +0.000 A 
ATOM      6  C   UNL     1      -5.909   4.586 120.295  0.00  0.00    +0.000 A 
ATOM      7 CL   UNL     1      -5.666   5.199 118.708  0.00  0.00    +0.000 Cl
ATOM      8  C   UNL     1      -7.098   3.938 120.608  0.00  0.00    +0.000 A 
ATOM      9  C   UNL     1      -7.337   3.479 121.914  0.00  0.00    +0.000 A 
ATOM     10 CL   UNL     1      -8.905   2.795 122.158  0.00  0.00    +0.000 Cl
ENDBRANCH   2   3
BRANCH   1  11
ATOM     11  O   UNL     1      -7.658   1.531 125.669  0.00  0.00    +0.000 OA
BRANCH  11  12
ATOM     12  C   UNL     1      -8.077   0.101 125.796  0.00  0.00    +0.000 C 
BRANCH  12  18
ATOM     13 CL   UNL     1      -4.609  -4.592 123.666  0.00  0.00    +0.000 Cl
ATOM     14  C   UNL     1      -5.604  -3.295 124.196  0.00  0.00    +0.000 A 
ATOM     15  C   UNL     1      -6.664  -2.785 123.455  0.00  0.00    +0.000 A 
ATOM     16  C   UNL     1      -7.474  -1.710 123.951  0.00  0.00    +0.000 A 
ATOM     17 CL   UNL     1      -8.713  -1.112 122.911  0.00  0.00    +0.000 Cl
ATOM     18  C   UNL     1      -7.178  -1.039 125.139  0.00  0.00    +0.000 A 
ATOM     19  C   UNL     1      -5.893  -1.384 125.563  0.00  0.00    +0.000 A 
ATOM     20  C   UNL     1      -5.235  -2.599 125.304  0.00  0.00    +0.000 A 
ENDBRANCH  12  18
ENDBRANCH  11  12
ENDBRANCH   1  11
BRANCH   2  21
ATOM     21  C   UNL     1      -6.141   4.330 125.403  0.00  0.00    +0.000 C 
BRANCH  21  22
ATOM     22  N   UNL     1      -4.971   4.312 126.265  0.00  0.00    +0.000 N 
ATOM     23  C   UNL     1      -4.410   5.186 127.161  0.00  0.00    +0.000 A 
ATOM     24  C   UNL     1      -3.204   4.594 127.513  0.00  0.00    +0.000 A 
ATOM     25  N   UNL     1      -3.180   3.331 127.061  0.00  0.00    +0.000 NA
ATOM     26  C   UNL     1      -4.001   3.450 126.047  0.00  0.00    +0.000 A 
ENDBRANCH  21  22
ENDBRANCH   2  21
TORSDOF 6
ENDMDL
MODEL 5
REMARK VINA RESULT:      -7.8      4.751      8.349
REMARK  Name = Oxiconazole
REMARK  6 active torsions:
REMARK  status: ('A' for Active; 'I' for Inactive)
REMARK    1  A    between atoms: C_6  and  C_7
REMARK    2  A    between atoms: C_7  and  O_8
REMARK    3  A    between atoms: O_8  and  N_9
REMARK    4  A    between atoms: C_10  and  C_11
REMARK    5  A    between atoms: C_10  and  C_17
REMARK    6  A    between atoms: C_11  and  N_12
REMARK                            x       y       z     vdW  Elec       q    Type
REMARK                         _______ _______ _______ _____ _____    ______ ____
ROOT
ATOM      1  N   UNL     1      -8.366   4.887 127.168  0.00  0.00    +0.000 NA
ATOM      2  C   UNL     1      -7.713   3.770 126.833  0.00  0.00    +0.000 C 
ENDROOT
BRANCH   2   3
ATOM      3  C   UNL     1      -7.268   3.729 125.360  0.00  0.00    +0.000 A 
ATOM      4  C   UNL     1      -6.045   4.373 125.061  0.00  0.00    +0.000 A 
ATOM      5  C   UNL     1      -5.528   4.389 123.756  0.00  0.00    +0.000 A 
ATOM      6  C   UNL     1      -6.212   3.738 122.737  0.00  0.00    +0.000 A 
ATOM      7 CL   UNL     1      -5.614   3.785 121.125  0.00  0.00    +0.000 Cl
ATOM      8  C   UNL     1      -7.397   3.065 123.012  0.00  0.00    +0.000 A 
ATOM      9  C   UNL     1      -7.929   3.063 124.312  0.00  0.00    +0.000 A 
ATOM     10 CL   UNL     1      -9.459   2.274 124.458  0.00  0.00    +0.000 Cl
ENDBRANCH   2   3
BRANCH   1  11
ATOM     11  O   UNL     1      -8.277   5.359 128.524  0.00  0.00    +0.000 OA
BRANCH  11  12
ATOM     12  C   UNL     1      -9.527   5.344 129.345  0.00  0.00    +0.000 C 
BRANCH  12  18
ATOM     13 CL   UNL     1     -13.593   9.992 128.680  0.00  0.00    +0.000 Cl
ATOM     14  C   UNL     1     -12.485   8.703 128.931  0.00  0.00    +0.000 A 
ATOM     15  C   UNL     1     -12.314   8.061 130.152  0.00  0.00    +0.000 A 
ATOM     16  C   UNL     1     -11.385   6.979 130.305  0.00  0.00    +0.000 A 
ATOM     17 CL   UNL     1     -11.205   6.310 131.884  0.00  0.00    +0.000 Cl
ATOM     18  C   UNL     1     -10.521   6.587 129.281  0.00  0.00    +0.000 A 
ATOM     19  C   UNL     1     -10.523   7.554 128.271  0.00  0.00    +0.000 A 
ATOM     20  C   UNL     1     -11.590   8.410 127.950  0.00  0.00    +0.000 A 
ENDBRANCH  12  18
ENDBRANCH  11  12
ENDBRANCH   1  11
BRANCH   2  21
ATOM     21  C   UNL     1      -7.193   2.492 127.623  0.00  0.00    +0.000 C 
BRANCH  21  22
ATOM     22  N   UNL     1      -6.714   1.290 126.962  0.00  0.00    +0.000 N 
ATOM     23  C   UNL     1      -7.285   0.110 126.557  0.00  0.00    +0.000 A 
ATOM     24  C   UNL     1      -6.212  -0.666 126.136  0.00  0.00    +0.000 A 
ATOM     25  N   UNL     1      -5.116   0.101 126.047  0.00  0.00    +0.000 NA
ATOM     26  C   UNL     1      -5.426   1.022 126.926  0.00  0.00    +0.000 A 
ENDBRANCH  21  22
ENDBRANCH   2  21
TORSDOF 6
ENDMDL
MODEL 6
REMARK VINA RESULT:      -7.8      3.542      7.230
REMARK  Name = Oxiconazole
REMARK  6 active torsions:
REMARK  status: ('A' for Active; 'I' for Inactive)
REMARK    1  A    between atoms: C_6  and  C_7
REMARK    2  A    between atoms: C_7  and  O_8
REMARK    3  A    between atoms: O_8  and  N_9
REMARK    4  A    between atoms: C_10  and  C_11
REMARK    5  A    between atoms: C_10  and  C_17
REMARK    6  A    between atoms: C_11  and  N_12
REMARK                            x       y       z     vdW  Elec       q    Type
REMARK                         _______ _______ _______ _____ _____    ______ ____
ROOT
ATOM      1  N   UNL     1      -9.427  -0.739 125.114  0.00  0.00    +0.000 NA
ATOM      2  C   UNL     1      -8.509  -1.173 125.983  0.00  0.00    +0.000 C 
ENDROOT
BRANCH   2   3
ATOM      3  C   UNL     1      -7.359  -1.961 125.330  0.00  0.00    +0.000 A 
ATOM      4  C   UNL     1      -7.674  -3.265 124.883  0.00  0.00    +0.000 A 
ATOM      5  C   UNL     1      -6.713  -4.074 124.257  0.00  0.00    +0.000 A 
ATOM      6  C   UNL     1      -5.431  -3.582 124.045  0.00  0.00    +0.000 A 
ATOM      7 CL   UNL     1      -4.231  -4.576 123.319  0.00  0.00    +0.000 Cl
ATOM      8  C   UNL     1      -5.107  -2.290 124.441  0.00  0.00    +0.000 A 
ATOM      9  C   UNL     1      -6.059  -1.482 125.085  0.00  0.00    +0.000 A 
ATOM     10 CL   UNL     1      -5.462   0.052 125.607  0.00  0.00    +0.000 Cl
ENDBRANCH   2   3
BRANCH   1  11
ATOM     11  O   UNL     1     -10.147   0.469 125.415  0.00  0.00    +0.000 OA
BRANCH  11  12
ATOM     12  C   UNL     1     -10.116   1.564 124.396  0.00  0.00    +0.000 C 
BRANCH  12  18
ATOM     13 CL   UNL     1      -4.946   4.511 122.616  0.00  0.00    +0.000 Cl
ATOM     14  C   UNL     1      -6.356   3.701 123.174  0.00  0.00    +0.000 A 
ATOM     15  C   UNL     1      -6.636   3.481 124.518  0.00  0.00    +0.000 A 
ATOM     16  C   UNL     1      -7.835   2.812 124.932  0.00  0.00    +0.000 A 
ATOM     17 CL   UNL     1      -8.039   2.529 126.620  0.00  0.00    +0.000 Cl
ATOM     18  C   UNL     1      -8.725   2.243 124.019  0.00  0.00    +0.000 A 
ATOM     19  C   UNL     1      -8.131   2.192 122.755  0.00  0.00    +0.000 A 
ATOM     20  C   UNL     1      -7.150   3.073 122.268  0.00  0.00    +0.000 A 
ENDBRANCH  12  18
ENDBRANCH  11  12
ENDBRANCH   1  11
BRANCH   2  21
ATOM     21  C   UNL     1      -8.261  -0.988 127.542  0.00  0.00    +0.000 C 
BRANCH  21  22
ATOM     22  N   UNL     1      -7.658  -2.013 128.378  0.00  0.00    +0.000 N 
ATOM     23  C   UNL     1      -8.123  -3.108 129.061  0.00  0.00    +0.000 A 
ATOM     24  C   UNL     1      -7.025  -3.555 129.786  0.00  0.00    +0.000 A 
ATOM     25  N   UNL     1      -5.921  -2.928 129.353  0.00  0.00    +0.000 NA
ATOM     26  C   UNL     1      -6.464  -1.825 128.898  0.00  0.00    +0.000 A 
ENDBRANCH  21  22
ENDBRANCH   2  21
TORSDOF 6
ENDMDL
MODEL 7
REMARK VINA RESULT:      -7.8      7.627     10.250
REMARK  Name = Oxiconazole
REMARK  6 active torsions:
REMARK  status: ('A' for Active; 'I' for Inactive)
REMARK    1  A    between atoms: C_6  and  C_7
REMARK    2  A    between atoms: C_7  and  O_8
REMARK    3  A    between atoms: O_8  and  N_9
REMARK    4  A    between atoms: C_10  and  C_11
REMARK    5  A    between atoms: C_10  and  C_17
REMARK    6  A    between atoms: C_11  and  N_12
REMARK                            x       y       z     vdW  Elec       q    Type
REMARK                         _______ _______ _______ _____ _____    ______ ____
ROOT
ATOM      1  N   UNL     1      -6.450   6.013 129.936  0.00  0.00    +0.000 NA
ATOM      2  C   UNL     1      -5.303   5.613 130.492  0.00  0.00    +0.000 C 
ENDROOT
BRANCH   2   3
ATOM      3  C   UNL     1      -4.298   5.023 129.485  0.00  0.00    +0.000 A 
ATOM      4  C   UNL     1      -4.277   3.613 129.382  0.00  0.00    +0.000 A 
ATOM      5  C   UNL     1      -3.414   2.959 128.488  0.00  0.00    +0.000 A 
ATOM      6  C   UNL     1      -2.581   3.707 127.664  0.00  0.00    +0.000 A 
ATOM      7 CL   UNL     1      -1.489   2.920 126.595  0.00  0.00    +0.000 Cl
ATOM      8  C   UNL     1      -2.610   5.095 127.720  0.00  0.00    +0.000 A 
ATOM      9  C   UNL     1      -3.457   5.754 128.627  0.00  0.00    +0.000 A 
ATOM     10 CL   UNL     1      -3.291   7.473 128.642  0.00  0.00    +0.000 Cl
ENDBRANCH   2   3
BRANCH   1  11
ATOM     11  O   UNL     1      -7.171   7.100 130.545  0.00  0.00    +0.000 OA
BRANCH  11  12
ATOM     12  C   UNL     1      -8.508   6.794 131.141  0.00  0.00    +0.000 C 
BRANCH  12  18
ATOM     13 CL   UNL     1     -13.448   7.656 127.476  0.00  0.00    +0.000 Cl
ATOM     14  C   UNL     1     -12.124   7.403 128.542  0.00  0.00    +0.000 A 
ATOM     15  C   UNL     1     -12.267   7.003 129.866  0.00  0.00    +0.000 A 
ATOM     16  C   UNL     1     -11.127   6.790 130.710  0.00  0.00    +0.000 A 
ATOM     17 CL   UNL     1     -11.431   6.368 132.354  0.00  0.00    +0.000 Cl
ATOM     18  C   UNL     1      -9.827   7.084 130.296  0.00  0.00    +0.000 A 
ATOM     19  C   UNL     1      -9.869   7.834 129.118  0.00  0.00    +0.000 A 
ATOM     20  C   UNL     1     -10.883   7.789 128.145  0.00  0.00    +0.000 A 
ENDBRANCH  12  18
ENDBRANCH  11  12
ENDBRANCH   1  11
BRANCH   2  21
ATOM     21  C   UNL     1      -4.674   5.687 131.949  0.00  0.00    +0.000 C 
BRANCH  21  22
ATOM     22  N   UNL     1      -3.417   6.355 132.241  0.00  0.00    +0.000 N 
ATOM     23  C   UNL     1      -2.980   7.656 132.222  0.00  0.00    +0.000 A 
ATOM     24  C   UNL     1      -1.615   7.566 132.459  0.00  0.00    +0.000 A 
ATOM     25  N   UNL     1      -1.314   6.320 132.856  0.00  0.00    +0.000 NA
ATOM     26  C   UNL     1      -2.295   5.668 132.284  0.00  0.00    +0.000 A 
ENDBRANCH  21  22
ENDBRANCH   2  21
TORSDOF 6
ENDMDL
MODEL 8
REMARK VINA RESULT:      -7.7      2.569      4.020
REMARK  Name = Oxiconazole
REMARK  6 active torsions:
REMARK  status: ('A' for Active; 'I' for Inactive)
REMARK    1  A    between atoms: C_6  and  C_7
REMARK    2  A    between atoms: C_7  and  O_8
REMARK    3  A    between atoms: O_8  and  N_9
REMARK    4  A    between atoms: C_10  and  C_11
REMARK    5  A    between atoms: C_10  and  C_17
REMARK    6  A    between atoms: C_11  and  N_12
REMARK                            x       y       z     vdW  Elec       q    Type
REMARK                         _______ _______ _______ _____ _____    ______ ____
ROOT
ATOM      1  N   UNL     1      -5.607   0.533 125.849  0.00  0.00    +0.000 NA
ATOM      2  C   UNL     1      -5.918   1.833 125.831  0.00  0.00    +0.000 C 
ENDROOT
BRANCH   2   3
ATOM      3  C   UNL     1      -6.762   2.253 124.613  0.00  0.00    +0.000 A 
ATOM      4  C   UNL     1      -6.111   3.063 123.655  0.00  0.00    +0.000 A 
ATOM      5  C   UNL     1      -6.773   3.496 122.495  0.00  0.00    +0.000 A 
ATOM      6  C   UNL     1      -8.085   3.103 122.263  0.00  0.00    +0.000 A 
ATOM      7 CL   UNL     1      -8.923   3.660 120.869  0.00  0.00    +0.000 Cl
ATOM      8  C   UNL     1      -8.735   2.276 123.172  0.00  0.00    +0.000 A 
ATOM      9  C   UNL     1      -8.085   1.855 124.344  0.00  0.00    +0.000 A 
ATOM     10 CL   UNL     1      -9.068   0.923 125.414  0.00  0.00    +0.000 Cl
ENDBRANCH   2   3
BRANCH   1  11
ATOM     11  O   UNL     1      -5.420  -0.115 127.119  0.00  0.00    +0.000 OA
BRANCH  11  12
ATOM     12  C   UNL     1      -5.730  -1.576 127.202  0.00  0.00    +0.000 C 
BRANCH  12  18
ATOM     13 CL   UNL     1     -10.077  -3.640 123.274  0.00  0.00    +0.000 Cl
ATOM     14  C   UNL     1      -8.826  -3.090 124.316  0.00  0.00    +0.000 A 
ATOM     15  C   UNL     1      -7.475  -3.161 124.000  0.00  0.00    +0.000 A 
ATOM     16  C   UNL     1      -6.469  -2.673 124.900  0.00  0.00    +0.000 A 
ATOM     17 CL   UNL     1      -4.823  -2.882 124.432  0.00  0.00    +0.000 Cl
ATOM     18  C   UNL     1      -6.776  -2.212 126.182  0.00  0.00    +0.000 A 
ATOM     19  C   UNL     1      -8.090  -2.562 126.503  0.00  0.00    +0.000 A 
ATOM     20  C   UNL     1      -9.144  -2.741 125.590  0.00  0.00    +0.000 A 
ENDBRANCH  12  18
ENDBRANCH  11  12
ENDBRANCH   1  11
BRANCH   2  21
ATOM     21  C   UNL     1      -5.705   3.053 126.826  0.00  0.00    +0.000 C 
BRANCH  21  22
ATOM     22  N   UNL     1      -4.395   3.579 127.171  0.00  0.00    +0.000 N 
ATOM     23  C   UNL     1      -3.936   4.687 127.837  0.00  0.00    +0.000 A 
ATOM     24  C   UNL     1      -2.559   4.651 127.662  0.00  0.00    +0.000 A 
ATOM     25  N   UNL     1      -2.206   3.460 127.156  0.00  0.00    +0.000 NA
ATOM     26  C   UNL     1      -3.321   3.147 126.544  0.00  0.00    +0.000 A 
ENDBRANCH  21  22
ENDBRANCH   2  21
TORSDOF 6
ENDMDL
MODEL 9
REMARK VINA RESULT:      -7.7      8.354     10.482
REMARK  Name = Oxiconazole
REMARK  6 active torsions:
REMARK  status: ('A' for Active; 'I' for Inactive)
REMARK    1  A    between atoms: C_6  and  C_7
REMARK    2  A    between atoms: C_7  and  O_8
REMARK    3  A    between atoms: O_8  and  N_9
REMARK    4  A    between atoms: C_10  and  C_11
REMARK    5  A    between atoms: C_10  and  C_17
REMARK    6  A    between atoms: C_11  and  N_12
REMARK                            x       y       z     vdW  Elec       q    Type
REMARK                         _______ _______ _______ _____ _____    ______ ____
ROOT
ATOM      1  N   UNL     1      -7.499   5.015 128.663  0.00  0.00    +0.000 NA
ATOM      2  C   UNL     1      -6.764   4.220 129.447  0.00  0.00    +0.000 C 
ENDROOT
BRANCH   2   3
ATOM      3  C   UNL     1      -5.456   4.869 129.937  0.00  0.00    +0.000 A 
ATOM      4  C   UNL     1      -4.261   4.200 129.586  0.00  0.00    +0.000 A 
ATOM      5  C   UNL     1      -3.006   4.703 129.963  0.00  0.00    +0.000 A 
ATOM      6  C   UNL     1      -2.926   5.896 130.672  0.00  0.00    +0.000 A 
ATOM      7 CL   UNL     1      -1.400   6.503 131.178  0.00  0.00    +0.000 Cl
ATOM      8  C   UNL     1      -4.085   6.591 130.997  0.00  0.00    +0.000 A 
ATOM      9  C   UNL     1      -5.345   6.083 130.640  0.00  0.00    +0.000 A 
ATOM     10 CL   UNL     1      -6.682   7.013 131.213  0.00  0.00    +0.000 Cl
ENDBRANCH   2   3
BRANCH   1  11
ATOM     11  O   UNL     1      -8.928   4.851 128.659  0.00  0.00    +0.000 OA
BRANCH  11  12
ATOM     12  C   UNL     1      -9.690   5.403 129.822  0.00  0.00    +0.000 C 
BRANCH  12  18
ATOM     13 CL   UNL     1     -13.659  10.005 128.535  0.00  0.00    +0.000 Cl
ATOM     14  C   UNL     1     -12.584   8.731 128.956  0.00  0.00    +0.000 A 
ATOM     15  C   UNL     1     -12.538   8.147 130.216  0.00  0.00    +0.000 A 
ATOM     16  C   UNL     1     -11.632   7.076 130.512  0.00  0.00    +0.000 A 
ATOM     17 CL   UNL     1     -11.614   6.482 132.131  0.00  0.00    +0.000 Cl
ATOM     18  C   UNL     1     -10.670   6.640 129.600  0.00  0.00    +0.000 A 
ATOM     19  C   UNL     1     -10.568   7.558 128.552  0.00  0.00    +0.000 A 
ATOM     20  C   UNL     1     -11.596   8.396 128.085  0.00  0.00    +0.000 A 
ENDBRANCH  12  18
ENDBRANCH  11  12
ENDBRANCH   1  11
BRANCH   2  21
ATOM     21  C   UNL     1      -6.960   2.778 130.084  0.00  0.00    +0.000 C 
BRANCH  21  22
ATOM     22  N   UNL     1      -7.933   2.494 131.125  0.00  0.00    +0.000 N 
ATOM     23  C   UNL     1      -9.221   2.021 131.150  0.00  0.00    +0.000 A 
ATOM     24  C   UNL     1      -9.611   2.147 132.477  0.00  0.00    +0.000 A 
ATOM     25  N   UNL     1      -8.536   2.423 133.232  0.00  0.00    +0.000 NA
ATOM     26  C   UNL     1      -7.783   3.003 132.330  0.00  0.00    +0.000 A 
ENDBRANCH  21  22
ENDBRANCH   2  21
TORSDOF 6
ENDMDL
