MODEL 1
REMARK VINA RESULT:      -4.9      0.000      0.000
REMARK  Name = Oxidronic acid
REMARK  7 active torsions:
REMARK  status: ('A' for Active; 'I' for Inactive)
REMARK    1  A    between atoms: O_1  and  C_2
REMARK    2  A    between atoms: C_2  and  P_3
REMARK    3  A    between atoms: C_2  and  P_7
REMARK    4  A    between atoms: P_3  and  O_4
REMARK    5  A    between atoms: P_3  and  O_5
REMARK    6  A    between atoms: P_7  and  O_8
REMARK    7  A    between atoms: P_7  and  O_9
REMARK                            x       y       z     vdW  Elec       q    Type
REMARK                         _______ _______ _______ _____ _____    ______ ____
ROOT
ATOM      1  C   UNL     1     -11.008   6.919 128.494  0.00  0.00    +0.000 C 
ENDROOT
BRANCH   1   2
ATOM      2  O   UNL     1      -9.659   6.884 129.009  0.00  0.00    +0.000 OA
ATOM      3  H   UNL     1      -9.399   5.940 128.931  0.00  0.00    +0.000 HD
ENDBRANCH   1   2
BRANCH   1   4
ATOM      4  P   UNL     1     -12.007   8.065 129.512  0.00  0.00    +0.000 P 
ATOM      5  O   UNL     1     -12.851   9.036 130.373  0.00  0.00    +0.000 OA
BRANCH   4   6
ATOM      6  O   UNL     1     -12.161   8.990 128.140  0.00  0.00    +0.000 OA
ATOM      7  H   UNL     1     -12.553   8.405 127.443  0.00  0.00    +0.000 HD
ENDBRANCH   4   6
BRANCH   4   8
ATOM      8  O   UNL     1     -13.263   7.072 129.062  0.00  0.00    +0.000 OA
ATOM      9  H   UNL     1     -13.727   7.530 128.326  0.00  0.00    +0.000 HD
ENDBRANCH   4   8
ENDBRANCH   1   4
BRANCH   1  10
ATOM     10  P   UNL     1     -10.944   7.533 126.770  0.00  0.00    +0.000 P 
ATOM     11  O   UNL     1     -10.889   8.051 125.312  0.00  0.00    +0.000 OA
BRANCH  10  12
ATOM     12  O   UNL     1      -9.769   6.404 126.512  0.00  0.00    +0.000 OA
ATOM     13  H   UNL     1     -10.127   5.500 126.362  0.00  0.00    +0.000 HD
ENDBRANCH  10  12
BRANCH  10  14
ATOM     14  O   UNL     1     -12.239   6.586 126.397  0.00  0.00    +0.000 OA
ATOM     15  H   UNL     1     -11.965   5.897 125.739  0.00  0.00    +0.000 HD
ENDBRANCH  10  14
ENDBRANCH   1  10
TORSDOF 7
ENDMDL
MODEL 2
REMARK VINA RESULT:      -4.7      0.769      3.641
REMARK  Name = Oxidronic acid
REMARK  7 active torsions:
REMARK  status: ('A' for Active; 'I' for Inactive)
REMARK    1  A    between atoms: O_1  and  C_2
REMARK    2  A    between atoms: C_2  and  P_3
REMARK    3  A    between atoms: C_2  and  P_7
REMARK    4  A    between atoms: P_3  and  O_4
REMARK    5  A    between atoms: P_3  and  O_5
REMARK    6  A    between atoms: P_7  and  O_8
REMARK    7  A    between atoms: P_7  and  O_9
REMARK                            x       y       z     vdW  Elec       q    Type
REMARK                         _______ _______ _______ _____ _____    ______ ____
ROOT
ATOM      1  C   UNL     1     -11.126   7.134 128.704  0.00  0.00    +0.000 C 
ENDROOT
BRANCH   1   2
ATOM      2  O   UNL     1     -11.787   5.852 128.785  0.00  0.00    +0.000 OA
ATOM      3  H   UNL     1     -12.724   6.054 128.568  0.00  0.00    +0.000 HD
ENDBRANCH   1   2
BRANCH   1   4
ATOM      4  P   UNL     1     -10.959   7.609 126.944  0.00  0.00    +0.000 P 
ATOM      5  O   UNL     1     -10.817   8.012 125.456  0.00  0.00    +0.000 OA
BRANCH   4   6
ATOM      6  O   UNL     1      -9.803   6.420 126.837  0.00  0.00    +0.000 OA
ATOM      7  H   UNL     1     -10.250   5.566 127.066  0.00  0.00    +0.000 HD
ENDBRANCH   4   6
BRANCH   4   8
ATOM      8  O   UNL     1     -12.195   6.518 126.727  0.00  0.00    +0.000 OA
ATOM      9  H   UNL     1     -13.031   7.032 126.792  0.00  0.00    +0.000 HD
ENDBRANCH   4   8
ENDBRANCH   1   4
BRANCH   1  10
ATOM     10  P   UNL     1     -12.164   8.366 129.573  0.00  0.00    +0.000 P 
ATOM     11  O   UNL     1     -13.043   9.409 130.307  0.00  0.00    +0.000 OA
BRANCH  10  12
ATOM     12  O   UNL     1     -12.236   9.178 128.139  0.00  0.00    +0.000 OA
ATOM     13  H   UNL     1     -12.284  10.155 128.249  0.00  0.00    +0.000 HD
ENDBRANCH  10  12
BRANCH  10  14
ATOM     14  O   UNL     1     -13.480   7.403 129.343  0.00  0.00    +0.000 OA
ATOM     15  H   UNL     1     -14.099   7.839 128.704  0.00  0.00    +0.000 HD
ENDBRANCH  10  14
ENDBRANCH   1  10
TORSDOF 7
ENDMDL
MODEL 3
REMARK VINA RESULT:      -4.3      1.136      2.009
REMARK  Name = Oxidronic acid
REMARK  7 active torsions:
REMARK  status: ('A' for Active; 'I' for Inactive)
REMARK    1  A    between atoms: O_1  and  C_2
REMARK    2  A    between atoms: C_2  and  P_3
REMARK    3  A    between atoms: C_2  and  P_7
REMARK    4  A    between atoms: P_3  and  O_4
REMARK    5  A    between atoms: P_3  and  O_5
REMARK    6  A    between atoms: P_7  and  O_8
REMARK    7  A    between atoms: P_7  and  O_9
REMARK                            x       y       z     vdW  Elec       q    Type
REMARK                         _______ _______ _______ _____ _____    ______ ____
ROOT
ATOM      1  C   UNL     1     -11.957   8.331 128.201  0.00  0.00    +0.000 C 
ENDROOT
BRANCH   1   2
ATOM      2  O   UNL     1     -13.279   8.262 127.621  0.00  0.00    +0.000 OA
ATOM      3  H   UNL     1     -13.588   7.356 127.843  0.00  0.00    +0.000 HD
ENDBRANCH   1   2
BRANCH   1   4
ATOM      4  P   UNL     1     -12.007   7.622 129.887  0.00  0.00    +0.000 P 
ATOM      5  O   UNL     1     -12.049   7.023 131.315  0.00  0.00    +0.000 OA
BRANCH   4   6
ATOM      6  O   UNL     1     -12.867   8.975 130.322  0.00  0.00    +0.000 OA
ATOM      7  H   UNL     1     -13.078   9.462 129.485  0.00  0.00    +0.000 HD
ENDBRANCH   4   6
BRANCH   4   8
ATOM      8  O   UNL     1     -13.372   6.857 129.322  0.00  0.00    +0.000 OA
ATOM      9  H   UNL     1     -13.139   5.905 129.238  0.00  0.00    +0.000 HD
ENDBRANCH   4   8
ENDBRANCH   1   4
BRANCH   1  10
ATOM     10  P   UNL     1     -10.825   7.341 127.157  0.00  0.00    +0.000 P 
ATOM     11  O   UNL     1      -9.867   6.504 126.274  0.00  0.00    +0.000 OA
BRANCH  10  12
ATOM     12  O   UNL     1     -10.633   6.354 128.464  0.00  0.00    +0.000 OA
ATOM     13  H   UNL     1      -9.696   6.271 128.752  0.00  0.00    +0.000 HD
ENDBRANCH  10  12
BRANCH  10  14
ATOM     14  O   UNL     1     -12.124   6.576 126.494  0.00  0.00    +0.000 OA
ATOM     15  H   UNL     1     -12.551   7.171 125.826  0.00  0.00    +0.000 HD
ENDBRANCH  10  14
ENDBRANCH   1  10
TORSDOF 7
ENDMDL
MODEL 4
REMARK VINA RESULT:      -4.2      1.694      2.966
REMARK  Name = Oxidronic acid
REMARK  7 active torsions:
REMARK  status: ('A' for Active; 'I' for Inactive)
REMARK    1  A    between atoms: O_1  and  C_2
REMARK    2  A    between atoms: C_2  and  P_3
REMARK    3  A    between atoms: C_2  and  P_7
REMARK    4  A    between atoms: P_3  and  O_4
REMARK    5  A    between atoms: P_3  and  O_5
REMARK    6  A    between atoms: P_7  and  O_8
REMARK    7  A    between atoms: P_7  and  O_9
REMARK                            x       y       z     vdW  Elec       q    Type
REMARK                         _______ _______ _______ _____ _____    ______ ____
ROOT
ATOM      1  C   UNL     1     -10.915   7.879 129.364  0.00  0.00    +0.000 C 
ENDROOT
BRANCH   1   2
ATOM      2  O   UNL     1      -9.895   8.482 128.537  0.00  0.00    +0.000 OA
ATOM      3  H   UNL     1      -9.154   7.837 128.567  0.00  0.00    +0.000 HD
ENDBRANCH   1   2
BRANCH   1   4
ATOM      4  P   UNL     1     -12.523   7.979 128.496  0.00  0.00    +0.000 P 
ATOM      5  O   UNL     1     -13.884   8.065 127.763  0.00  0.00    +0.000 OA
BRANCH   4   6
ATOM      6  O   UNL     1     -12.443   9.620 128.747  0.00  0.00    +0.000 OA
ATOM      7  H   UNL     1     -12.981   9.813 129.557  0.00  0.00    +0.000 HD
ENDBRANCH   4   6
BRANCH   4   8
ATOM      8  O   UNL     1     -11.571   8.075 127.136  0.00  0.00    +0.000 OA
ATOM      9  H   UNL     1     -10.916   7.344 127.206  0.00  0.00    +0.000 HD
ENDBRANCH   4   8
ENDBRANCH   1   4
BRANCH   1  10
ATOM     10  P   UNL     1     -10.471   6.123 129.625  0.00  0.00    +0.000 P 
ATOM     11  O   UNL     1     -10.096   4.636 129.845  0.00  0.00    +0.000 OA
BRANCH  10  12
ATOM     12  O   UNL     1     -11.963   5.754 129.024  0.00  0.00    +0.000 OA
ATOM     13  H   UNL     1     -12.297   6.421 128.382  0.00  0.00    +0.000 HD
ENDBRANCH  10  12
BRANCH  10  14
ATOM     14  O   UNL     1      -9.656   6.128 128.194  0.00  0.00    +0.000 OA
ATOM     15  H   UNL     1     -10.305   6.114 127.445  0.00  0.00    +0.000 HD
ENDBRANCH  10  14
ENDBRANCH   1  10
TORSDOF 7
ENDMDL
MODEL 5
REMARK VINA RESULT:      -4.2      1.992      2.913
REMARK  Name = Oxidronic acid
REMARK  7 active torsions:
REMARK  status: ('A' for Active; 'I' for Inactive)
REMARK    1  A    between atoms: O_1  and  C_2
REMARK    2  A    between atoms: C_2  and  P_3
REMARK    3  A    between atoms: C_2  and  P_7
REMARK    4  A    between atoms: P_3  and  O_4
REMARK    5  A    between atoms: P_3  and  O_5
REMARK    6  A    between atoms: P_7  and  O_8
REMARK    7  A    between atoms: P_7  and  O_9
REMARK                            x       y       z     vdW  Elec       q    Type
REMARK                         _______ _______ _______ _____ _____    ______ ____
ROOT
ATOM      1  C   UNL     1     -12.006   7.487 129.826  0.00  0.00    +0.000 C 
ENDROOT
BRANCH   1   2
ATOM      2  O   UNL     1     -13.314   6.915 129.601  0.00  0.00    +0.000 OA
ATOM      3  H   UNL     1     -13.873   7.688 129.362  0.00  0.00    +0.000 HD
ENDBRANCH   1   2
BRANCH   1   4
ATOM      4  P   UNL     1     -10.938   6.238 130.630  0.00  0.00    +0.000 P 
ATOM      5  O   UNL     1     -10.034   5.182 131.312  0.00  0.00    +0.000 OA
BRANCH   4   6
ATOM      6  O   UNL     1     -12.081   6.184 131.836  0.00  0.00    +0.000 OA
ATOM      7  H   UNL     1     -12.891   6.632 131.482  0.00  0.00    +0.000 HD
ENDBRANCH   4   6
BRANCH   4   8
ATOM      8  O   UNL     1     -11.792   5.171 129.683  0.00  0.00    +0.000 OA
ATOM      9  H   UNL     1     -11.501   5.330 128.757  0.00  0.00    +0.000 HD
ENDBRANCH   4   8
ENDBRANCH   1   4
BRANCH   1  10
ATOM     10  P   UNL     1     -11.297   7.940 128.200  0.00  0.00    +0.000 P 
ATOM     11  O   UNL     1     -10.696   8.323 126.825  0.00  0.00    +0.000 OA
BRANCH  10  12
ATOM     12  O   UNL     1      -9.976   7.052 128.634  0.00  0.00    +0.000 OA
ATOM     13  H   UNL     1     -10.153   6.084 128.662  0.00  0.00    +0.000 HD
ENDBRANCH  10  12
BRANCH  10  14
ATOM     14  O   UNL     1     -12.157   6.723 127.499  0.00  0.00    +0.000 OA
ATOM     15  H   UNL     1     -12.797   7.107 126.846  0.00  0.00    +0.000 HD
ENDBRANCH  10  14
ENDBRANCH   1  10
TORSDOF 7
ENDMDL
MODEL 6
REMARK VINA RESULT:      -4.2      1.295      3.873
REMARK  Name = Oxidronic acid
REMARK  7 active torsions:
REMARK  status: ('A' for Active; 'I' for Inactive)
REMARK    1  A    between atoms: O_1  and  C_2
REMARK    2  A    between atoms: C_2  and  P_3
REMARK    3  A    between atoms: C_2  and  P_7
REMARK    4  A    between atoms: P_3  and  O_4
REMARK    5  A    between atoms: P_3  and  O_5
REMARK    6  A    between atoms: P_7  and  O_8
REMARK    7  A    between atoms: P_7  and  O_9
REMARK                            x       y       z     vdW  Elec       q    Type
REMARK                         _______ _______ _______ _____ _____    ______ ____
ROOT
ATOM      1  C   UNL     1     -11.970   7.187 128.343  0.00  0.00    +0.000 C 
ENDROOT
BRANCH   1   2
ATOM      2  O   UNL     1     -12.880   8.220 128.780  0.00  0.00    +0.000 OA
ATOM      3  H   UNL     1     -13.767   7.806 128.696  0.00  0.00    +0.000 HD
ENDBRANCH   1   2
BRANCH   1   4
ATOM      4  P   UNL     1     -11.249   7.669 126.731  0.00  0.00    +0.000 P 
ATOM      5  O   UNL     1     -10.637   8.077 125.369  0.00  0.00    +0.000 OA
BRANCH   4   6
ATOM      6  O   UNL     1     -10.011   6.618 127.085  0.00  0.00    +0.000 OA
ATOM      7  H   UNL     1     -10.310   5.717 126.799  0.00  0.00    +0.000 HD
ENDBRANCH   4   6
BRANCH   4   8
ATOM      8  O   UNL     1     -12.210   6.444 126.147  0.00  0.00    +0.000 OA
ATOM      9  H   UNL     1     -13.129   6.791 126.146  0.00  0.00    +0.000 HD
ENDBRANCH   4   8
ENDBRANCH   1   4
BRANCH   1  10
ATOM     10  P   UNL     1     -10.636   7.039 129.588  0.00  0.00    +0.000 P 
ATOM     11  O   UNL     1      -9.509   6.913 130.643  0.00  0.00    +0.000 OA
BRANCH  10  12
ATOM     12  O   UNL     1     -11.792   7.342 130.725  0.00  0.00    +0.000 OA
ATOM     13  H   UNL     1     -12.416   6.591 130.853  0.00  0.00    +0.000 HD
ENDBRANCH  10  12
BRANCH  10  14
ATOM     14  O   UNL     1     -10.796   5.400 129.547  0.00  0.00    +0.000 OA
ATOM     15  H   UNL     1     -10.696   5.083 128.613  0.00  0.00    +0.000 HD
ENDBRANCH  10  14
ENDBRANCH   1  10
TORSDOF 7
ENDMDL
MODEL 7
REMARK VINA RESULT:      -4.1      1.822      3.328
REMARK  Name = Oxidronic acid
REMARK  7 active torsions:
REMARK  status: ('A' for Active; 'I' for Inactive)
REMARK    1  A    between atoms: O_1  and  C_2
REMARK    2  A    between atoms: C_2  and  P_3
REMARK    3  A    between atoms: C_2  and  P_7
REMARK    4  A    between atoms: P_3  and  O_4
REMARK    5  A    between atoms: P_3  and  O_5
REMARK    6  A    between atoms: P_7  and  O_8
REMARK    7  A    between atoms: P_7  and  O_9
REMARK                            x       y       z     vdW  Elec       q    Type
REMARK                         _______ _______ _______ _____ _____    ______ ____
ROOT
ATOM      1  C   UNL     1     -10.553   7.441 128.098  0.00  0.00    +0.000 C 
ENDROOT
BRANCH   1   2
ATOM      2  O   UNL     1      -9.934   6.538 127.155  0.00  0.00    +0.000 OA
ATOM      3  H   UNL     1      -9.217   6.110 127.672  0.00  0.00    +0.000 HD
ENDBRANCH   1   2
BRANCH   1   4
ATOM      4  P   UNL     1     -12.360   7.466 127.804  0.00  0.00    +0.000 P 
ATOM      5  O   UNL     1     -13.887   7.487 127.554  0.00  0.00    +0.000 OA
BRANCH   4   6
ATOM      6  O   UNL     1     -12.048   6.574 126.437  0.00  0.00    +0.000 OA
ATOM      7  H   UNL     1     -12.669   5.802 126.451  0.00  0.00    +0.000 HD
ENDBRANCH   4   6
BRANCH   4   8
ATOM      8  O   UNL     1     -12.346   6.112 128.769  0.00  0.00    +0.000 OA
ATOM      9  H   UNL     1     -11.823   6.348 129.568  0.00  0.00    +0.000 HD
ENDBRANCH   4   8
ENDBRANCH   1   4
BRANCH   1  10
ATOM     10  P   UNL     1     -10.218   6.818 129.786  0.00  0.00    +0.000 P 
ATOM     11  O   UNL     1      -9.934   6.291 131.215  0.00  0.00    +0.000 OA
BRANCH  10  12
ATOM     12  O   UNL     1      -9.584   5.478 129.065  0.00  0.00    +0.000 OA
ATOM     13  H   UNL     1      -8.746   5.174 129.482  0.00  0.00    +0.000 HD
ENDBRANCH  10  12
BRANCH  10  14
ATOM     14  O   UNL     1      -8.838   7.716 129.831  0.00  0.00    +0.000 OA
ATOM     15  H   UNL     1      -8.335   7.505 130.659  0.00  0.00    +0.000 HD
ENDBRANCH  10  14
ENDBRANCH   1  10
TORSDOF 7
ENDMDL
MODEL 8
REMARK VINA RESULT:      -4.1      2.414      4.267
REMARK  Name = Oxidronic acid
REMARK  7 active torsions:
REMARK  status: ('A' for Active; 'I' for Inactive)
REMARK    1  A    between atoms: O_1  and  C_2
REMARK    2  A    between atoms: C_2  and  P_3
REMARK    3  A    between atoms: C_2  and  P_7
REMARK    4  A    between atoms: P_3  and  O_4
REMARK    5  A    between atoms: P_3  and  O_5
REMARK    6  A    between atoms: P_7  and  O_8
REMARK    7  A    between atoms: P_7  and  O_9
REMARK                            x       y       z     vdW  Elec       q    Type
REMARK                         _______ _______ _______ _____ _____    ______ ____
ROOT
ATOM      1  C   UNL     1     -10.873   6.661 131.067  0.00  0.00    +0.000 C 
ENDROOT
BRANCH   1   2
ATOM      2  O   UNL     1     -11.220   5.717 132.105  0.00  0.00    +0.000 OA
ATOM      3  H   UNL     1     -10.477   5.783 132.744  0.00  0.00    +0.000 HD
ENDBRANCH   1   2
BRANCH   1   4
ATOM      4  P   UNL     1      -9.492   5.981 130.078  0.00  0.00    +0.000 P 
ATOM      5  O   UNL     1      -8.324   5.405 129.241  0.00  0.00    +0.000 OA
BRANCH   4   6
ATOM      6  O   UNL     1     -10.524   6.045 128.778  0.00  0.00    +0.000 OA
ATOM      7  H   UNL     1     -11.339   5.542 129.034  0.00  0.00    +0.000 HD
ENDBRANCH   4   6
BRANCH   4   8
ATOM      8  O   UNL     1      -9.073   7.582 129.908  0.00  0.00    +0.000 OA
ATOM      9  H   UNL     1      -9.278   7.823 128.977  0.00  0.00    +0.000 HD
ENDBRANCH   4   8
ENDBRANCH   1   4
BRANCH   1  10
ATOM     10  P   UNL     1     -12.338   6.890 129.993  0.00  0.00    +0.000 P 
ATOM     11  O   UNL     1     -13.577   7.084 129.085  0.00  0.00    +0.000 OA
BRANCH  10  12
ATOM     12  O   UNL     1     -13.195   7.154 131.377  0.00  0.00    +0.000 OA
ATOM     13  H   UNL     1     -14.168   7.080 131.250  0.00  0.00    +0.000 HD
ENDBRANCH  10  12
BRANCH  10  14
ATOM     14  O   UNL     1     -11.880   8.448 129.720  0.00  0.00    +0.000 OA
ATOM     15  H   UNL     1     -12.436   9.056 130.272  0.00  0.00    +0.000 HD
ENDBRANCH  10  14
ENDBRANCH   1  10
TORSDOF 7
ENDMDL
MODEL 9
REMARK VINA RESULT:      -4.0      2.620      3.441
REMARK  Name = Oxidronic acid
REMARK  7 active torsions:
REMARK  status: ('A' for Active; 'I' for Inactive)
REMARK    1  A    between atoms: O_1  and  C_2
REMARK    2  A    between atoms: C_2  and  P_3
REMARK    3  A    between atoms: C_2  and  P_7
REMARK    4  A    between atoms: P_3  and  O_4
REMARK    5  A    between atoms: P_3  and  O_5
REMARK    6  A    between atoms: P_7  and  O_8
REMARK    7  A    between atoms: P_7  and  O_9
REMARK                            x       y       z     vdW  Elec       q    Type
REMARK                         _______ _______ _______ _____ _____    ______ ____
ROOT
ATOM      1  C   UNL     1     -10.819   5.794 129.872  0.00  0.00    +0.000 C 
ENDROOT
BRANCH   1   2
ATOM      2  O   UNL     1      -9.923   4.789 129.346  0.00  0.00    +0.000 OA
ATOM      3  H   UNL     1      -9.959   4.068 130.013  0.00  0.00    +0.000 HD
ENDBRANCH   1   2
BRANCH   1   4
ATOM      4  P   UNL     1     -10.383   6.128 131.618  0.00  0.00    +0.000 P 
ATOM      5  O   UNL     1     -10.015   6.411 133.094  0.00  0.00    +0.000 OA
BRANCH   4   6
ATOM      6  O   UNL     1     -12.017   6.134 131.919  0.00  0.00    +0.000 OA
ATOM      7  H   UNL     1     -12.130   6.349 132.880  0.00  0.00    +0.000 HD
ENDBRANCH   4   6
BRANCH   4   8
ATOM      8  O   UNL     1     -10.305   4.470 131.719  0.00  0.00    +0.000 OA
ATOM      9  H   UNL     1     -10.384   4.133 130.798  0.00  0.00    +0.000 HD
ENDBRANCH   4   8
ENDBRANCH   1   4
BRANCH   1  10
ATOM     10  P   UNL     1     -10.601   7.321 128.886  0.00  0.00    +0.000 P 
ATOM     11  O   UNL     1     -10.416   8.613 128.052  0.00  0.00    +0.000 OA
BRANCH  10  12
ATOM     12  O   UNL     1      -9.253   7.603 129.794  0.00  0.00    +0.000 OA
ATOM     13  H   UNL     1      -9.223   7.067 130.619  0.00  0.00    +0.000 HD
ENDBRANCH  10  12
BRANCH  10  14
ATOM     14  O   UNL     1      -9.881   6.437 127.697  0.00  0.00    +0.000 OA
ATOM     15  H   UNL     1     -10.103   6.831 126.815  0.00  0.00    +0.000 HD
ENDBRANCH  10  14
ENDBRANCH   1  10
TORSDOF 7
ENDMDL
