MODEL 1
REMARK VINA RESULT:      -5.8      0.000      0.000
REMARK  Name = Oxilofrine
REMARK  7 active torsions:
REMARK  status: ('A' for Active; 'I' for Inactive)
REMARK    1  A    between atoms: C_2  and  C_3
REMARK    2  A    between atoms: C_2  and  N_4
REMARK    3  A    between atoms: C_2  and  C_6
REMARK    4  A    between atoms: N_4  and  C_5
REMARK    5  A    between atoms: C_6  and  O_8
REMARK    6  A    between atoms: C_6  and  C_9
REMARK    7  A    between atoms: C_12  and  O_13
REMARK                            x       y       z     vdW  Elec       q    Type
REMARK                         _______ _______ _______ _____ _____    ______ ____
ROOT
ATOM      1  C   UNL     1     -11.683   8.613 128.838  0.00  0.00    +0.000 C 
ENDROOT
BRANCH   1   2
ATOM      2  C   UNL     1     -11.238   7.692 129.961  0.00  0.00    +0.000 A 
ATOM      3  C   UNL     1      -9.888   7.315 130.058  0.00  0.00    +0.000 A 
ATOM      4  C   UNL     1      -9.447   6.482 131.093  0.00  0.00    +0.000 A 
ATOM      5  C   UNL     1     -10.361   6.035 132.045  0.00  0.00    +0.000 A 
ATOM      6  C   UNL     1     -11.694   6.376 131.959  0.00  0.00    +0.000 A 
ATOM      7  C   UNL     1     -12.137   7.175 130.909  0.00  0.00    +0.000 A 
BRANCH   5   8
ATOM      8  O   UNL     1      -9.987   5.241 133.088  0.00  0.00    +0.000 OA
ATOM      9  H   UNL     1     -10.515   4.430 133.066  0.00  0.00    +0.000 HD
ENDBRANCH   5   8
ENDBRANCH   1   2
BRANCH   1  10
ATOM     10  C   UNL     1     -13.237   8.849 128.716  0.00  0.00    +0.000 C 
ATOM     11  C   UNL     1     -13.833   8.006 127.584  0.00  0.00    +0.000 C 
BRANCH  10  12
ATOM     12  N   UNL     1     -13.541  10.293 128.581  0.00  0.00    +0.000 NA
ATOM     13  C   UNL     1     -13.514  10.986 129.863  0.00  0.00    +0.000 C 
ATOM     14  H   UNL     1     -14.453  10.411 128.143  0.00  0.00    +0.000 HD
ENDBRANCH  10  12
ENDBRANCH   1  10
BRANCH   1  15
ATOM     15  O   UNL     1     -11.136   8.121 127.606  0.00  0.00    +0.000 OA
ATOM     16  H   UNL     1     -10.173   8.228 127.647  0.00  0.00    +0.000 HD
ENDBRANCH   1  15
TORSDOF 5
ENDMDL
MODEL 2
REMARK VINA RESULT:      -5.6      2.705      5.285
REMARK  Name = Oxilofrine
REMARK  7 active torsions:
REMARK  status: ('A' for Active; 'I' for Inactive)
REMARK    1  A    between atoms: C_2  and  C_3
REMARK    2  A    between atoms: C_2  and  N_4
REMARK    3  A    between atoms: C_2  and  C_6
REMARK    4  A    between atoms: N_4  and  C_5
REMARK    5  A    between atoms: C_6  and  O_8
REMARK    6  A    between atoms: C_6  and  C_9
REMARK    7  A    between atoms: C_12  and  O_13
REMARK                            x       y       z     vdW  Elec       q    Type
REMARK                         _______ _______ _______ _____ _____    ______ ____
ROOT
ATOM      1  C   UNL     1     -11.845   7.162 131.065  0.00  0.00    +0.000 C 
ENDROOT
BRANCH   1   2
ATOM      2  C   UNL     1     -11.939   7.169 129.549  0.00  0.00    +0.000 A 
ATOM      3  C   UNL     1     -13.172   6.909 128.927  0.00  0.00    +0.000 A 
ATOM      4  C   UNL     1     -13.289   6.926 127.532  0.00  0.00    +0.000 A 
ATOM      5  C   UNL     1     -12.171   7.219 126.756  0.00  0.00    +0.000 A 
ATOM      6  C   UNL     1     -10.946   7.458 127.343  0.00  0.00    +0.000 A 
ATOM      7  C   UNL     1     -10.822   7.405 128.729  0.00  0.00    +0.000 A 
BRANCH   5   8
ATOM      8  O   UNL     1     -12.229   7.273 125.395  0.00  0.00    +0.000 OA
ATOM      9  H   UNL     1     -12.635   6.457 125.069  0.00  0.00    +0.000 HD
ENDBRANCH   5   8
ENDBRANCH   1   2
BRANCH   1  10
ATOM     10  C   UNL     1     -11.009   5.985 131.698  0.00  0.00    +0.000 C 
ATOM     11  C   UNL     1      -9.524   6.353 131.787  0.00  0.00    +0.000 C 
BRANCH  10  12
ATOM     12  N   UNL     1     -11.248   4.718 130.967  0.00  0.00    +0.000 NA
ATOM     13  C   UNL     1     -10.006   4.070 130.565  0.00  0.00    +0.000 C 
ATOM     14  H   UNL     1     -11.825   4.900 130.148  0.00  0.00    +0.000 HD
ENDBRANCH  10  12
ENDBRANCH   1  10
BRANCH   1  15
ATOM     15  O   UNL     1     -13.175   7.199 131.601  0.00  0.00    +0.000 OA
ATOM     16  H   UNL     1     -13.104   7.300 132.563  0.00  0.00    +0.000 HD
ENDBRANCH   1  15
TORSDOF 5
ENDMDL
MODEL 3
REMARK VINA RESULT:      -5.4      2.748      5.248
REMARK  Name = Oxilofrine
REMARK  7 active torsions:
REMARK  status: ('A' for Active; 'I' for Inactive)
REMARK    1  A    between atoms: C_2  and  C_3
REMARK    2  A    between atoms: C_2  and  N_4
REMARK    3  A    between atoms: C_2  and  C_6
REMARK    4  A    between atoms: N_4  and  C_5
REMARK    5  A    between atoms: C_6  and  O_8
REMARK    6  A    between atoms: C_6  and  C_9
REMARK    7  A    between atoms: C_12  and  O_13
REMARK                            x       y       z     vdW  Elec       q    Type
REMARK                         _______ _______ _______ _____ _____    ______ ____
ROOT
ATOM      1  C   UNL     1     -11.301   5.871 130.936  0.00  0.00    +0.000 C 
ENDROOT
BRANCH   1   2
ATOM      2  C   UNL     1     -11.877   7.134 130.318  0.00  0.00    +0.000 A 
ATOM      3  C   UNL     1     -11.593   7.446 128.978  0.00  0.00    +0.000 A 
ATOM      4  C   UNL     1     -12.125   8.594 128.380  0.00  0.00    +0.000 A 
ATOM      5  C   UNL     1     -12.957   9.428 129.123  0.00  0.00    +0.000 A 
ATOM      6  C   UNL     1     -13.234   9.153 130.446  0.00  0.00    +0.000 A 
ATOM      7  C   UNL     1     -12.675   8.030 131.050  0.00  0.00    +0.000 A 
BRANCH   5   8
ATOM      8  O   UNL     1     -13.524  10.547 128.588  0.00  0.00    +0.000 OA
ATOM      9  H   UNL     1     -14.069  10.288 127.831  0.00  0.00    +0.000 HD
ENDBRANCH   5   8
ENDBRANCH   1   2
BRANCH   1  10
ATOM     10  C   UNL     1     -10.254   6.086 132.095  0.00  0.00    +0.000 C 
ATOM     11  C   UNL     1      -8.863   6.390 131.528  0.00  0.00    +0.000 C 
BRANCH  10  12
ATOM     12  N   UNL     1     -10.259   4.935 133.028  0.00  0.00    +0.000 NA
ATOM     13  C   UNL     1      -9.075   4.099 132.880  0.00  0.00    +0.000 C 
ATOM     14  H   UNL     1     -11.098   4.377 132.878  0.00  0.00    +0.000 HD
ENDBRANCH  10  12
ENDBRANCH   1  10
BRANCH   1  15
ATOM     15  O   UNL     1     -10.751   5.065 129.884  0.00  0.00    +0.000 OA
ATOM     16  H   UNL     1      -9.893   5.446 129.637  0.00  0.00    +0.000 HD
ENDBRANCH   1  15
TORSDOF 5
ENDMDL
MODEL 4
REMARK VINA RESULT:      -5.4      1.747      2.671
REMARK  Name = Oxilofrine
REMARK  7 active torsions:
REMARK  status: ('A' for Active; 'I' for Inactive)
REMARK    1  A    between atoms: C_2  and  C_3
REMARK    2  A    between atoms: C_2  and  N_4
REMARK    3  A    between atoms: C_2  and  C_6
REMARK    4  A    between atoms: N_4  and  C_5
REMARK    5  A    between atoms: C_6  and  O_8
REMARK    6  A    between atoms: C_6  and  C_9
REMARK    7  A    between atoms: C_12  and  O_13
REMARK                            x       y       z     vdW  Elec       q    Type
REMARK                         _______ _______ _______ _____ _____    ______ ____
ROOT
ATOM      1  C   UNL     1     -11.821   7.229 129.412  0.00  0.00    +0.000 C 
ENDROOT
BRANCH   1   2
ATOM      2  C   UNL     1     -10.741   6.873 130.419  0.00  0.00    +0.000 A 
ATOM      3  C   UNL     1     -11.096   6.272 131.638  0.00  0.00    +0.000 A 
ATOM      4  C   UNL     1     -10.119   5.918 132.577  0.00  0.00    +0.000 A 
ATOM      5  C   UNL     1      -8.778   6.154 132.287  0.00  0.00    +0.000 A 
ATOM      6  C   UNL     1      -8.406   6.760 131.105  0.00  0.00    +0.000 A 
ATOM      7  C   UNL     1      -9.381   7.144 130.189  0.00  0.00    +0.000 A 
BRANCH   5   8
ATOM      8  O   UNL     1      -7.780   5.810 133.151  0.00  0.00    +0.000 OA
ATOM      9  H   UNL     1      -8.134   5.819 134.052  0.00  0.00    +0.000 HD
ENDBRANCH   5   8
ENDBRANCH   1   2
BRANCH   1  10
ATOM     10  C   UNL     1     -11.744   8.681 128.804  0.00  0.00    +0.000 C 
ATOM     11  C   UNL     1     -13.140   9.303 128.691  0.00  0.00    +0.000 C 
BRANCH  10  12
ATOM     12  N   UNL     1     -11.009   8.675 127.517  0.00  0.00    +0.000 NA
ATOM     13  C   UNL     1     -11.299   7.489 126.721  0.00  0.00    +0.000 C 
ATOM     14  H   UNL     1     -10.008   8.737 127.695  0.00  0.00    +0.000 HD
ENDBRANCH  10  12
ENDBRANCH   1  10
BRANCH   1  15
ATOM     15  O   UNL     1     -13.099   6.987 130.016  0.00  0.00    +0.000 OA
ATOM     16  H   UNL     1     -13.117   6.062 130.310  0.00  0.00    +0.000 HD
ENDBRANCH   1  15
TORSDOF 5
ENDMDL
MODEL 5
REMARK VINA RESULT:      -5.1      2.259      3.275
REMARK  Name = Oxilofrine
REMARK  7 active torsions:
REMARK  status: ('A' for Active; 'I' for Inactive)
REMARK    1  A    between atoms: C_2  and  C_3
REMARK    2  A    between atoms: C_2  and  N_4
REMARK    3  A    between atoms: C_2  and  C_6
REMARK    4  A    between atoms: N_4  and  C_5
REMARK    5  A    between atoms: C_6  and  O_8
REMARK    6  A    between atoms: C_6  and  C_9
REMARK    7  A    between atoms: C_12  and  O_13
REMARK                            x       y       z     vdW  Elec       q    Type
REMARK                         _______ _______ _______ _____ _____    ______ ____
ROOT
ATOM      1  C   UNL     1     -11.450   6.232 130.827  0.00  0.00    +0.000 C 
ENDROOT
BRANCH   1   2
ATOM      2  C   UNL     1     -10.024   6.192 131.348  0.00  0.00    +0.000 A 
ATOM      3  C   UNL     1      -8.997   6.811 130.615  0.00  0.00    +0.000 A 
ATOM      4  C   UNL     1      -7.677   6.803 131.081  0.00  0.00    +0.000 A 
ATOM      5  C   UNL     1      -7.385   6.184 132.294  0.00  0.00    +0.000 A 
ATOM      6  C   UNL     1      -8.373   5.554 133.022  0.00  0.00    +0.000 A 
ATOM      7  C   UNL     1      -9.678   5.531 132.540  0.00  0.00    +0.000 A 
BRANCH   5   8
ATOM      8  O   UNL     1      -6.123   6.165 132.810  0.00  0.00    +0.000 OA
ATOM      9  H   UNL     1      -6.023   5.372 133.357  0.00  0.00    +0.000 HD
ENDBRANCH   5   8
ENDBRANCH   1   2
BRANCH   1  10
ATOM     10  C   UNL     1     -11.734   7.271 129.676  0.00  0.00    +0.000 C 
ATOM     11  C   UNL     1     -12.730   8.341 130.135  0.00  0.00    +0.000 C 
BRANCH  10  12
ATOM     12  N   UNL     1     -12.161   6.578 128.437  0.00  0.00    +0.000 NA
ATOM     13  C   UNL     1     -13.191   7.317 127.718  0.00  0.00    +0.000 C 
ATOM     14  H   UNL     1     -12.500   5.646 128.667  0.00  0.00    +0.000 HD
ENDBRANCH  10  12
ENDBRANCH   1  10
BRANCH   1  15
ATOM     15  O   UNL     1     -12.332   6.440 131.941  0.00  0.00    +0.000 OA
ATOM     16  H   UNL     1     -12.013   5.893 132.675  0.00  0.00    +0.000 HD
ENDBRANCH   1  15
TORSDOF 5
ENDMDL
MODEL 6
REMARK VINA RESULT:      -5.0      2.714      5.323
REMARK  Name = Oxilofrine
REMARK  7 active torsions:
REMARK  status: ('A' for Active; 'I' for Inactive)
REMARK    1  A    between atoms: C_2  and  C_3
REMARK    2  A    between atoms: C_2  and  N_4
REMARK    3  A    between atoms: C_2  and  C_6
REMARK    4  A    between atoms: N_4  and  C_5
REMARK    5  A    between atoms: C_6  and  O_8
REMARK    6  A    between atoms: C_6  and  C_9
REMARK    7  A    between atoms: C_12  and  O_13
REMARK                            x       y       z     vdW  Elec       q    Type
REMARK                         _______ _______ _______ _____ _____    ______ ____
ROOT
ATOM      1  C   UNL     1      -9.565   6.011 130.728  0.00  0.00    +0.000 C 
ENDROOT
BRANCH   1   2
ATOM      2  C   UNL     1     -10.542   7.015 130.140  0.00  0.00    +0.000 A 
ATOM      3  C   UNL     1     -10.193   7.728 128.981  0.00  0.00    +0.000 A 
ATOM      4  C   UNL     1     -11.081   8.646 128.408  0.00  0.00    +0.000 A 
ATOM      5  C   UNL     1     -12.331   8.841 128.990  0.00  0.00    +0.000 A 
ATOM      6  C   UNL     1     -12.689   8.166 130.138  0.00  0.00    +0.000 A 
ATOM      7  C   UNL     1     -11.791   7.280 130.727  0.00  0.00    +0.000 A 
BRANCH   5   8
ATOM      8  O   UNL     1     -13.247   9.704 128.464  0.00  0.00    +0.000 OA
ATOM      9  H   UNL     1     -14.134   9.390 128.691  0.00  0.00    +0.000 HD
ENDBRANCH   5   8
ENDBRANCH   1   2
BRANCH   1  10
ATOM     10  C   UNL     1     -10.182   4.629 131.172  0.00  0.00    +0.000 C 
ATOM     11  C   UNL     1      -9.373   4.010 132.317  0.00  0.00    +0.000 C 
BRANCH  10  12
ATOM     12  N   UNL     1     -10.325   3.720 130.010  0.00  0.00    +0.000 NA
ATOM     13  C   UNL     1      -9.108   2.964 129.746  0.00  0.00    +0.000 C 
ATOM     14  H   UNL     1     -10.585   4.259 129.185  0.00  0.00    +0.000 HD
ENDBRANCH  10  12
ENDBRANCH   1  10
BRANCH   1  15
ATOM     15  O   UNL     1      -8.870   6.640 131.814  0.00  0.00    +0.000 OA
ATOM     16  H   UNL     1      -8.096   6.095 132.025  0.00  0.00    +0.000 HD
ENDBRANCH   1  15
TORSDOF 5
ENDMDL
MODEL 7
REMARK VINA RESULT:      -5.0     10.641     11.963
REMARK  Name = Oxilofrine
REMARK  7 active torsions:
REMARK  status: ('A' for Active; 'I' for Inactive)
REMARK    1  A    between atoms: C_2  and  C_3
REMARK    2  A    between atoms: C_2  and  N_4
REMARK    3  A    between atoms: C_2  and  C_6
REMARK    4  A    between atoms: N_4  and  C_5
REMARK    5  A    between atoms: C_6  and  O_8
REMARK    6  A    between atoms: C_6  and  C_9
REMARK    7  A    between atoms: C_12  and  O_13
REMARK                            x       y       z     vdW  Elec       q    Type
REMARK                         _______ _______ _______ _____ _____    ______ ____
ROOT
ATOM      1  C   UNL     1      -8.366  -1.301 124.601  0.00  0.00    +0.000 C 
ENDROOT
BRANCH   1   2
ATOM      2  C   UNL     1      -8.385   0.045 123.897  0.00  0.00    +0.000 A 
ATOM      3  C   UNL     1      -9.594   0.545 123.384  0.00  0.00    +0.000 A 
ATOM      4  C   UNL     1      -9.642   1.791 122.746  0.00  0.00    +0.000 A 
ATOM      5  C   UNL     1      -8.478   2.546 122.633  0.00  0.00    +0.000 A 
ATOM      6  C   UNL     1      -7.276   2.067 123.112  0.00  0.00    +0.000 A 
ATOM      7  C   UNL     1      -7.222   0.813 123.714  0.00  0.00    +0.000 A 
BRANCH   5   8
ATOM      8  O   UNL     1      -8.467   3.775 122.044  0.00  0.00    +0.000 OA
ATOM      9  H   UNL     1      -8.113   4.419 122.674  0.00  0.00    +0.000 HD
ENDBRANCH   5   8
ENDBRANCH   1   2
BRANCH   1  10
ATOM     10  C   UNL     1      -8.159  -2.560 123.676  0.00  0.00    +0.000 C 
ATOM     11  C   UNL     1      -9.478  -3.312 123.470  0.00  0.00    +0.000 C 
BRANCH  10  12
ATOM     12  N   UNL     1      -7.076  -3.426 124.200  0.00  0.00    +0.000 NA
ATOM     13  C   UNL     1      -5.754  -2.954 123.809  0.00  0.00    +0.000 C 
ATOM     14  H   UNL     1      -7.214  -4.380 123.873  0.00  0.00    +0.000 HD
ENDBRANCH  10  12
ENDBRANCH   1  10
BRANCH   1  15
ATOM     15  O   UNL     1      -9.567  -1.421 125.379  0.00  0.00    +0.000 OA
ATOM     16  H   UNL     1      -9.648  -0.621 125.921  0.00  0.00    +0.000 HD
ENDBRANCH   1  15
TORSDOF 5
ENDMDL
MODEL 8
REMARK VINA RESULT:      -4.9      9.510     10.970
REMARK  Name = Oxilofrine
REMARK  7 active torsions:
REMARK  status: ('A' for Active; 'I' for Inactive)
REMARK    1  A    between atoms: C_2  and  C_3
REMARK    2  A    between atoms: C_2  and  N_4
REMARK    3  A    between atoms: C_2  and  C_6
REMARK    4  A    between atoms: N_4  and  C_5
REMARK    5  A    between atoms: C_6  and  O_8
REMARK    6  A    between atoms: C_6  and  C_9
REMARK    7  A    between atoms: C_12  and  O_13
REMARK                            x       y       z     vdW  Elec       q    Type
REMARK                         _______ _______ _______ _____ _____    ______ ____
ROOT
ATOM      1  C   UNL     1      -8.178   2.525 123.904  0.00  0.00    +0.000 C 
ENDROOT
BRANCH   1   2
ATOM      2  C   UNL     1      -7.823   3.112 122.548  0.00  0.00    +0.000 A 
ATOM      3  C   UNL     1      -6.485   3.423 122.254  0.00  0.00    +0.000 A 
ATOM      4  C   UNL     1      -6.128   3.949 121.006  0.00  0.00    +0.000 A 
ATOM      5  C   UNL     1      -7.114   4.151 120.043  0.00  0.00    +0.000 A 
ATOM      6  C   UNL     1      -8.436   3.870 120.316  0.00  0.00    +0.000 A 
ATOM      7  C   UNL     1      -8.795   3.382 121.569  0.00  0.00    +0.000 A 
BRANCH   5   8
ATOM      8  O   UNL     1      -6.824   4.637 118.802  0.00  0.00    +0.000 OA
ATOM      9  H   UNL     1      -7.068   3.972 118.143  0.00  0.00    +0.000 HD
ENDBRANCH   5   8
ENDBRANCH   1   2
BRANCH   1  10
ATOM     10  C   UNL     1      -8.892   1.120 123.880  0.00  0.00    +0.000 C 
ATOM     11  C   UNL     1     -10.350   1.238 124.336  0.00  0.00    +0.000 C 
BRANCH  10  12
ATOM     12  N   UNL     1      -8.121   0.125 124.663  0.00  0.00    +0.000 NA
ATOM     13  C   UNL     1      -6.879  -0.255 124.004  0.00  0.00    +0.000 C 
ATOM     14  H   UNL     1      -8.695  -0.701 124.824  0.00  0.00    +0.000 HD
ENDBRANCH  10  12
ENDBRANCH   1  10
BRANCH   1  15
ATOM     15  O   UNL     1      -8.959   3.491 124.623  0.00  0.00    +0.000 OA
ATOM     16  H   UNL     1      -9.191   3.102 125.481  0.00  0.00    +0.000 HD
ENDBRANCH   1  15
TORSDOF 5
ENDMDL
MODEL 9
REMARK VINA RESULT:      -4.9      9.801     10.459
REMARK  Name = Oxilofrine
REMARK  7 active torsions:
REMARK  status: ('A' for Active; 'I' for Inactive)
REMARK    1  A    between atoms: C_2  and  C_3
REMARK    2  A    between atoms: C_2  and  N_4
REMARK    3  A    between atoms: C_2  and  C_6
REMARK    4  A    between atoms: N_4  and  C_5
REMARK    5  A    between atoms: C_6  and  O_8
REMARK    6  A    between atoms: C_6  and  C_9
REMARK    7  A    between atoms: C_12  and  O_13
REMARK                            x       y       z     vdW  Elec       q    Type
REMARK                         _______ _______ _______ _____ _____    ______ ____
ROOT
ATOM      1  C   UNL     1      -9.342   1.733 123.482  0.00  0.00    +0.000 C 
ENDROOT
BRANCH   1   2
ATOM      2  C   UNL     1      -9.182   0.275 123.880  0.00  0.00    +0.000 A 
ATOM      3  C   UNL     1      -9.056  -0.066 125.237  0.00  0.00    +0.000 A 
ATOM      4  C   UNL     1      -8.925  -1.403 125.631  0.00  0.00    +0.000 A 
ATOM      5  C   UNL     1      -8.934  -2.405 124.664  0.00  0.00    +0.000 A 
ATOM      6  C   UNL     1      -9.037  -2.092 123.324  0.00  0.00    +0.000 A 
ATOM      7  C   UNL     1      -9.131  -0.760 122.931  0.00  0.00    +0.000 A 
BRANCH   5   8
ATOM      8  O   UNL     1      -8.833  -3.725 124.989  0.00  0.00    +0.000 OA
ATOM      9  H   UNL     1      -9.438  -4.230 124.427  0.00  0.00    +0.000 HD
ENDBRANCH   5   8
ENDBRANCH   1   2
BRANCH   1  10
ATOM     10  C   UNL     1      -8.114   2.383 122.738  0.00  0.00    +0.000 C 
ATOM     11  C   UNL     1      -6.882   2.426 123.648  0.00  0.00    +0.000 C 
BRANCH  10  12
ATOM     12  N   UNL     1      -8.474   3.712 122.191  0.00  0.00    +0.000 NA
ATOM     13  C   UNL     1      -8.822   3.652 120.777  0.00  0.00    +0.000 C 
ATOM     14  H   UNL     1      -7.700   4.360 122.330  0.00  0.00    +0.000 HD
ENDBRANCH  10  12
ENDBRANCH   1  10
BRANCH   1  15
ATOM     15  O   UNL     1      -9.696   2.484 124.652  0.00  0.00    +0.000 OA
ATOM     16  H   UNL     1      -9.377   1.993 125.425  0.00  0.00    +0.000 HD
ENDBRANCH   1  15
TORSDOF 5
ENDMDL
