MODEL 1
REMARK VINA RESULT:      -6.8      0.000      0.000
REMARK  Name = Oxitriptan
REMARK  6 active torsions:
REMARK  status: ('A' for Active; 'I' for Inactive)
REMARK    1  A    between atoms: N_1  and  CA_2
REMARK    2  A    between atoms: CA_2  and  C_3
REMARK    3  A    between atoms: CA_2  and  C_14
REMARK    4  A    between atoms: C_3  and  C_4
REMARK    5  A    between atoms: C_10  and  O_11
REMARK    6  A    between atoms: C_14  and  O_15
REMARK                            x       y       z     vdW  Elec       q    Type
REMARK                         _______ _______ _______ _____ _____    ______ ____
ROOT
ATOM      1  C   UNL     1     -11.544   7.582 129.901  0.00  0.00    +0.000 A 
ATOM      2  C   UNL     1     -12.571   7.046 130.655  0.00  0.00    +0.000 A 
ATOM      3  N   UNL     1     -12.024   6.345 131.699  0.00  0.00    +0.000 N 
ATOM      4  C   UNL     1     -10.650   6.399 131.636  0.00  0.00    +0.000 A 
ATOM      5  C   UNL     1     -10.323   7.153 130.509  0.00  0.00    +0.000 A 
ATOM      6  C   UNL     1      -8.966   7.360 130.194  0.00  0.00    +0.000 A 
ATOM      7  C   UNL     1      -7.992   6.799 131.017  0.00  0.00    +0.000 A 
ATOM      8  C   UNL     1      -8.335   6.062 132.142  0.00  0.00    +0.000 A 
ATOM      9  C   UNL     1      -9.677   5.853 132.482  0.00  0.00    +0.000 A 
ATOM     10  H   UNL     1     -12.549   5.860 132.415  0.00  0.00    +0.000 HD
ENDROOT
BRANCH   7  11
ATOM     11  O   UNL     1      -6.666   6.968 130.739  0.00  0.00    +0.000 OA
ATOM     12  H   UNL     1      -6.585   7.449 129.898  0.00  0.00    +0.000 HD
ENDBRANCH   7  11
BRANCH   1  13
ATOM     13  C   UNL     1     -11.648   8.463 128.690  0.00  0.00    +0.000 C 
BRANCH  13  14
ATOM     14  CA  UNL     1     -12.065   7.728 127.409  0.00  0.00    +0.000 C 
BRANCH  14  15
ATOM     15  N   UNL     1     -12.815   6.466 127.712  0.00  0.00    +0.000 NA
ATOM     16  H1  UNL     1     -12.797   6.382 128.740  0.00  0.00    +0.000 HD
ATOM     17  H2  UNL     1     -12.238   5.667 127.430  0.00  0.00    +0.000 HD
ENDBRANCH  14  15
BRANCH  14  18
ATOM     18  C   UNL     1     -10.808   7.418 126.584  0.00  0.00    +0.000 C 
ATOM     19  OXT UNL     1      -9.947   6.624 126.918  0.00  0.00    +0.000 OA
BRANCH  18  20
ATOM     20  O   UNL     1     -10.751   8.109 125.415  0.00  0.00    +0.000 OA
ATOM     21  H   UNL     1     -10.144   7.635 124.801  0.00  0.00    +0.000 HD
ENDBRANCH  18  20
ENDBRANCH  14  18
ENDBRANCH  13  14
ENDBRANCH   1  13
TORSDOF 6
ENDMDL
MODEL 2
REMARK VINA RESULT:      -6.6      1.594      1.728
REMARK  Name = Oxitriptan
REMARK  6 active torsions:
REMARK  status: ('A' for Active; 'I' for Inactive)
REMARK    1  A    between atoms: N_1  and  CA_2
REMARK    2  A    between atoms: CA_2  and  C_3
REMARK    3  A    between atoms: CA_2  and  C_14
REMARK    4  A    between atoms: C_3  and  C_4
REMARK    5  A    between atoms: C_10  and  O_11
REMARK    6  A    between atoms: C_14  and  O_15
REMARK                            x       y       z     vdW  Elec       q    Type
REMARK                         _______ _______ _______ _____ _____    ______ ____
ROOT
ATOM      1  C   UNL     1     -11.099   7.073 130.698  0.00  0.00    +0.000 A 
ATOM      2  C   UNL     1     -11.866   6.382 131.617  0.00  0.00    +0.000 A 
ATOM      3  N   UNL     1     -11.026   5.775 132.515  0.00  0.00    +0.000 N 
ATOM      4  C   UNL     1      -9.715   6.044 132.194  0.00  0.00    +0.000 A 
ATOM      5  C   UNL     1      -9.732   6.840 131.049  0.00  0.00    +0.000 A 
ATOM      6  C   UNL     1      -8.509   7.257 130.488  0.00  0.00    +0.000 A 
ATOM      7  C   UNL     1      -7.321   6.856 131.092  0.00  0.00    +0.000 A 
ATOM      8  C   UNL     1      -7.322   6.074 132.239  0.00  0.00    +0.000 A 
ATOM      9  C   UNL     1      -8.525   5.656 132.822  0.00  0.00    +0.000 A 
ATOM     10  H   UNL     1     -11.323   5.214 133.303  0.00  0.00    +0.000 HD
ENDROOT
BRANCH   7  11
ATOM     11  O   UNL     1      -6.115   7.230 130.571  0.00  0.00    +0.000 OA
ATOM     12  H   UNL     1      -6.274   7.825 129.819  0.00  0.00    +0.000 HD
ENDBRANCH   7  11
BRANCH   1  13
ATOM     13  C   UNL     1     -11.569   7.927 129.557  0.00  0.00    +0.000 C 
BRANCH  13  14
ATOM     14  CA  UNL     1     -11.294   7.332 128.169  0.00  0.00    +0.000 C 
BRANCH  14  15
ATOM     15  N   UNL     1     -10.479   8.259 127.318  0.00  0.00    +0.000 NA
ATOM     16  H1  UNL     1     -10.149   8.995 127.961  0.00  0.00    +0.000 HD
ATOM     17  H2  UNL     1     -11.113   8.787 126.710  0.00  0.00    +0.000 HD
ENDBRANCH  14  15
BRANCH  14  18
ATOM     18  C   UNL     1     -12.634   7.021 127.488  0.00  0.00    +0.000 C 
ATOM     19  OXT UNL     1     -13.719   7.134 128.029  0.00  0.00    +0.000 OA
BRANCH  18  20
ATOM     20  O   UNL     1     -12.499   6.615 126.198  0.00  0.00    +0.000 OA
ATOM     21  H   UNL     1     -13.014   7.226 125.622  0.00  0.00    +0.000 HD
ENDBRANCH  18  20
ENDBRANCH  14  18
ENDBRANCH  13  14
ENDBRANCH   1  13
TORSDOF 6
ENDMDL
MODEL 3
REMARK VINA RESULT:      -6.6      8.317     10.247
REMARK  Name = Oxitriptan
REMARK  6 active torsions:
REMARK  status: ('A' for Active; 'I' for Inactive)
REMARK    1  A    between atoms: N_1  and  CA_2
REMARK    2  A    between atoms: CA_2  and  C_3
REMARK    3  A    between atoms: CA_2  and  C_14
REMARK    4  A    between atoms: C_3  and  C_4
REMARK    5  A    between atoms: C_10  and  O_11
REMARK    6  A    between atoms: C_14  and  O_15
REMARK                            x       y       z     vdW  Elec       q    Type
REMARK                         _______ _______ _______ _____ _____    ______ ____
ROOT
ATOM      1  C   UNL     1      -7.701   3.114 123.021  0.00  0.00    +0.000 A 
ATOM      2  C   UNL     1      -6.344   3.182 123.272  0.00  0.00    +0.000 A 
ATOM      3  N   UNL     1      -5.715   3.633 122.140  0.00  0.00    +0.000 N 
ATOM      4  C   UNL     1      -6.636   3.850 121.141  0.00  0.00    +0.000 A 
ATOM      5  C   UNL     1      -7.886   3.515 121.661  0.00  0.00    +0.000 A 
ATOM      6  C   UNL     1      -9.023   3.632 120.836  0.00  0.00    +0.000 A 
ATOM      7  C   UNL     1      -8.860   4.074 119.526  0.00  0.00    +0.000 A 
ATOM      8  C   UNL     1      -7.610   4.415 119.029  0.00  0.00    +0.000 A 
ATOM      9  C   UNL     1      -6.467   4.318 119.832  0.00  0.00    +0.000 A 
ATOM     10  H   UNL     1      -4.719   3.789 122.050  0.00  0.00    +0.000 HD
ENDROOT
BRANCH   7  11
ATOM     11  O   UNL     1      -9.936   4.189 118.693  0.00  0.00    +0.000 OA
ATOM     12  H   UNL     1      -9.615   4.218 117.776  0.00  0.00    +0.000 HD
ENDBRANCH   7  11
BRANCH   1  13
ATOM     13  C   UNL     1      -8.799   2.723 123.967  0.00  0.00    +0.000 C 
BRANCH  13  14
ATOM     14  CA  UNL     1      -9.112   1.220 123.983  0.00  0.00    +0.000 C 
BRANCH  14  15
ATOM     15  N   UNL     1      -7.988   0.413 123.407  0.00  0.00    +0.000 NA
ATOM     16  H1  UNL     1      -7.212   1.080 123.284  0.00  0.00    +0.000 HD
ATOM     17  H2  UNL     1      -8.216   0.181 122.435  0.00  0.00    +0.000 HD
ENDBRANCH  14  15
BRANCH  14  18
ATOM     18  C   UNL     1     -10.406   0.974 123.194  0.00  0.00    +0.000 C 
ATOM     19  OXT UNL     1     -10.446   0.489 122.077  0.00  0.00    +0.000 OA
BRANCH  18  20
ATOM     20  O   UNL     1     -11.525   1.336 123.873  0.00  0.00    +0.000 OA
ATOM     21  H   UNL     1     -11.359   1.222 124.837  0.00  0.00    +0.000 HD
ENDBRANCH  18  20
ENDBRANCH  14  18
ENDBRANCH  13  14
ENDBRANCH   1  13
TORSDOF 6
ENDMDL
MODEL 4
REMARK VINA RESULT:      -6.5      2.452      4.285
REMARK  Name = Oxitriptan
REMARK  6 active torsions:
REMARK  status: ('A' for Active; 'I' for Inactive)
REMARK    1  A    between atoms: N_1  and  CA_2
REMARK    2  A    between atoms: CA_2  and  C_3
REMARK    3  A    between atoms: CA_2  and  C_14
REMARK    4  A    between atoms: C_3  and  C_4
REMARK    5  A    between atoms: C_10  and  O_11
REMARK    6  A    between atoms: C_14  and  O_15
REMARK                            x       y       z     vdW  Elec       q    Type
REMARK                         _______ _______ _______ _____ _____    ______ ____
ROOT
ATOM      1  C   UNL     1      -9.143   6.284 131.296  0.00  0.00    +0.000 A 
ATOM      2  C   UNL     1      -9.570   5.680 132.464  0.00  0.00    +0.000 A 
ATOM      3  N   UNL     1     -10.911   5.923 132.613  0.00  0.00    +0.000 N 
ATOM      4  C   UNL     1     -11.372   6.691 131.568  0.00  0.00    +0.000 A 
ATOM      5  C   UNL     1     -10.280   6.946 130.738  0.00  0.00    +0.000 A 
ATOM      6  C   UNL     1     -10.467   7.733 129.584  0.00  0.00    +0.000 A 
ATOM      7  C   UNL     1     -11.737   8.234 129.311  0.00  0.00    +0.000 A 
ATOM      8  C   UNL     1     -12.815   7.960 130.141  0.00  0.00    +0.000 A 
ATOM      9  C   UNL     1     -12.657   7.172 131.288  0.00  0.00    +0.000 A 
ATOM     10  H   UNL     1     -11.483   5.586 133.376  0.00  0.00    +0.000 HD
ENDROOT
BRANCH   7  11
ATOM     11  O   UNL     1     -11.956   9.010 128.208  0.00  0.00    +0.000 OA
ATOM     12  H   UNL     1     -11.098   9.321 127.875  0.00  0.00    +0.000 HD
ENDBRANCH   7  11
BRANCH   1  13
ATOM     13  C   UNL     1      -7.770   6.256 130.689  0.00  0.00    +0.000 C 
BRANCH  13  14
ATOM     14  CA  UNL     1      -7.384   4.907 130.065  0.00  0.00    +0.000 C 
BRANCH  14  15
ATOM     15  N   UNL     1      -6.088   4.991 129.318  0.00  0.00    +0.000 NA
ATOM     16  H1  UNL     1      -5.714   4.030 129.317  0.00  0.00    +0.000 HD
ATOM     17  H2  UNL     1      -5.403   5.478 129.904  0.00  0.00    +0.000 HD
ENDBRANCH  14  15
BRANCH  14  18
ATOM     18  C   UNL     1      -8.512   4.452 129.129  0.00  0.00    +0.000 C 
ATOM     19  OXT UNL     1      -9.283   3.542 129.376  0.00  0.00    +0.000 OA
BRANCH  18  20
ATOM     20  O   UNL     1      -8.587   5.182 127.985  0.00  0.00    +0.000 OA
ATOM     21  H   UNL     1      -7.675   5.439 127.717  0.00  0.00    +0.000 HD
ENDBRANCH  18  20
ENDBRANCH  14  18
ENDBRANCH  13  14
ENDBRANCH   1  13
TORSDOF 6
ENDMDL
MODEL 5
REMARK VINA RESULT:      -6.3      2.334      4.802
REMARK  Name = Oxitriptan
REMARK  6 active torsions:
REMARK  status: ('A' for Active; 'I' for Inactive)
REMARK    1  A    between atoms: N_1  and  CA_2
REMARK    2  A    between atoms: CA_2  and  C_3
REMARK    3  A    between atoms: CA_2  and  C_14
REMARK    4  A    between atoms: C_3  and  C_4
REMARK    5  A    between atoms: C_10  and  O_11
REMARK    6  A    between atoms: C_14  and  O_15
REMARK                            x       y       z     vdW  Elec       q    Type
REMARK                         _______ _______ _______ _____ _____    ______ ____
ROOT
ATOM      1  C   UNL     1     -10.902   6.764 130.719  0.00  0.00    +0.000 A 
ATOM      2  C   UNL     1     -12.002   6.823 131.554  0.00  0.00    +0.000 A 
ATOM      3  N   UNL     1     -13.111   7.091 130.793  0.00  0.00    +0.000 N 
ATOM      4  C   UNL     1     -12.755   7.225 129.470  0.00  0.00    +0.000 A 
ATOM      5  C   UNL     1     -11.374   7.043 129.399  0.00  0.00    +0.000 A 
ATOM      6  C   UNL     1     -10.735   7.141 128.147  0.00  0.00    +0.000 A 
ATOM      7  C   UNL     1     -11.503   7.422 127.020  0.00  0.00    +0.000 A 
ATOM      8  C   UNL     1     -12.879   7.588 127.107  0.00  0.00    +0.000 A 
ATOM      9  C   UNL     1     -13.538   7.485 128.338  0.00  0.00    +0.000 A 
ATOM     10  H   UNL     1     -14.055   7.176 131.147  0.00  0.00    +0.000 HD
ENDROOT
BRANCH   7  11
ATOM     11  O   UNL     1     -10.918   7.536 125.792  0.00  0.00    +0.000 OA
ATOM     12  H   UNL     1     -10.821   6.647 125.412  0.00  0.00    +0.000 HD
ENDBRANCH   7  11
BRANCH   1  13
ATOM     13  C   UNL     1      -9.480   6.451 131.084  0.00  0.00    +0.000 C 
BRANCH  13  14
ATOM     14  CA  UNL     1      -9.259   5.020 131.592  0.00  0.00    +0.000 C 
BRANCH  14  15
ATOM     15  N   UNL     1      -7.810   4.740 131.852  0.00  0.00    +0.000 NA
ATOM     16  H1  UNL     1      -7.300   5.506 131.388  0.00  0.00    +0.000 HD
ATOM     17  H2  UNL     1      -7.526   3.933 131.288  0.00  0.00    +0.000 HD
ENDBRANCH  14  15
BRANCH  14  18
ATOM     18  C   UNL     1      -9.816   4.034 130.555  0.00  0.00    +0.000 C 
ATOM     19  OXT UNL     1      -9.388   3.918 129.421  0.00  0.00    +0.000 OA
BRANCH  18  20
ATOM     20  O   UNL     1     -10.839   3.277 131.031  0.00  0.00    +0.000 OA
ATOM     21  H   UNL     1     -11.574   3.874 131.300  0.00  0.00    +0.000 HD
ENDBRANCH  18  20
ENDBRANCH  14  18
ENDBRANCH  13  14
ENDBRANCH   1  13
TORSDOF 6
ENDMDL
MODEL 6
REMARK VINA RESULT:      -6.1      2.302      5.318
REMARK  Name = Oxitriptan
REMARK  6 active torsions:
REMARK  status: ('A' for Active; 'I' for Inactive)
REMARK    1  A    between atoms: N_1  and  CA_2
REMARK    2  A    between atoms: CA_2  and  C_3
REMARK    3  A    between atoms: CA_2  and  C_14
REMARK    4  A    between atoms: C_3  and  C_4
REMARK    5  A    between atoms: C_10  and  O_11
REMARK    6  A    between atoms: C_14  and  O_15
REMARK                            x       y       z     vdW  Elec       q    Type
REMARK                         _______ _______ _______ _____ _____    ______ ____
ROOT
ATOM      1  C   UNL     1      -9.089   6.076 131.325  0.00  0.00    +0.000 A 
ATOM      2  C   UNL     1      -9.559   5.513 132.497  0.00  0.00    +0.000 A 
ATOM      3  N   UNL     1     -10.881   5.849 132.640  0.00  0.00    +0.000 N 
ATOM      4  C   UNL     1     -11.285   6.638 131.587  0.00  0.00    +0.000 A 
ATOM      5  C   UNL     1     -10.177   6.810 130.758  0.00  0.00    +0.000 A 
ATOM      6  C   UNL     1     -10.307   7.597 129.597  0.00  0.00    +0.000 A 
ATOM      7  C   UNL     1     -11.539   8.183 129.317  0.00  0.00    +0.000 A 
ATOM      8  C   UNL     1     -12.635   7.990 130.146  0.00  0.00    +0.000 A 
ATOM      9  C   UNL     1     -12.534   7.204 131.299  0.00  0.00    +0.000 A 
ATOM     10  H   UNL     1     -11.477   5.559 133.404  0.00  0.00    +0.000 HD
ENDROOT
BRANCH   7  11
ATOM     11  O   UNL     1     -11.701   8.962 128.206  0.00  0.00    +0.000 OA
ATOM     12  H   UNL     1     -11.068   8.670 127.529  0.00  0.00    +0.000 HD
ENDBRANCH   7  11
BRANCH   1  13
ATOM     13  C   UNL     1      -7.720   5.948 130.722  0.00  0.00    +0.000 C 
BRANCH  13  14
ATOM     14  CA  UNL     1      -6.655   6.833 131.382  0.00  0.00    +0.000 C 
BRANCH  14  15
ATOM     15  N   UNL     1      -5.794   7.520 130.365  0.00  0.00    +0.000 NA
ATOM     16  H1  UNL     1      -4.842   7.160 130.530  0.00  0.00    +0.000 HD
ATOM     17  H2  UNL     1      -5.692   8.503 130.633  0.00  0.00    +0.000 HD
ENDBRANCH  14  15
BRANCH  14  18
ATOM     18  C   UNL     1      -5.794   5.966 132.312  0.00  0.00    +0.000 C 
ATOM     19  OXT UNL     1      -5.852   6.000 133.528  0.00  0.00    +0.000 OA
BRANCH  18  20
ATOM     20  O   UNL     1      -4.960   5.128 131.643  0.00  0.00    +0.000 OA
ATOM     21  H   UNL     1      -4.167   4.961 132.203  0.00  0.00    +0.000 HD
ENDBRANCH  18  20
ENDBRANCH  14  18
ENDBRANCH  13  14
ENDBRANCH   1  13
TORSDOF 6
ENDMDL
MODEL 7
REMARK VINA RESULT:      -6.0      8.056      9.933
REMARK  Name = Oxitriptan
REMARK  6 active torsions:
REMARK  status: ('A' for Active; 'I' for Inactive)
REMARK    1  A    between atoms: N_1  and  CA_2
REMARK    2  A    between atoms: CA_2  and  C_3
REMARK    3  A    between atoms: CA_2  and  C_14
REMARK    4  A    between atoms: C_3  and  C_4
REMARK    5  A    between atoms: C_10  and  O_11
REMARK    6  A    between atoms: C_14  and  O_15
REMARK                            x       y       z     vdW  Elec       q    Type
REMARK                         _______ _______ _______ _____ _____    ______ ____
ROOT
ATOM      1  C   UNL     1      -5.902   3.101 124.565  0.00  0.00    +0.000 A 
ATOM      2  C   UNL     1      -6.885   2.149 124.369  0.00  0.00    +0.000 A 
ATOM      3  N   UNL     1      -7.220   2.139 123.040  0.00  0.00    +0.000 N 
ATOM      4  C   UNL     1      -6.483   3.080 122.358  0.00  0.00    +0.000 A 
ATOM      5  C   UNL     1      -5.662   3.709 123.294  0.00  0.00    +0.000 A 
ATOM      6  C   UNL     1      -4.800   4.737 122.865  0.00  0.00    +0.000 A 
ATOM      7  C   UNL     1      -4.799   5.097 121.520  0.00  0.00    +0.000 A 
ATOM      8  C   UNL     1      -5.613   4.451 120.600  0.00  0.00    +0.000 A 
ATOM      9  C   UNL     1      -6.470   3.419 120.999  0.00  0.00    +0.000 A 
ATOM     10  H   UNL     1      -7.906   1.527 122.616  0.00  0.00    +0.000 HD
ENDROOT
BRANCH   7  11
ATOM     11  O   UNL     1      -3.985   6.096 121.068  0.00  0.00    +0.000 OA
ATOM     12  H   UNL     1      -3.170   5.698 120.719  0.00  0.00    +0.000 HD
ENDBRANCH   7  11
BRANCH   1  13
ATOM     13  C   UNL     1      -5.187   3.443 125.840  0.00  0.00    +0.000 C 
BRANCH  13  14
ATOM     14  CA  UNL     1      -4.085   2.449 126.232  0.00  0.00    +0.000 C 
BRANCH  14  15
ATOM     15  N   UNL     1      -4.525   1.540 127.339  0.00  0.00    +0.000 NA
ATOM     16  H1  UNL     1      -5.483   1.254 127.089  0.00  0.00    +0.000 HD
ATOM     17  H2  UNL     1      -4.691   2.103 128.179  0.00  0.00    +0.000 HD
ENDBRANCH  14  15
BRANCH  14  18
ATOM     18  C   UNL     1      -2.834   3.234 126.649  0.00  0.00    +0.000 C 
ATOM     19  OXT UNL     1      -2.843   4.399 127.005  0.00  0.00    +0.000 OA
BRANCH  18  20
ATOM     20  O   UNL     1      -1.696   2.494 126.603  0.00  0.00    +0.000 OA
ATOM     21  H   UNL     1      -1.550   2.086 127.488  0.00  0.00    +0.000 HD
ENDBRANCH  18  20
ENDBRANCH  14  18
ENDBRANCH  13  14
ENDBRANCH   1  13
TORSDOF 6
ENDMDL
MODEL 8
REMARK VINA RESULT:      -6.0      6.936      9.095
REMARK  Name = Oxitriptan
REMARK  6 active torsions:
REMARK  status: ('A' for Active; 'I' for Inactive)
REMARK    1  A    between atoms: N_1  and  CA_2
REMARK    2  A    between atoms: CA_2  and  C_3
REMARK    3  A    between atoms: CA_2  and  C_14
REMARK    4  A    between atoms: C_3  and  C_4
REMARK    5  A    between atoms: C_10  and  O_11
REMARK    6  A    between atoms: C_14  and  O_15
REMARK                            x       y       z     vdW  Elec       q    Type
REMARK                         _______ _______ _______ _____ _____    ______ ____
ROOT
ATOM      1  C   UNL     1      -6.506   3.079 124.015  0.00  0.00    +0.000 A 
ATOM      2  C   UNL     1      -7.548   2.265 123.612  0.00  0.00    +0.000 A 
ATOM      3  N   UNL     1      -7.704   2.399 122.256  0.00  0.00    +0.000 N 
ATOM      4  C   UNL     1      -6.789   3.300 121.761  0.00  0.00    +0.000 A 
ATOM      5  C   UNL     1      -6.038   3.755 122.845  0.00  0.00    +0.000 A 
ATOM      6  C   UNL     1      -5.026   4.709 122.623  0.00  0.00    +0.000 A 
ATOM      7  C   UNL     1      -4.810   5.171 121.327  0.00  0.00    +0.000 A 
ATOM      8  C   UNL     1      -5.558   4.698 120.258  0.00  0.00    +0.000 A 
ATOM      9  C   UNL     1      -6.563   3.742 120.452  0.00  0.00    +0.000 A 
ATOM     10  H   UNL     1      -8.387   1.905 121.697  0.00  0.00    +0.000 HD
ENDROOT
BRANCH   7  11
ATOM     11  O   UNL     1      -3.845   6.104 121.074  0.00  0.00    +0.000 OA
ATOM     12  H   UNL     1      -3.071   5.653 120.698  0.00  0.00    +0.000 HD
ENDBRANCH   7  11
BRANCH   1  13
ATOM     13  C   UNL     1      -5.934   3.235 125.394  0.00  0.00    +0.000 C 
BRANCH  13  14
ATOM     14  CA  UNL     1      -6.376   4.513 126.120  0.00  0.00    +0.000 C 
BRANCH  14  15
ATOM     15  N   UNL     1      -5.566   4.759 127.356  0.00  0.00    +0.000 NA
ATOM     16  H1  UNL     1      -4.682   5.171 127.022  0.00  0.00    +0.000 HD
ATOM     17  H2  UNL     1      -5.248   3.857 127.724  0.00  0.00    +0.000 HD
ENDBRANCH  14  15
BRANCH  14  18
ATOM     18  C   UNL     1      -7.866   4.393 126.471  0.00  0.00    +0.000 C 
ATOM     19  OXT UNL     1      -8.338   3.509 127.163  0.00  0.00    +0.000 OA
BRANCH  18  20
ATOM     20  O   UNL     1      -8.623   5.392 125.946  0.00  0.00    +0.000 OA
ATOM     21  H   UNL     1      -9.457   5.459 126.465  0.00  0.00    +0.000 HD
ENDBRANCH  18  20
ENDBRANCH  14  18
ENDBRANCH  13  14
ENDBRANCH   1  13
TORSDOF 6
ENDMDL
MODEL 9
REMARK VINA RESULT:      -5.9      8.623      9.743
REMARK  Name = Oxitriptan
REMARK  6 active torsions:
REMARK  status: ('A' for Active; 'I' for Inactive)
REMARK    1  A    between atoms: N_1  and  CA_2
REMARK    2  A    between atoms: CA_2  and  C_3
REMARK    3  A    between atoms: CA_2  and  C_14
REMARK    4  A    between atoms: C_3  and  C_4
REMARK    5  A    between atoms: C_10  and  O_11
REMARK    6  A    between atoms: C_14  and  O_15
REMARK                            x       y       z     vdW  Elec       q    Type
REMARK                         _______ _______ _______ _____ _____    ______ ____
ROOT
ATOM      1  C   UNL     1      -7.601   0.606 125.308  0.00  0.00    +0.000 A 
ATOM      2  C   UNL     1      -6.269   0.654 125.672  0.00  0.00    +0.000 A 
ATOM      3  N   UNL     1      -5.713  -0.579 125.447  0.00  0.00    +0.000 N 
ATOM      4  C   UNL     1      -6.662  -1.444 124.954  0.00  0.00    +0.000 A 
ATOM      5  C   UNL     1      -7.859  -0.732 124.874  0.00  0.00    +0.000 A 
ATOM      6  C   UNL     1      -9.015  -1.388 124.407  0.00  0.00    +0.000 A 
ATOM      7  C   UNL     1      -8.927  -2.729 124.045  0.00  0.00    +0.000 A 
ATOM      8  C   UNL     1      -7.725  -3.419 124.118  0.00  0.00    +0.000 A 
ATOM      9  C   UNL     1      -6.560  -2.786 124.568  0.00  0.00    +0.000 A 
ATOM     10  H   UNL     1      -4.744  -0.820 125.614  0.00  0.00    +0.000 HD
ENDROOT
BRANCH   7  11
ATOM     11  O   UNL     1     -10.028  -3.402 123.598  0.00  0.00    +0.000 OA
ATOM     12  H   UNL     1      -9.891  -4.353 123.749  0.00  0.00    +0.000 HD
ENDBRANCH   7  11
BRANCH   1  13
ATOM     13  C   UNL     1      -8.607   1.720 125.329  0.00  0.00    +0.000 C 
BRANCH  13  14
ATOM     14  CA  UNL     1      -8.244   2.915 124.436  0.00  0.00    +0.000 C 
BRANCH  14  15
ATOM     15  N   UNL     1      -8.740   4.208 125.009  0.00  0.00    +0.000 NA
ATOM     16  H1  UNL     1      -8.929   4.008 126.002  0.00  0.00    +0.000 HD
ATOM     17  H2  UNL     1      -9.684   4.383 124.651  0.00  0.00    +0.000 HD
ENDBRANCH  14  15
BRANCH  14  18
ATOM     18  C   UNL     1      -8.835   2.687 123.038  0.00  0.00    +0.000 C 
ATOM     19  OXT UNL     1      -9.543   1.742 122.739  0.00  0.00    +0.000 OA
BRANCH  18  20
ATOM     20  O   UNL     1      -8.506   3.662 122.151  0.00  0.00    +0.000 OA
ATOM     21  H   UNL     1      -7.524   3.722 122.101  0.00  0.00    +0.000 HD
ENDBRANCH  18  20
ENDBRANCH  14  18
ENDBRANCH  13  14
ENDBRANCH   1  13
TORSDOF 6
ENDMDL
