MODEL 1
REMARK VINA RESULT:      -6.6      0.000      0.000
REMARK  Name = Oxolamine
REMARK  8 active torsions:
REMARK  status: ('A' for Active; 'I' for Inactive)
REMARK    1  A    between atoms: C_1  and  C_2
REMARK    2  A    between atoms: C_2  and  N_3
REMARK    3  A    between atoms: N_3  and  C_4
REMARK    4  A    between atoms: N_3  and  C_6
REMARK    5  A    between atoms: C_4  and  C_5
REMARK    6  A    between atoms: C_6  and  C_7
REMARK    7  A    between atoms: C_7  and  C_8
REMARK    8  A    between atoms: C_10  and  C_13
REMARK                            x       y       z     vdW  Elec       q    Type
REMARK                         _______ _______ _______ _____ _____    ______ ____
ROOT
ATOM      1  C   UNL     1      -9.181   1.440 124.744  0.00  0.00    +0.000 A 
ATOM      2  N   UNL     1      -8.727   1.434 123.509  0.00  0.00    +0.000 NA
ATOM      3  C   UNL     1      -8.352   2.739 123.336  0.00  0.00    +0.000 A 
ATOM      4  N   UNL     1      -8.576   3.535 124.396  0.00  0.00    +0.000 NA
ATOM      5  O   UNL     1      -9.144   2.670 125.330  0.00  0.00    +0.000 OA
ENDROOT
BRANCH   3   6
ATOM      6  C   UNL     1      -7.806   3.211 122.084  0.00  0.00    +0.000 A 
ATOM      7  C   UNL     1      -6.422   3.328 121.911  0.00  0.00    +0.000 A 
ATOM      8  C   UNL     1      -5.913   3.869 120.731  0.00  0.00    +0.000 A 
ATOM      9  C   UNL     1      -6.781   4.246 119.705  0.00  0.00    +0.000 A 
ATOM     10  C   UNL     1      -8.159   4.096 119.859  0.00  0.00    +0.000 A 
ATOM     11  C   UNL     1      -8.672   3.578 121.048  0.00  0.00    +0.000 A 
ENDBRANCH   3   6
BRANCH   1  12
ATOM     12  C   UNL     1      -9.736   0.330 125.536  0.00  0.00    +0.000 C 
BRANCH  12  13
ATOM     13  C   UNL     1      -8.818  -0.904 125.498  0.00  0.00    +0.000 C 
BRANCH  13  14
ATOM     14  N   UNL     1      -9.531  -2.189 125.224  0.00  0.00    +0.000 NA
BRANCH  14  16
ATOM     15  C   UNL     1      -7.698  -2.348 123.455  0.00  0.00    +0.000 C 
ATOM     16  C   UNL     1      -9.130  -2.665 123.880  0.00  0.00    +0.000 C 
ENDBRANCH  14  16
BRANCH  14  17
ATOM     17  C   UNL     1      -9.255  -3.155 126.307  0.00  0.00    +0.000 C 
ATOM     18  C   UNL     1      -8.160  -2.788 127.296  0.00  0.00    +0.000 C 
ENDBRANCH  14  17
ENDBRANCH  13  14
ENDBRANCH  12  13
ENDBRANCH   1  12
TORSDOF 6
ENDMDL
MODEL 2
REMARK VINA RESULT:      -6.5      1.813      2.522
REMARK  Name = Oxolamine
REMARK  8 active torsions:
REMARK  status: ('A' for Active; 'I' for Inactive)
REMARK    1  A    between atoms: C_1  and  C_2
REMARK    2  A    between atoms: C_2  and  N_3
REMARK    3  A    between atoms: N_3  and  C_4
REMARK    4  A    between atoms: N_3  and  C_6
REMARK    5  A    between atoms: C_4  and  C_5
REMARK    6  A    between atoms: C_6  and  C_7
REMARK    7  A    between atoms: C_7  and  C_8
REMARK    8  A    between atoms: C_10  and  C_13
REMARK                            x       y       z     vdW  Elec       q    Type
REMARK                         _______ _______ _______ _____ _____    ______ ____
ROOT
ATOM      1  C   UNL     1      -8.069   1.447 123.590  0.00  0.00    +0.000 A 
ATOM      2  N   UNL     1      -7.053   2.036 122.999  0.00  0.00    +0.000 NA
ATOM      3  C   UNL     1      -7.682   2.872 122.116  0.00  0.00    +0.000 A 
ATOM      4  N   UNL     1      -9.024   2.802 122.132  0.00  0.00    +0.000 NA
ATOM      5  O   UNL     1      -9.282   1.839 123.106  0.00  0.00    +0.000 OA
ENDROOT
BRANCH   3   6
ATOM      6  C   UNL     1      -6.936   3.719 121.212  0.00  0.00    +0.000 A 
ATOM      7  C   UNL     1      -7.475   4.087 119.975  0.00  0.00    +0.000 A 
ATOM      8  C   UNL     1      -6.709   4.828 119.076  0.00  0.00    +0.000 A 
ATOM      9  C   UNL     1      -5.426   5.245 119.432  0.00  0.00    +0.000 A 
ATOM     10  C   UNL     1      -4.899   4.912 120.680  0.00  0.00    +0.000 A 
ATOM     11  C   UNL     1      -5.654   4.150 121.570  0.00  0.00    +0.000 A 
ENDBRANCH   3   6
BRANCH   1  12
ATOM     12  C   UNL     1      -8.064   0.428 124.654  0.00  0.00    +0.000 C 
BRANCH  12  13
ATOM     13  C   UNL     1      -6.988  -0.643 124.404  0.00  0.00    +0.000 C 
BRANCH  13  14
ATOM     14  N   UNL     1      -7.351  -1.640 123.351  0.00  0.00    +0.000 NA
BRANCH  14  16
ATOM     15  C   UNL     1      -5.147  -2.926 123.380  0.00  0.00    +0.000 C 
ATOM     16  C   UNL     1      -6.117  -2.020 122.626  0.00  0.00    +0.000 C 
ENDBRANCH  14  16
BRANCH  14  17
ATOM     17  C   UNL     1      -8.059  -2.782 123.966  0.00  0.00    +0.000 C 
ATOM     18  C   UNL     1      -9.390  -3.181 123.349  0.00  0.00    +0.000 C 
ENDBRANCH  14  17
ENDBRANCH  13  14
ENDBRANCH  12  13
ENDBRANCH   1  12
TORSDOF 6
ENDMDL
MODEL 3
REMARK VINA RESULT:      -6.5      1.992      2.531
REMARK  Name = Oxolamine
REMARK  8 active torsions:
REMARK  status: ('A' for Active; 'I' for Inactive)
REMARK    1  A    between atoms: C_1  and  C_2
REMARK    2  A    between atoms: C_2  and  N_3
REMARK    3  A    between atoms: N_3  and  C_4
REMARK    4  A    between atoms: N_3  and  C_6
REMARK    5  A    between atoms: C_4  and  C_5
REMARK    6  A    between atoms: C_6  and  C_7
REMARK    7  A    between atoms: C_7  and  C_8
REMARK    8  A    between atoms: C_10  and  C_13
REMARK                            x       y       z     vdW  Elec       q    Type
REMARK                         _______ _______ _______ _____ _____    ______ ____
ROOT
ATOM      1  C   UNL     1      -6.756   2.109 123.917  0.00  0.00    +0.000 A 
ATOM      2  N   UNL     1      -7.003   2.280 122.636  0.00  0.00    +0.000 NA
ATOM      3  C   UNL     1      -6.329   3.441 122.368  0.00  0.00    +0.000 A 
ATOM      4  N   UNL     1      -5.706   3.989 123.425  0.00  0.00    +0.000 NA
ATOM      5  O   UNL     1      -6.004   3.107 124.463  0.00  0.00    +0.000 OA
ENDROOT
BRANCH   3   6
ATOM      6  C   UNL     1      -6.343   4.037 121.051  0.00  0.00    +0.000 A 
ATOM      7  C   UNL     1      -5.262   4.808 120.608  0.00  0.00    +0.000 A 
ATOM      8  C   UNL     1      -5.328   5.452 119.373  0.00  0.00    +0.000 A 
ATOM      9  C   UNL     1      -6.449   5.286 118.559  0.00  0.00    +0.000 A 
ATOM     10  C   UNL     1      -7.513   4.487 118.981  0.00  0.00    +0.000 A 
ATOM     11  C   UNL     1      -7.460   3.863 120.227  0.00  0.00    +0.000 A 
ENDBRANCH   3   6
BRANCH   1  12
ATOM     12  C   UNL     1      -7.200   1.029 124.814  0.00  0.00    +0.000 C 
BRANCH  12  13
ATOM     13  C   UNL     1      -8.202   0.093 124.118  0.00  0.00    +0.000 C 
BRANCH  13  14
ATOM     14  N   UNL     1      -7.850  -1.357 124.207  0.00  0.00    +0.000 NA
BRANCH  14  16
ATOM     15  C   UNL     1      -9.432  -3.218 123.468  0.00  0.00    +0.000 C 
ATOM     16  C   UNL     1      -8.509  -2.064 123.084  0.00  0.00    +0.000 C 
ENDBRANCH  14  16
BRANCH  14  17
ATOM     17  C   UNL     1      -6.381  -1.515 124.234  0.00  0.00    +0.000 C 
ATOM     18  C   UNL     1      -5.770  -2.454 123.205  0.00  0.00    +0.000 C 
ENDBRANCH  14  17
ENDBRANCH  13  14
ENDBRANCH  12  13
ENDBRANCH   1  12
TORSDOF 6
ENDMDL
MODEL 4
REMARK VINA RESULT:      -6.2      9.354     10.328
REMARK  Name = Oxolamine
REMARK  8 active torsions:
REMARK  status: ('A' for Active; 'I' for Inactive)
REMARK    1  A    between atoms: C_1  and  C_2
REMARK    2  A    between atoms: C_2  and  N_3
REMARK    3  A    between atoms: N_3  and  C_4
REMARK    4  A    between atoms: N_3  and  C_6
REMARK    5  A    between atoms: C_4  and  C_5
REMARK    6  A    between atoms: C_6  and  C_7
REMARK    7  A    between atoms: C_7  and  C_8
REMARK    8  A    between atoms: C_10  and  C_13
REMARK                            x       y       z     vdW  Elec       q    Type
REMARK                         _______ _______ _______ _____ _____    ______ ____
ROOT
ATOM      1  C   UNL     1      -7.752   6.591 131.466  0.00  0.00    +0.000 A 
ATOM      2  N   UNL     1      -8.372   6.942 130.360  0.00  0.00    +0.000 NA
ATOM      3  C   UNL     1      -9.684   6.922 130.751  0.00  0.00    +0.000 A 
ATOM      4  N   UNL     1      -9.887   6.557 132.028  0.00  0.00    +0.000 NA
ATOM      5  O   UNL     1      -8.597   6.321 132.501  0.00  0.00    +0.000 OA
ENDROOT
BRANCH   3   6
ATOM      6  C   UNL     1     -10.754   7.226 129.827  0.00  0.00    +0.000 A 
ATOM      7  C   UNL     1     -10.521   8.041 128.713  0.00  0.00    +0.000 A 
ATOM      8  C   UNL     1     -11.582   8.400 127.882  0.00  0.00    +0.000 A 
ATOM      9  C   UNL     1     -12.862   7.905 128.131  0.00  0.00    +0.000 A 
ATOM     10  C   UNL     1     -13.090   7.061 129.219  0.00  0.00    +0.000 A 
ATOM     11  C   UNL     1     -12.036   6.722 130.066  0.00  0.00    +0.000 A 
ENDBRANCH   3   6
BRANCH   1  12
ATOM     12  C   UNL     1      -6.309   6.427 131.711  0.00  0.00    +0.000 C 
BRANCH  12  13
ATOM     13  C   UNL     1      -5.471   7.252 130.719  0.00  0.00    +0.000 C 
BRANCH  13  14
ATOM     14  N   UNL     1      -4.177   6.612 130.331  0.00  0.00    +0.000 NA
BRANCH  14  16
ATOM     15  C   UNL     1      -2.407   6.693 128.494  0.00  0.00    +0.000 C 
ATOM     16  C   UNL     1      -3.694   7.259 129.089  0.00  0.00    +0.000 C 
ENDBRANCH  14  16
BRANCH  14  17
ATOM     17  C   UNL     1      -3.223   6.689 131.455  0.00  0.00    +0.000 C 
ATOM     18  C   UNL     1      -2.892   8.076 131.985  0.00  0.00    +0.000 C 
ENDBRANCH  14  17
ENDBRANCH  13  14
ENDBRANCH  12  13
ENDBRANCH   1  12
TORSDOF 6
ENDMDL
MODEL 5
REMARK VINA RESULT:      -6.2      8.965     11.588
REMARK  Name = Oxolamine
REMARK  8 active torsions:
REMARK  status: ('A' for Active; 'I' for Inactive)
REMARK    1  A    between atoms: C_1  and  C_2
REMARK    2  A    between atoms: C_2  and  N_3
REMARK    3  A    between atoms: N_3  and  C_4
REMARK    4  A    between atoms: N_3  and  C_6
REMARK    5  A    between atoms: C_4  and  C_5
REMARK    6  A    between atoms: C_6  and  C_7
REMARK    7  A    between atoms: C_7  and  C_8
REMARK    8  A    between atoms: C_10  and  C_13
REMARK                            x       y       z     vdW  Elec       q    Type
REMARK                         _______ _______ _______ _____ _____    ______ ____
ROOT
ATOM      1  C   UNL     1     -11.679   6.374 131.276  0.00  0.00    +0.000 A 
ATOM      2  N   UNL     1     -10.741   6.567 132.179  0.00  0.00    +0.000 NA
ATOM      3  C   UNL     1      -9.941   5.471 131.995  0.00  0.00    +0.000 A 
ATOM      4  N   UNL     1     -10.358   4.620 131.043  0.00  0.00    +0.000 NA
ATOM      5  O   UNL     1     -11.528   5.216 130.573  0.00  0.00    +0.000 OA
ENDROOT
BRANCH   3   6
ATOM      6  C   UNL     1      -8.768   5.246 132.810  0.00  0.00    +0.000 A 
ATOM      7  C   UNL     1      -8.829   4.405 133.927  0.00  0.00    +0.000 A 
ATOM      8  C   UNL     1      -7.716   4.269 134.756  0.00  0.00    +0.000 A 
ATOM      9  C   UNL     1      -6.528   4.930 134.443  0.00  0.00    +0.000 A 
ATOM     10  C   UNL     1      -6.452   5.739 133.308  0.00  0.00    +0.000 A 
ATOM     11  C   UNL     1      -7.571   5.897 132.492  0.00  0.00    +0.000 A 
ENDBRANCH   3   6
BRANCH   1  12
ATOM     12  C   UNL     1     -12.850   7.210 130.959  0.00  0.00    +0.000 C 
BRANCH  12  13
ATOM     13  C   UNL     1     -13.073   7.315 129.441  0.00  0.00    +0.000 C 
BRANCH  13  14
ATOM     14  N   UNL     1     -12.751   8.657 128.866  0.00  0.00    +0.000 NA
BRANCH  14  16
ATOM     15  C   UNL     1     -13.675  10.961 129.456  0.00  0.00    +0.000 C 
ATOM     16  C   UNL     1     -12.986   9.678 129.913  0.00  0.00    +0.000 C 
ENDBRANCH  14  16
BRANCH  14  17
ATOM     17  C   UNL     1     -11.373   8.655 128.332  0.00  0.00    +0.000 C 
ATOM     18  C   UNL     1     -11.128   7.854 127.063  0.00  0.00    +0.000 C 
ENDBRANCH  14  17
ENDBRANCH  13  14
ENDBRANCH  12  13
ENDBRANCH   1  12
TORSDOF 6
ENDMDL
MODEL 6
REMARK VINA RESULT:      -6.1      0.997      2.242
REMARK  Name = Oxolamine
REMARK  8 active torsions:
REMARK  status: ('A' for Active; 'I' for Inactive)
REMARK    1  A    between atoms: C_1  and  C_2
REMARK    2  A    between atoms: C_2  and  N_3
REMARK    3  A    between atoms: N_3  and  C_4
REMARK    4  A    between atoms: N_3  and  C_6
REMARK    5  A    between atoms: C_4  and  C_5
REMARK    6  A    between atoms: C_6  and  C_7
REMARK    7  A    between atoms: C_7  and  C_8
REMARK    8  A    between atoms: C_10  and  C_13
REMARK                            x       y       z     vdW  Elec       q    Type
REMARK                         _______ _______ _______ _____ _____    ______ ____
ROOT
ATOM      1  C   UNL     1      -8.044   1.360 124.870  0.00  0.00    +0.000 A 
ATOM      2  N   UNL     1      -7.312   1.560 123.795  0.00  0.00    +0.000 NA
ATOM      3  C   UNL     1      -7.751   2.788 123.376  0.00  0.00    +0.000 A 
ATOM      4  N   UNL     1      -8.723   3.328 124.131  0.00  0.00    +0.000 NA
ATOM      5  O   UNL     1      -8.929   2.367 125.120  0.00  0.00    +0.000 OA
ENDROOT
BRANCH   3   6
ATOM      6  C   UNL     1      -7.227   3.411 122.182  0.00  0.00    +0.000 A 
ATOM      7  C   UNL     1      -8.046   3.609 121.065  0.00  0.00    +0.000 A 
ATOM      8  C   UNL     1      -7.504   4.128 119.889  0.00  0.00    +0.000 A 
ATOM      9  C   UNL     1      -6.159   4.496 119.844  0.00  0.00    +0.000 A 
ATOM     10  C   UNL     1      -5.348   4.335 120.968  0.00  0.00    +0.000 A 
ATOM     11  C   UNL     1      -5.882   3.794 122.136  0.00  0.00    +0.000 A 
ENDBRANCH   3   6
BRANCH   1  12
ATOM     12  C   UNL     1      -8.051   0.211 125.790  0.00  0.00    +0.000 C 
BRANCH  12  13
ATOM     13  C   UNL     1      -8.774  -1.000 125.175  0.00  0.00    +0.000 C 
BRANCH  13  14
ATOM     14  N   UNL     1      -7.859  -2.063 124.661  0.00  0.00    +0.000 NA
BRANCH  14  16
ATOM     15  C   UNL     1      -9.088  -3.356 126.486  0.00  0.00    +0.000 C 
ATOM     16  C   UNL     1      -8.347  -3.373 125.152  0.00  0.00    +0.000 C 
ENDBRANCH  14  16
BRANCH  14  17
ATOM     17  C   UNL     1      -7.765  -1.974 123.189  0.00  0.00    +0.000 C 
ATOM     18  C   UNL     1      -6.369  -1.858 122.594  0.00  0.00    +0.000 C 
ENDBRANCH  14  17
ENDBRANCH  13  14
ENDBRANCH  12  13
ENDBRANCH   1  12
TORSDOF 6
ENDMDL
MODEL 7
REMARK VINA RESULT:      -6.0      7.749      9.414
REMARK  Name = Oxolamine
REMARK  8 active torsions:
REMARK  status: ('A' for Active; 'I' for Inactive)
REMARK    1  A    between atoms: C_1  and  C_2
REMARK    2  A    between atoms: C_2  and  N_3
REMARK    3  A    between atoms: N_3  and  C_4
REMARK    4  A    between atoms: N_3  and  C_6
REMARK    5  A    between atoms: C_4  and  C_5
REMARK    6  A    between atoms: C_6  and  C_7
REMARK    7  A    between atoms: C_7  and  C_8
REMARK    8  A    between atoms: C_10  and  C_13
REMARK                            x       y       z     vdW  Elec       q    Type
REMARK                         _______ _______ _______ _____ _____    ______ ____
ROOT
ATOM      1  C   UNL     1      -7.732   6.778 131.257  0.00  0.00    +0.000 A 
ATOM      2  N   UNL     1      -8.410   7.188 130.207  0.00  0.00    +0.000 NA
ATOM      3  C   UNL     1      -9.704   7.057 130.635  0.00  0.00    +0.000 A 
ATOM      4  N   UNL     1      -9.840   6.570 131.880  0.00  0.00    +0.000 NA
ATOM      5  O   UNL     1      -8.523   6.370 132.289  0.00  0.00    +0.000 OA
ENDROOT
BRANCH   3   6
ATOM      6  C   UNL     1     -10.822   7.377 129.776  0.00  0.00    +0.000 A 
ATOM      7  C   UNL     1     -12.117   6.966 130.110  0.00  0.00    +0.000 A 
ATOM      8  C   UNL     1     -13.171   7.203 129.227  0.00  0.00    +0.000 A 
ATOM      9  C   UNL     1     -12.941   7.894 128.037  0.00  0.00    +0.000 A 
ATOM     10  C   UNL     1     -11.658   8.339 127.718  0.00  0.00    +0.000 A 
ATOM     11  C   UNL     1     -10.599   8.081 128.587  0.00  0.00    +0.000 A 
ENDBRANCH   3   6
BRANCH   1  12
ATOM     12  C   UNL     1      -6.274   6.679 131.441  0.00  0.00    +0.000 C 
BRANCH  12  13
ATOM     13  C   UNL     1      -5.712   5.394 130.809  0.00  0.00    +0.000 C 
BRANCH  13  14
ATOM     14  N   UNL     1      -5.477   5.489 129.336  0.00  0.00    +0.000 NA
BRANCH  14  16
ATOM     15  C   UNL     1      -3.080   4.718 129.752  0.00  0.00    +0.000 C 
ATOM     16  C   UNL     1      -4.032   5.725 129.112  0.00  0.00    +0.000 C 
ENDBRANCH  14  16
BRANCH  14  17
ATOM     17  C   UNL     1      -5.996   4.279 128.667  0.00  0.00    +0.000 C 
ATOM     18  C   UNL     1      -7.507   4.120 128.604  0.00  0.00    +0.000 C 
ENDBRANCH  14  17
ENDBRANCH  13  14
ENDBRANCH  12  13
ENDBRANCH   1  12
TORSDOF 6
ENDMDL
MODEL 8
REMARK VINA RESULT:      -5.9      4.048      5.402
REMARK  Name = Oxolamine
REMARK  8 active torsions:
REMARK  status: ('A' for Active; 'I' for Inactive)
REMARK    1  A    between atoms: C_1  and  C_2
REMARK    2  A    between atoms: C_2  and  N_3
REMARK    3  A    between atoms: N_3  and  C_4
REMARK    4  A    between atoms: N_3  and  C_6
REMARK    5  A    between atoms: C_4  and  C_5
REMARK    6  A    between atoms: C_6  and  C_7
REMARK    7  A    between atoms: C_7  and  C_8
REMARK    8  A    between atoms: C_10  and  C_13
REMARK                            x       y       z     vdW  Elec       q    Type
REMARK                         _______ _______ _______ _____ _____    ______ ____
ROOT
ATOM      1  C   UNL     1      -6.208   2.852 124.712  0.00  0.00    +0.000 A 
ATOM      2  N   UNL     1      -5.835   3.716 123.794  0.00  0.00    +0.000 NA
ATOM      3  C   UNL     1      -6.471   3.239 122.679  0.00  0.00    +0.000 A 
ATOM      4  N   UNL     1      -7.191   2.122 122.875  0.00  0.00    +0.000 NA
ATOM      5  O   UNL     1      -7.002   1.855 124.230  0.00  0.00    +0.000 OA
ENDROOT
BRANCH   3   6
ATOM      6  C   UNL     1      -6.323   3.880 121.391  0.00  0.00    +0.000 A 
ATOM      7  C   UNL     1      -5.178   4.628 121.096  0.00  0.00    +0.000 A 
ATOM      8  C   UNL     1      -5.090   5.315 119.886  0.00  0.00    +0.000 A 
ATOM      9  C   UNL     1      -6.120   5.214 118.950  0.00  0.00    +0.000 A 
ATOM     10  C   UNL     1      -7.246   4.438 119.225  0.00  0.00    +0.000 A 
ATOM     11  C   UNL     1      -7.348   3.771 120.445  0.00  0.00    +0.000 A 
ENDBRANCH   3   6
BRANCH   1  12
ATOM     12  C   UNL     1      -5.863   2.808 126.143  0.00  0.00    +0.000 C 
BRANCH  12  13
ATOM     13  C   UNL     1      -5.054   4.047 126.566  0.00  0.00    +0.000 C 
BRANCH  13  14
ATOM     14  N   UNL     1      -3.773   3.731 127.268  0.00  0.00    +0.000 NA
BRANCH  14  16
ATOM     15  C   UNL     1      -1.466   2.907 126.550  0.00  0.00    +0.000 C 
ATOM     16  C   UNL     1      -2.672   3.802 126.278  0.00  0.00    +0.000 C 
ENDBRANCH  14  16
BRANCH  14  17
ATOM     17  C   UNL     1      -3.597   4.635 128.423  0.00  0.00    +0.000 C 
ATOM     18  C   UNL     1      -3.807   4.036 129.805  0.00  0.00    +0.000 C 
ENDBRANCH  14  17
ENDBRANCH  13  14
ENDBRANCH  12  13
ENDBRANCH   1  12
TORSDOF 6
ENDMDL
MODEL 9
REMARK VINA RESULT:      -5.8      7.541      8.776
REMARK  Name = Oxolamine
REMARK  8 active torsions:
REMARK  status: ('A' for Active; 'I' for Inactive)
REMARK    1  A    between atoms: C_1  and  C_2
REMARK    2  A    between atoms: C_2  and  N_3
REMARK    3  A    between atoms: N_3  and  C_4
REMARK    4  A    between atoms: N_3  and  C_6
REMARK    5  A    between atoms: C_4  and  C_5
REMARK    6  A    between atoms: C_6  and  C_7
REMARK    7  A    between atoms: C_7  and  C_8
REMARK    8  A    between atoms: C_10  and  C_13
REMARK                            x       y       z     vdW  Elec       q    Type
REMARK                         _______ _______ _______ _____ _____    ______ ____
ROOT
ATOM      1  C   UNL     1      -9.376   3.640 129.949  0.00  0.00    +0.000 A 
ATOM      2  N   UNL     1     -10.419   4.375 130.270  0.00  0.00    +0.000 NA
ATOM      3  C   UNL     1     -10.198   5.515 129.545  0.00  0.00    +0.000 A 
ATOM      4  N   UNL     1      -9.066   5.513 128.821  0.00  0.00    +0.000 NA
ATOM      5  O   UNL     1      -8.509   4.266 129.103  0.00  0.00    +0.000 OA
ENDROOT
BRANCH   3   6
ATOM      6  C   UNL     1     -11.103   6.640 129.609  0.00  0.00    +0.000 A 
ATOM      7  C   UNL     1     -11.086   7.625 128.615  0.00  0.00    +0.000 A 
ATOM      8  C   UNL     1     -11.901   8.750 128.737  0.00  0.00    +0.000 A 
ATOM      9  C   UNL     1     -12.767   8.869 129.824  0.00  0.00    +0.000 A 
ATOM     10  C   UNL     1     -12.815   7.871 130.798  0.00  0.00    +0.000 A 
ATOM     11  C   UNL     1     -11.983   6.757 130.691  0.00  0.00    +0.000 A 
ENDBRANCH   3   6
BRANCH   1  12
ATOM     12  C   UNL     1      -9.020   2.283 130.398  0.00  0.00    +0.000 C 
BRANCH  12  13
ATOM     13  C   UNL     1      -9.685   1.942 131.743  0.00  0.00    +0.000 C 
BRANCH  13  14
ATOM     14  N   UNL     1      -8.720   1.614 132.836  0.00  0.00    +0.000 NA
BRANCH  14  16
ATOM     15  C   UNL     1      -8.088  -0.779 132.213  0.00  0.00    +0.000 C 
ATOM     16  C   UNL     1      -7.695   0.694 132.290  0.00  0.00    +0.000 C 
ENDBRANCH  14  16
BRANCH  14  17
ATOM     17  C   UNL     1      -8.164   2.860 133.404  0.00  0.00    +0.000 C 
ATOM     18  C   UNL     1      -9.162   3.907 133.875  0.00  0.00    +0.000 C 
ENDBRANCH  14  17
ENDBRANCH  13  14
ENDBRANCH  12  13
ENDBRANCH   1  12
TORSDOF 6
ENDMDL
