MODEL 1
REMARK VINA RESULT:      -6.2      0.000      0.000
REMARK  Name = Oxprenolol
REMARK  12 active torsions:
REMARK  status: ('A' for Active; 'I' for Inactive)
REMARK    1  A    between atoms: C_1  and  C_2
REMARK    2  A    between atoms: C_2  and  C_3
REMARK    3  A    between atoms: C_2  and  N_4
REMARK    4  A    between atoms: N_4  and  C_5
REMARK    5  A    between atoms: C_5  and  C_6
REMARK    6  A    between atoms: C_6  and  O_7
REMARK    7  A    between atoms: C_6  and  C_8
REMARK    8  A    between atoms: C_8  and  O_9
REMARK    9  A    between atoms: O_9  and  C_10
REMARK   10  A    between atoms: C_15  and  O_16
REMARK   11  A    between atoms: O_16  and  C_17
REMARK   12  A    between atoms: C_17  and  C_18
REMARK                            x       y       z     vdW  Elec       q    Type
REMARK                         _______ _______ _______ _____ _____    ______ ____
ROOT
ATOM      1  O   UNL     1      -7.627   0.383 124.970  0.00  0.00    +0.000 OA
ENDROOT
BRANCH   1   2
ATOM      2  C   UNL     1      -8.055  -0.891 124.616  0.00  0.00    +0.000 A 
ATOM      3  C   UNL     1      -8.151  -1.019 123.208  0.00  0.00    +0.000 A 
ATOM      4  C   UNL     1      -8.769  -2.120 122.604  0.00  0.00    +0.000 A 
ATOM      5  C   UNL     1      -9.246  -3.157 123.391  0.00  0.00    +0.000 A 
ATOM      6  C   UNL     1      -9.144  -3.067 124.777  0.00  0.00    +0.000 A 
ATOM      7  C   UNL     1      -8.594  -1.942 125.421  0.00  0.00    +0.000 A 
BRANCH   7   8
ATOM      8  O   UNL     1      -8.787  -2.089 126.798  0.00  0.00    +0.000 OA
BRANCH   8   9
ATOM      9  C   UNL     1      -8.793  -3.427 127.201  0.00  0.00    +0.000 C 
BRANCH   9  10
ATOM     10  C   UNL     1      -8.730  -3.857 128.627  0.00  0.00    +0.000 C 
ATOM     11  C   UNL     1      -7.989  -3.158 129.531  0.00  0.00    +0.000 C 
ENDBRANCH   9  10
ENDBRANCH   8   9
ENDBRANCH   7   8
ENDBRANCH   1   2
BRANCH   1  12
ATOM     12  C   UNL     1      -8.600   1.414 125.080  0.00  0.00    +0.000 C 
BRANCH  12  13
ATOM     13  C   UNL     1      -8.296   2.750 124.410  0.00  0.00    +0.000 C 
BRANCH  13  14
ATOM     14  O   UNL     1      -9.016   3.803 125.026  0.00  0.00    +0.000 OA
ATOM     15  H   UNL     1      -9.052   3.583 125.970  0.00  0.00    +0.000 HD
ENDBRANCH  13  14
BRANCH  13  16
ATOM     16  C   UNL     1      -8.731   2.615 122.915  0.00  0.00    +0.000 C 
BRANCH  16  17
ATOM     17  N   UNL     1      -8.243   3.756 122.156  0.00  0.00    +0.000 NA
ATOM     18  H   UNL     1      -9.018   4.083 121.575  0.00  0.00    +0.000 HD
BRANCH  17  20
ATOM     19  C   UNL     1      -7.284   4.096 119.974  0.00  0.00    +0.000 C 
ATOM     20  C   UNL     1      -7.065   3.455 121.342  0.00  0.00    +0.000 C 
ATOM     21  C   UNL     1      -5.773   4.004 121.951  0.00  0.00    +0.000 C 
ENDBRANCH  17  20
ENDBRANCH  16  17
ENDBRANCH  13  16
ENDBRANCH  12  13
ENDBRANCH   1  12
TORSDOF 10
ENDMDL
MODEL 2
REMARK VINA RESULT:      -6.1      1.943      2.323
REMARK  Name = Oxprenolol
REMARK  12 active torsions:
REMARK  status: ('A' for Active; 'I' for Inactive)
REMARK    1  A    between atoms: C_1  and  C_2
REMARK    2  A    between atoms: C_2  and  C_3
REMARK    3  A    between atoms: C_2  and  N_4
REMARK    4  A    between atoms: N_4  and  C_5
REMARK    5  A    between atoms: C_5  and  C_6
REMARK    6  A    between atoms: C_6  and  O_7
REMARK    7  A    between atoms: C_6  and  C_8
REMARK    8  A    between atoms: C_8  and  O_9
REMARK    9  A    between atoms: O_9  and  C_10
REMARK   10  A    between atoms: C_15  and  O_16
REMARK   11  A    between atoms: O_16  and  C_17
REMARK   12  A    between atoms: C_17  and  C_18
REMARK                            x       y       z     vdW  Elec       q    Type
REMARK                         _______ _______ _______ _____ _____    ______ ____
ROOT
ATOM      1  O   UNL     1      -9.360  -0.984 123.910  0.00  0.00    +0.000 OA
ENDROOT
BRANCH   1   2
ATOM      2  C   UNL     1      -8.153  -1.668 123.977  0.00  0.00    +0.000 A 
ATOM      3  C   UNL     1      -7.197  -1.095 123.101  0.00  0.00    +0.000 A 
ATOM      4  C   UNL     1      -5.982  -1.728 122.814  0.00  0.00    +0.000 A 
ATOM      5  C   UNL     1      -5.660  -2.917 123.449  0.00  0.00    +0.000 A 
ATOM      6  C   UNL     1      -6.571  -3.491 124.332  0.00  0.00    +0.000 A 
ATOM      7  C   UNL     1      -7.833  -2.919 124.589  0.00  0.00    +0.000 A 
BRANCH   7   8
ATOM      8  O   UNL     1      -8.563  -3.812 125.380  0.00  0.00    +0.000 OA
BRANCH   8   9
ATOM      9  C   UNL     1      -8.994  -3.239 126.580  0.00  0.00    +0.000 C 
BRANCH   9  10
ATOM     10  C   UNL     1      -8.886  -3.920 127.902  0.00  0.00    +0.000 C 
ATOM     11  C   UNL     1      -8.120  -3.389 128.896  0.00  0.00    +0.000 C 
ENDBRANCH   9  10
ENDBRANCH   8   9
ENDBRANCH   7   8
ENDBRANCH   1   2
BRANCH   1  12
ATOM     12  C   UNL     1      -9.434   0.312 124.491  0.00  0.00    +0.000 C 
BRANCH  12  13
ATOM     13  C   UNL     1     -10.181   1.394 123.719  0.00  0.00    +0.000 C 
BRANCH  13  14
ATOM     14  O   UNL     1     -11.202   0.831 122.914  0.00  0.00    +0.000 OA
ATOM     15  H   UNL     1     -10.987   1.080 122.000  0.00  0.00    +0.000 HD
ENDBRANCH  13  14
BRANCH  13  16
ATOM     16  C   UNL     1      -9.129   2.113 122.815  0.00  0.00    +0.000 C 
BRANCH  16  17
ATOM     17  N   UNL     1      -8.579   3.261 123.518  0.00  0.00    +0.000 NA
ATOM     18  H   UNL     1      -9.047   4.092 123.150  0.00  0.00    +0.000 HD
BRANCH  17  20
ATOM     19  C   UNL     1      -6.505   2.441 124.427  0.00  0.00    +0.000 C 
ATOM     20  C   UNL     1      -7.126   3.380 123.396  0.00  0.00    +0.000 C 
ATOM     21  C   UNL     1      -6.620   2.998 122.002  0.00  0.00    +0.000 C 
ENDBRANCH  17  20
ENDBRANCH  16  17
ENDBRANCH  13  16
ENDBRANCH  12  13
ENDBRANCH   1  12
TORSDOF 10
ENDMDL
MODEL 3
REMARK VINA RESULT:      -6.0      2.546      7.531
REMARK  Name = Oxprenolol
REMARK  12 active torsions:
REMARK  status: ('A' for Active; 'I' for Inactive)
REMARK    1  A    between atoms: C_1  and  C_2
REMARK    2  A    between atoms: C_2  and  C_3
REMARK    3  A    between atoms: C_2  and  N_4
REMARK    4  A    between atoms: N_4  and  C_5
REMARK    5  A    between atoms: C_5  and  C_6
REMARK    6  A    between atoms: C_6  and  O_7
REMARK    7  A    between atoms: C_6  and  C_8
REMARK    8  A    between atoms: C_8  and  O_9
REMARK    9  A    between atoms: O_9  and  C_10
REMARK   10  A    between atoms: C_15  and  O_16
REMARK   11  A    between atoms: O_16  and  C_17
REMARK   12  A    between atoms: C_17  and  C_18
REMARK                            x       y       z     vdW  Elec       q    Type
REMARK                         _______ _______ _______ _____ _____    ______ ____
ROOT
ATOM      1  O   UNL     1      -8.684   2.715 122.718  0.00  0.00    +0.000 OA
ENDROOT
BRANCH   1   2
ATOM      2  C   UNL     1      -7.623   3.258 123.431  0.00  0.00    +0.000 A 
ATOM      3  C   UNL     1      -8.058   3.757 124.684  0.00  0.00    +0.000 A 
ATOM      4  C   UNL     1      -7.235   4.549 125.493  0.00  0.00    +0.000 A 
ATOM      5  C   UNL     1      -5.931   4.806 125.102  0.00  0.00    +0.000 A 
ATOM      6  C   UNL     1      -5.469   4.309 123.885  0.00  0.00    +0.000 A 
ATOM      7  C   UNL     1      -6.292   3.570 123.013  0.00  0.00    +0.000 A 
BRANCH   7   8
ATOM      8  O   UNL     1      -5.591   3.364 121.821  0.00  0.00    +0.000 OA
BRANCH   8   9
ATOM      9  C   UNL     1      -5.927   4.291 120.831  0.00  0.00    +0.000 C 
BRANCH   9  10
ATOM     10  C   UNL     1      -7.021   4.078 119.842  0.00  0.00    +0.000 C 
ATOM     11  C   UNL     1      -7.029   4.755 118.659  0.00  0.00    +0.000 C 
ENDBRANCH   9  10
ENDBRANCH   8   9
ENDBRANCH   7   8
ENDBRANCH   1   2
BRANCH   1  12
ATOM     12  C   UNL     1      -9.501   1.743 123.359  0.00  0.00    +0.000 C 
BRANCH  12  13
ATOM     13  C   UNL     1     -10.129   0.659 122.489  0.00  0.00    +0.000 C 
BRANCH  13  14
ATOM     14  O   UNL     1     -11.497   0.480 122.808  0.00  0.00    +0.000 OA
ATOM     15  H   UNL     1     -11.979   0.574 121.971  0.00  0.00    +0.000 HD
ENDBRANCH  13  14
BRANCH  13  16
ATOM     16  C   UNL     1      -9.341  -0.660 122.771  0.00  0.00    +0.000 C 
BRANCH  16  17
ATOM     17  N   UNL     1      -9.465  -1.015 124.176  0.00  0.00    +0.000 NA
ATOM     18  H   UNL     1      -8.957  -0.307 124.711  0.00  0.00    +0.000 HD
BRANCH  17  20
ATOM     19  C   UNL     1      -9.415  -2.688 125.908  0.00  0.00    +0.000 C 
ATOM     20  C   UNL     1      -8.973  -2.359 124.485  0.00  0.00    +0.000 C 
ATOM     21  C   UNL     1      -9.526  -3.420 123.530  0.00  0.00    +0.000 C 
ENDBRANCH  17  20
ENDBRANCH  16  17
ENDBRANCH  13  16
ENDBRANCH  12  13
ENDBRANCH   1  12
TORSDOF 10
ENDMDL
MODEL 4
REMARK VINA RESULT:      -6.0      2.225      2.915
REMARK  Name = Oxprenolol
REMARK  12 active torsions:
REMARK  status: ('A' for Active; 'I' for Inactive)
REMARK    1  A    between atoms: C_1  and  C_2
REMARK    2  A    between atoms: C_2  and  C_3
REMARK    3  A    between atoms: C_2  and  N_4
REMARK    4  A    between atoms: N_4  and  C_5
REMARK    5  A    between atoms: C_5  and  C_6
REMARK    6  A    between atoms: C_6  and  O_7
REMARK    7  A    between atoms: C_6  and  C_8
REMARK    8  A    between atoms: C_8  and  O_9
REMARK    9  A    between atoms: O_9  and  C_10
REMARK   10  A    between atoms: C_15  and  O_16
REMARK   11  A    between atoms: O_16  and  C_17
REMARK   12  A    between atoms: C_17  and  C_18
REMARK                            x       y       z     vdW  Elec       q    Type
REMARK                         _______ _______ _______ _____ _____    ______ ____
ROOT
ATOM      1  O   UNL     1      -7.062   0.077 123.903  0.00  0.00    +0.000 OA
ENDROOT
BRANCH   1   2
ATOM      2  C   UNL     1      -7.640  -1.175 123.734  0.00  0.00    +0.000 A 
ATOM      3  C   UNL     1      -8.891  -1.070 123.075  0.00  0.00    +0.000 A 
ATOM      4  C   UNL     1      -9.775  -2.151 122.984  0.00  0.00    +0.000 A 
ATOM      5  C   UNL     1      -9.402  -3.387 123.489  0.00  0.00    +0.000 A 
ATOM      6  C   UNL     1      -8.169  -3.525 124.123  0.00  0.00    +0.000 A 
ATOM      7  C   UNL     1      -7.286  -2.441 124.296  0.00  0.00    +0.000 A 
BRANCH   7   8
ATOM      8  O   UNL     1      -6.226  -2.866 125.103  0.00  0.00    +0.000 OA
BRANCH   8   9
ATOM      9  C   UNL     1      -4.980  -2.668 124.503  0.00  0.00    +0.000 C 
BRANCH   9  10
ATOM     10  C   UNL     1      -4.448  -3.529 123.408  0.00  0.00    +0.000 C 
ATOM     11  C   UNL     1      -4.367  -4.880 123.565  0.00  0.00    +0.000 C 
ENDBRANCH   9  10
ENDBRANCH   8   9
ENDBRANCH   7   8
ENDBRANCH   1   2
BRANCH   1  12
ATOM     12  C   UNL     1      -7.765   1.215 123.421  0.00  0.00    +0.000 C 
BRANCH  12  13
ATOM     13  C   UNL     1      -7.801   2.455 124.308  0.00  0.00    +0.000 C 
BRANCH  13  14
ATOM     14  O   UNL     1      -8.827   3.342 123.901  0.00  0.00    +0.000 OA
ATOM     15  H   UNL     1      -8.475   3.820 123.133  0.00  0.00    +0.000 HD
ENDBRANCH  13  14
BRANCH  13  16
ATOM     16  C   UNL     1      -6.410   3.152 124.168  0.00  0.00    +0.000 C 
BRANCH  16  17
ATOM     17  N   UNL     1      -6.471   4.167 123.127  0.00  0.00    +0.000 NA
ATOM     18  H   UNL     1      -7.459   4.306 122.902  0.00  0.00    +0.000 HD
BRANCH  17  20
ATOM     19  C   UNL     1      -6.671   3.841 120.750  0.00  0.00    +0.000 C 
ATOM     20  C   UNL     1      -5.703   3.823 121.930  0.00  0.00    +0.000 C 
ATOM     21  C   UNL     1      -4.564   4.809 121.659  0.00  0.00    +0.000 C 
ENDBRANCH  17  20
ENDBRANCH  16  17
ENDBRANCH  13  16
ENDBRANCH  12  13
ENDBRANCH   1  12
TORSDOF 10
ENDMDL
MODEL 5
REMARK VINA RESULT:      -5.9      1.626      1.890
REMARK  Name = Oxprenolol
REMARK  12 active torsions:
REMARK  status: ('A' for Active; 'I' for Inactive)
REMARK    1  A    between atoms: C_1  and  C_2
REMARK    2  A    between atoms: C_2  and  C_3
REMARK    3  A    between atoms: C_2  and  N_4
REMARK    4  A    between atoms: N_4  and  C_5
REMARK    5  A    between atoms: C_5  and  C_6
REMARK    6  A    between atoms: C_6  and  O_7
REMARK    7  A    between atoms: C_6  and  C_8
REMARK    8  A    between atoms: C_8  and  O_9
REMARK    9  A    between atoms: O_9  and  C_10
REMARK   10  A    between atoms: C_15  and  O_16
REMARK   11  A    between atoms: O_16  and  C_17
REMARK   12  A    between atoms: C_17  and  C_18
REMARK                            x       y       z     vdW  Elec       q    Type
REMARK                         _______ _______ _______ _____ _____    ______ ____
ROOT
ATOM      1  O   UNL     1      -8.739  -0.486 124.303  0.00  0.00    +0.000 OA
ENDROOT
BRANCH   1   2
ATOM      2  C   UNL     1      -7.558  -1.216 124.250  0.00  0.00    +0.000 A 
ATOM      3  C   UNL     1      -7.050  -1.260 122.927  0.00  0.00    +0.000 A 
ATOM      4  C   UNL     1      -6.002  -2.113 122.564  0.00  0.00    +0.000 A 
ATOM      5  C   UNL     1      -5.386  -2.894 123.529  0.00  0.00    +0.000 A 
ATOM      6  C   UNL     1      -5.851  -2.854 124.842  0.00  0.00    +0.000 A 
ATOM      7  C   UNL     1      -6.950  -2.062 125.228  0.00  0.00    +0.000 A 
BRANCH   7   8
ATOM      8  O   UNL     1      -7.263  -2.368 126.556  0.00  0.00    +0.000 OA
BRANCH   8   9
ATOM      9  C   UNL     1      -8.317  -3.280 126.664  0.00  0.00    +0.000 C 
BRANCH   9  10
ATOM     10  C   UNL     1      -8.863  -3.755 127.968  0.00  0.00    +0.000 C 
ATOM     11  C   UNL     1      -8.280  -3.383 129.142  0.00  0.00    +0.000 C 
ENDBRANCH   9  10
ENDBRANCH   8   9
ENDBRANCH   7   8
ENDBRANCH   1   2
BRANCH   1  12
ATOM     12  C   UNL     1      -8.751   0.819 123.739  0.00  0.00    +0.000 C 
BRANCH  12  13
ATOM     13  C   UNL     1      -8.359   1.985 124.642  0.00  0.00    +0.000 C 
BRANCH  13  14
ATOM     14  O   UNL     1      -9.325   3.020 124.583  0.00  0.00    +0.000 OA
ATOM     15  H   UNL     1      -9.423   3.344 125.492  0.00  0.00    +0.000 HD
ENDBRANCH  13  14
BRANCH  13  16
ATOM     16  C   UNL     1      -6.983   2.514 124.126  0.00  0.00    +0.000 C 
BRANCH  16  17
ATOM     17  N   UNL     1      -6.857   2.249 122.702  0.00  0.00    +0.000 NA
ATOM     18  H   UNL     1      -5.981   1.740 122.567  0.00  0.00    +0.000 HD
BRANCH  17  20
ATOM     19  C   UNL     1      -5.745   3.359 120.877  0.00  0.00    +0.000 C 
ATOM     20  C   UNL     1      -6.893   3.458 121.877  0.00  0.00    +0.000 C 
ATOM     21  C   UNL     1      -8.212   3.610 121.114  0.00  0.00    +0.000 C 
ENDBRANCH  17  20
ENDBRANCH  16  17
ENDBRANCH  13  16
ENDBRANCH  12  13
ENDBRANCH   1  12
TORSDOF 10
ENDMDL
MODEL 6
REMARK VINA RESULT:      -5.8      2.885      6.639
REMARK  Name = Oxprenolol
REMARK  12 active torsions:
REMARK  status: ('A' for Active; 'I' for Inactive)
REMARK    1  A    between atoms: C_1  and  C_2
REMARK    2  A    between atoms: C_2  and  C_3
REMARK    3  A    between atoms: C_2  and  N_4
REMARK    4  A    between atoms: N_4  and  C_5
REMARK    5  A    between atoms: C_5  and  C_6
REMARK    6  A    between atoms: C_6  and  O_7
REMARK    7  A    between atoms: C_6  and  C_8
REMARK    8  A    between atoms: C_8  and  O_9
REMARK    9  A    between atoms: O_9  and  C_10
REMARK   10  A    between atoms: C_15  and  O_16
REMARK   11  A    between atoms: O_16  and  C_17
REMARK   12  A    between atoms: C_17  and  C_18
REMARK                            x       y       z     vdW  Elec       q    Type
REMARK                         _______ _______ _______ _____ _____    ______ ____
ROOT
ATOM      1  O   UNL     1      -9.085   2.808 122.139  0.00  0.00    +0.000 OA
ENDROOT
BRANCH   1   2
ATOM      2  C   UNL     1      -7.887   3.415 121.783  0.00  0.00    +0.000 A 
ATOM      3  C   UNL     1      -7.921   3.849 120.434  0.00  0.00    +0.000 A 
ATOM      4  C   UNL     1      -6.771   4.285 119.767  0.00  0.00    +0.000 A 
ATOM      5  C   UNL     1      -5.568   4.365 120.451  0.00  0.00    +0.000 A 
ATOM      6  C   UNL     1      -5.511   3.967 121.785  0.00  0.00    +0.000 A 
ATOM      7  C   UNL     1      -6.632   3.455 122.466  0.00  0.00    +0.000 A 
BRANCH   7   8
ATOM      8  O   UNL     1      -6.211   2.998 123.719  0.00  0.00    +0.000 OA
BRANCH   8   9
ATOM      9  C   UNL     1      -6.245   3.997 124.696  0.00  0.00    +0.000 C 
BRANCH   9  10
ATOM     10  C   UNL     1      -5.121   4.267 125.637  0.00  0.00    +0.000 C 
ATOM     11  C   UNL     1      -4.345   3.248 126.102  0.00  0.00    +0.000 C 
ENDBRANCH   9  10
ENDBRANCH   8   9
ENDBRANCH   7   8
ENDBRANCH   1   2
BRANCH   1  12
ATOM     12  C   UNL     1      -9.063   1.821 123.162  0.00  0.00    +0.000 C 
BRANCH  12  13
ATOM     13  C   UNL     1      -9.519   0.412 122.798  0.00  0.00    +0.000 C 
BRANCH  13  14
ATOM     14  O   UNL     1     -10.921   0.367 122.598  0.00  0.00    +0.000 OA
ATOM     15  H   UNL     1     -11.307   0.163 123.465  0.00  0.00    +0.000 HD
ENDBRANCH  13  14
BRANCH  13  16
ATOM     16  C   UNL     1      -9.125  -0.514 123.993  0.00  0.00    +0.000 C 
BRANCH  16  17
ATOM     17  N   UNL     1      -7.854  -1.164 123.712  0.00  0.00    +0.000 NA
ATOM     18  H   UNL     1      -7.405  -0.633 122.963  0.00  0.00    +0.000 HD
BRANCH  17  20
ATOM     19  C   UNL     1      -7.028  -3.364 124.237  0.00  0.00    +0.000 C 
ATOM     20  C   UNL     1      -7.987  -2.575 123.349  0.00  0.00    +0.000 C 
ATOM     21  C   UNL     1      -9.409  -3.103 123.554  0.00  0.00    +0.000 C 
ENDBRANCH  17  20
ENDBRANCH  16  17
ENDBRANCH  13  16
ENDBRANCH  12  13
ENDBRANCH   1  12
TORSDOF 10
ENDMDL
MODEL 7
REMARK VINA RESULT:      -5.7      4.393      5.536
REMARK  Name = Oxprenolol
REMARK  12 active torsions:
REMARK  status: ('A' for Active; 'I' for Inactive)
REMARK    1  A    between atoms: C_1  and  C_2
REMARK    2  A    between atoms: C_2  and  C_3
REMARK    3  A    between atoms: C_2  and  N_4
REMARK    4  A    between atoms: N_4  and  C_5
REMARK    5  A    between atoms: C_5  and  C_6
REMARK    6  A    between atoms: C_6  and  O_7
REMARK    7  A    between atoms: C_6  and  C_8
REMARK    8  A    between atoms: C_8  and  O_9
REMARK    9  A    between atoms: O_9  and  C_10
REMARK   10  A    between atoms: C_15  and  O_16
REMARK   11  A    between atoms: O_16  and  C_17
REMARK   12  A    between atoms: C_17  and  C_18
REMARK                            x       y       z     vdW  Elec       q    Type
REMARK                         _______ _______ _______ _____ _____    ______ ____
ROOT
ATOM      1  O   UNL     1      -5.667  -1.480 128.336  0.00  0.00    +0.000 OA
ENDROOT
BRANCH   1   2
ATOM      2  C   UNL     1      -6.818  -2.102 127.869  0.00  0.00    +0.000 A 
ATOM      3  C   UNL     1      -7.551  -2.678 128.937  0.00  0.00    +0.000 A 
ATOM      4  C   UNL     1      -8.624  -3.549 128.715  0.00  0.00    +0.000 A 
ATOM      5  C   UNL     1      -9.037  -3.813 127.419  0.00  0.00    +0.000 A 
ATOM      6  C   UNL     1      -8.349  -3.243 126.351  0.00  0.00    +0.000 A 
ATOM      7  C   UNL     1      -7.221  -2.420 126.535  0.00  0.00    +0.000 A 
BRANCH   7   8
ATOM      8  O   UNL     1      -6.669  -2.148 125.279  0.00  0.00    +0.000 OA
BRANCH   8   9
ATOM      9  C   UNL     1      -5.520  -2.900 125.021  0.00  0.00    +0.000 C 
BRANCH   9  10
ATOM     10  C   UNL     1      -5.206  -3.495 123.691  0.00  0.00    +0.000 C 
ATOM     11  C   UNL     1      -4.258  -4.466 123.571  0.00  0.00    +0.000 C 
ENDBRANCH   9  10
ENDBRANCH   8   9
ENDBRANCH   7   8
ENDBRANCH   1   2
BRANCH   1  12
ATOM     12  C   UNL     1      -5.707  -0.079 128.577  0.00  0.00    +0.000 C 
BRANCH  12  13
ATOM     13  C   UNL     1      -5.510   0.851 127.384  0.00  0.00    +0.000 C 
BRANCH  13  14
ATOM     14  O   UNL     1      -4.808   0.198 126.341  0.00  0.00    +0.000 OA
ATOM     15  H   UNL     1      -4.475   0.903 125.763  0.00  0.00    +0.000 HD
ENDBRANCH  13  14
BRANCH  13  16
ATOM     16  C   UNL     1      -4.682   2.073 127.896  0.00  0.00    +0.000 C 
BRANCH  16  17
ATOM     17  N   UNL     1      -3.690   2.447 126.900  0.00  0.00    +0.000 NA
ATOM     18  H   UNL     1      -3.414   1.590 126.415  0.00  0.00    +0.000 HD
BRANCH  17  20
ATOM     19  C   UNL     1      -1.373   2.947 126.480  0.00  0.00    +0.000 C 
ATOM     20  C   UNL     1      -2.526   3.131 127.463  0.00  0.00    +0.000 C 
ATOM     21  C   UNL     1      -2.769   4.627 127.676  0.00  0.00    +0.000 C 
ENDBRANCH  17  20
ENDBRANCH  16  17
ENDBRANCH  13  16
ENDBRANCH  12  13
ENDBRANCH   1  12
TORSDOF 10
ENDMDL
MODEL 8
REMARK VINA RESULT:      -5.7      2.964      4.646
REMARK  Name = Oxprenolol
REMARK  12 active torsions:
REMARK  status: ('A' for Active; 'I' for Inactive)
REMARK    1  A    between atoms: C_1  and  C_2
REMARK    2  A    between atoms: C_2  and  C_3
REMARK    3  A    between atoms: C_2  and  N_4
REMARK    4  A    between atoms: N_4  and  C_5
REMARK    5  A    between atoms: C_5  and  C_6
REMARK    6  A    between atoms: C_6  and  O_7
REMARK    7  A    between atoms: C_6  and  C_8
REMARK    8  A    between atoms: C_8  and  O_9
REMARK    9  A    between atoms: O_9  and  C_10
REMARK   10  A    between atoms: C_15  and  O_16
REMARK   11  A    between atoms: O_16  and  C_17
REMARK   12  A    between atoms: C_17  and  C_18
REMARK                            x       y       z     vdW  Elec       q    Type
REMARK                         _______ _______ _______ _____ _____    ______ ____
ROOT
ATOM      1  O   UNL     1      -5.695  -1.480 127.262  0.00  0.00    +0.000 OA
ENDROOT
BRANCH   1   2
ATOM      2  C   UNL     1      -6.898  -2.173 127.323  0.00  0.00    +0.000 A 
ATOM      3  C   UNL     1      -7.166  -2.604 128.647  0.00  0.00    +0.000 A 
ATOM      4  C   UNL     1      -8.193  -3.509 128.938  0.00  0.00    +0.000 A 
ATOM      5  C   UNL     1      -9.024  -3.955 127.922  0.00  0.00    +0.000 A 
ATOM      6  C   UNL     1      -8.797  -3.530 126.615  0.00  0.00    +0.000 A 
ATOM      7  C   UNL     1      -7.729  -2.677 126.275  0.00  0.00    +0.000 A 
BRANCH   7   8
ATOM      8  O   UNL     1      -7.678  -2.574 124.882  0.00  0.00    +0.000 OA
BRANCH   8   9
ATOM      9  C   UNL     1      -6.838  -3.529 124.302  0.00  0.00    +0.000 C 
BRANCH   9  10
ATOM     10  C   UNL     1      -5.428  -3.250 123.903  0.00  0.00    +0.000 C 
ATOM     11  C   UNL     1      -4.532  -4.267 123.768  0.00  0.00    +0.000 C 
ENDBRANCH   9  10
ENDBRANCH   8   9
ENDBRANCH   7   8
ENDBRANCH   1   2
BRANCH   1  12
ATOM     12  C   UNL     1      -5.732  -0.059 127.314  0.00  0.00    +0.000 C 
BRANCH  12  13
ATOM     13  C   UNL     1      -5.043   0.710 126.192  0.00  0.00    +0.000 C 
BRANCH  13  14
ATOM     14  O   UNL     1      -4.145   1.674 126.713  0.00  0.00    +0.000 OA
ATOM     15  H   UNL     1      -3.288   1.226 126.787  0.00  0.00    +0.000 HD
ENDBRANCH  13  14
BRANCH  13  16
ATOM     16  C   UNL     1      -6.167   1.421 125.373  0.00  0.00    +0.000 C 
BRANCH  16  17
ATOM     17  N   UNL     1      -7.130   0.437 124.903  0.00  0.00    +0.000 NA
ATOM     18  H   UNL     1      -6.776   0.070 124.016  0.00  0.00    +0.000 HD
BRANCH  17  20
ATOM     19  C   UNL     1      -9.059   0.380 123.463  0.00  0.00    +0.000 C 
ATOM     20  C   UNL     1      -8.483   0.971 124.747  0.00  0.00    +0.000 C 
ATOM     21  C   UNL     1      -9.397   0.608 125.920  0.00  0.00    +0.000 C 
ENDBRANCH  17  20
ENDBRANCH  16  17
ENDBRANCH  13  16
ENDBRANCH  12  13
ENDBRANCH   1  12
TORSDOF 10
ENDMDL
MODEL 9
REMARK VINA RESULT:      -5.7      1.534      3.541
REMARK  Name = Oxprenolol
REMARK  12 active torsions:
REMARK  status: ('A' for Active; 'I' for Inactive)
REMARK    1  A    between atoms: C_1  and  C_2
REMARK    2  A    between atoms: C_2  and  C_3
REMARK    3  A    between atoms: C_2  and  N_4
REMARK    4  A    between atoms: N_4  and  C_5
REMARK    5  A    between atoms: C_5  and  C_6
REMARK    6  A    between atoms: C_6  and  O_7
REMARK    7  A    between atoms: C_6  and  C_8
REMARK    8  A    between atoms: C_8  and  O_9
REMARK    9  A    between atoms: O_9  and  C_10
REMARK   10  A    between atoms: C_15  and  O_16
REMARK   11  A    between atoms: O_16  and  C_17
REMARK   12  A    between atoms: C_17  and  C_18
REMARK                            x       y       z     vdW  Elec       q    Type
REMARK                         _______ _______ _______ _____ _____    ______ ____
ROOT
ATOM      1  O   UNL     1      -7.556  -0.105 125.822  0.00  0.00    +0.000 OA
ENDROOT
BRANCH   1   2
ATOM      2  C   UNL     1      -8.167  -1.236 126.349  0.00  0.00    +0.000 A 
ATOM      3  C   UNL     1      -7.663  -1.528 127.641  0.00  0.00    +0.000 A 
ATOM      4  C   UNL     1      -7.947  -2.734 128.293  0.00  0.00    +0.000 A 
ATOM      5  C   UNL     1      -8.798  -3.652 127.698  0.00  0.00    +0.000 A 
ATOM      6  C   UNL     1      -9.326  -3.381 126.438  0.00  0.00    +0.000 A 
ATOM      7  C   UNL     1      -9.004  -2.211 125.723  0.00  0.00    +0.000 A 
BRANCH   7   8
ATOM      8  O   UNL     1      -9.556  -2.317 124.442  0.00  0.00    +0.000 OA
BRANCH   8   9
ATOM      9  C   UNL     1      -8.674  -2.887 123.521  0.00  0.00    +0.000 C 
BRANCH   9  10
ATOM     10  C   UNL     1      -7.825  -2.089 122.591  0.00  0.00    +0.000 C 
ATOM     11  C   UNL     1      -6.489  -1.953 122.816  0.00  0.00    +0.000 C 
ENDBRANCH   9  10
ENDBRANCH   8   9
ENDBRANCH   7   8
ENDBRANCH   1   2
BRANCH   1  12
ATOM     12  C   UNL     1      -8.260   0.646 124.841  0.00  0.00    +0.000 C 
BRANCH  12  13
ATOM     13  C   UNL     1      -9.053   1.861 125.313  0.00  0.00    +0.000 C 
BRANCH  13  14
ATOM     14  O   UNL     1     -10.091   2.176 124.401  0.00  0.00    +0.000 OA
ATOM     15  H   UNL     1     -10.789   1.520 124.558  0.00  0.00    +0.000 HD
ENDBRANCH  13  14
BRANCH  13  16
ATOM     16  C   UNL     1      -8.046   3.052 125.401  0.00  0.00    +0.000 C 
BRANCH  16  17
ATOM     17  N   UNL     1      -8.046   3.790 124.148  0.00  0.00    +0.000 NA
ATOM     18  H   UNL     1      -8.752   3.360 123.547  0.00  0.00    +0.000 HD
BRANCH  17  20
ATOM     19  C   UNL     1      -5.686   3.540 124.554  0.00  0.00    +0.000 C 
ATOM     20  C   UNL     1      -6.740   3.818 123.487  0.00  0.00    +0.000 C 
ATOM     21  C   UNL     1      -6.621   2.770 122.378  0.00  0.00    +0.000 C 
ENDBRANCH  17  20
ENDBRANCH  16  17
ENDBRANCH  13  16
ENDBRANCH  12  13
ENDBRANCH   1  12
TORSDOF 10
ENDMDL
