MODEL 1
REMARK VINA RESULT:      -7.0      0.000      0.000
REMARK  Name = Oxybenzone
REMARK  5 active torsions:
REMARK  status: ('A' for Active; 'I' for Inactive)
REMARK    1  A    between atoms: C_1  and  O_2
REMARK    2  A    between atoms: O_2  and  C_3
REMARK    3  A    between atoms: C_5  and  O_6
REMARK    4  A    between atoms: C_7  and  C_10
REMARK    5  A    between atoms: C_10  and  C_12
REMARK                            x       y       z     vdW  Elec       q    Type
REMARK                         _______ _______ _______ _____ _____    ______ ____
ROOT
ATOM      1  C   UNL     1      -7.382   6.448 131.495  0.00  0.00    +0.000 A 
ATOM      2  C   UNL     1      -8.211   5.801 132.418  0.00  0.00    +0.000 A 
ATOM      3  C   UNL     1      -9.603   5.895 132.313  0.00  0.00    +0.000 A 
ATOM      4  C   UNL     1     -10.191   6.645 131.284  0.00  0.00    +0.000 A 
ATOM      5  C   UNL     1      -9.343   7.291 130.369  0.00  0.00    +0.000 A 
ATOM      6  C   UNL     1      -7.955   7.181 130.462  0.00  0.00    +0.000 A 
ENDROOT
BRANCH   1   8
ATOM      7  C   UNL     1      -5.184   7.140 130.926  0.00  0.00    +0.000 C 
ATOM      8  O   UNL     1      -6.037   6.302 131.702  0.00  0.00    +0.000 OA
ENDBRANCH   1   8
BRANCH   3   9
ATOM      9  O   UNL     1     -10.382   5.246 133.230  0.00  0.00    +0.000 OA
ATOM     10  H   UNL     1     -11.140   4.817 132.806  0.00  0.00    +0.000 HD
ENDBRANCH   3   9
BRANCH   4  11
ATOM     11  C   UNL     1     -11.678   6.791 131.167  0.00  0.00    +0.000 C 
ATOM     12  O   UNL     1     -12.459   6.501 132.073  0.00  0.00    +0.000 OA
BRANCH  11  13
ATOM     13  C   UNL     1     -12.296   7.312 129.933  0.00  0.00    +0.000 A 
ATOM     14  C   UNL     1     -12.503   8.689 129.807  0.00  0.00    +0.000 A 
ATOM     15  C   UNL     1     -13.199   9.177 128.703  0.00  0.00    +0.000 A 
ATOM     16  C   UNL     1     -13.623   8.302 127.701  0.00  0.00    +0.000 A 
ATOM     17  C   UNL     1     -13.394   6.931 127.818  0.00  0.00    +0.000 A 
ATOM     18  C   UNL     1     -12.752   6.430 128.948  0.00  0.00    +0.000 A 
ENDBRANCH  11  13
ENDBRANCH   4  11
TORSDOF 4
ENDMDL
MODEL 2
REMARK VINA RESULT:      -6.8      2.045      5.646
REMARK  Name = Oxybenzone
REMARK  5 active torsions:
REMARK  status: ('A' for Active; 'I' for Inactive)
REMARK    1  A    between atoms: C_1  and  O_2
REMARK    2  A    between atoms: O_2  and  C_3
REMARK    3  A    between atoms: C_5  and  O_6
REMARK    4  A    between atoms: C_7  and  C_10
REMARK    5  A    between atoms: C_10  and  C_12
REMARK                            x       y       z     vdW  Elec       q    Type
REMARK                         _______ _______ _______ _____ _____    ______ ____
ROOT
ATOM      1  C   UNL     1     -12.542   8.970 129.253  0.00  0.00    +0.000 A 
ATOM      2  C   UNL     1     -12.781   8.172 130.376  0.00  0.00    +0.000 A 
ATOM      3  C   UNL     1     -11.982   7.053 130.638  0.00  0.00    +0.000 A 
ATOM      4  C   UNL     1     -10.932   6.710 129.774  0.00  0.00    +0.000 A 
ATOM      5  C   UNL     1     -10.709   7.520 128.649  0.00  0.00    +0.000 A 
ATOM      6  C   UNL     1     -11.493   8.648 128.399  0.00  0.00    +0.000 A 
ENDROOT
BRANCH   1   8
ATOM      7  C   UNL     1     -13.457  10.963 130.160  0.00  0.00    +0.000 C 
ATOM      8  O   UNL     1     -13.393  10.028 129.086  0.00  0.00    +0.000 OA
ENDBRANCH   1   8
BRANCH   3   9
ATOM      9  O   UNL     1     -12.242   6.298 131.748  0.00  0.00    +0.000 OA
ATOM     10  H   UNL     1     -12.798   5.535 131.530  0.00  0.00    +0.000 HD
ENDBRANCH   3   9
BRANCH   4  11
ATOM     11  C   UNL     1     -10.082   5.499 130.011  0.00  0.00    +0.000 C 
ATOM     12  O   UNL     1     -10.518   4.348 129.974  0.00  0.00    +0.000 OA
BRANCH  11  13
ATOM     13  C   UNL     1      -8.641   5.626 130.300  0.00  0.00    +0.000 A 
ATOM     14  C   UNL     1      -8.192   6.721 131.044  0.00  0.00    +0.000 A 
ATOM     15  C   UNL     1      -6.822   6.917 131.214  0.00  0.00    +0.000 A 
ATOM     16  C   UNL     1      -5.915   5.987 130.703  0.00  0.00    +0.000 A 
ATOM     17  C   UNL     1      -6.367   4.882 129.982  0.00  0.00    +0.000 A 
ATOM     18  C   UNL     1      -7.731   4.713 129.756  0.00  0.00    +0.000 A 
ENDBRANCH  11  13
ENDBRANCH   4  11
TORSDOF 4
ENDMDL
MODEL 3
REMARK VINA RESULT:      -6.8      2.147      5.979
REMARK  Name = Oxybenzone
REMARK  5 active torsions:
REMARK  status: ('A' for Active; 'I' for Inactive)
REMARK    1  A    between atoms: C_1  and  O_2
REMARK    2  A    between atoms: O_2  and  C_3
REMARK    3  A    between atoms: C_5  and  O_6
REMARK    4  A    between atoms: C_7  and  C_10
REMARK    5  A    between atoms: C_10  and  C_12
REMARK                            x       y       z     vdW  Elec       q    Type
REMARK                         _______ _______ _______ _____ _____    ______ ____
ROOT
ATOM      1  C   UNL     1     -13.197   9.439 129.219  0.00  0.00    +0.000 A 
ATOM      2  C   UNL     1     -12.589   8.655 128.233  0.00  0.00    +0.000 A 
ATOM      3  C   UNL     1     -11.896   7.489 128.577  0.00  0.00    +0.000 A 
ATOM      4  C   UNL     1     -11.794   7.091 129.918  0.00  0.00    +0.000 A 
ATOM      5  C   UNL     1     -12.407   7.892 130.895  0.00  0.00    +0.000 A 
ATOM      6  C   UNL     1     -13.116   9.044 130.549  0.00  0.00    +0.000 A 
ENDROOT
BRANCH   1   8
ATOM      7  C   UNL     1     -13.852  11.677 129.664  0.00  0.00    +0.000 C 
ATOM      8  O   UNL     1     -13.834  10.565 128.772  0.00  0.00    +0.000 OA
ENDBRANCH   1   8
BRANCH   3   9
ATOM      9  O   UNL     1     -11.318   6.745 127.587  0.00  0.00    +0.000 OA
ATOM     10  H   UNL     1     -10.907   5.944 127.944  0.00  0.00    +0.000 HD
ENDBRANCH   3   9
BRANCH   4  11
ATOM     11  C   UNL     1     -11.030   5.866 130.319  0.00  0.00    +0.000 C 
ATOM     12  O   UNL     1     -11.353   4.726 129.983  0.00  0.00    +0.000 OA
BRANCH  11  13
ATOM     13  C   UNL     1      -9.816   5.965 131.151  0.00  0.00    +0.000 A 
ATOM     14  C   UNL     1      -8.708   6.660 130.655  0.00  0.00    +0.000 A 
ATOM     15  C   UNL     1      -7.517   6.653 131.377  0.00  0.00    +0.000 A 
ATOM     16  C   UNL     1      -7.455   6.014 132.617  0.00  0.00    +0.000 A 
ATOM     17  C   UNL     1      -8.569   5.342 133.120  0.00  0.00    +0.000 A 
ATOM     18  C   UNL     1      -9.744   5.294 132.376  0.00  0.00    +0.000 A 
ENDBRANCH  11  13
ENDBRANCH   4  11
TORSDOF 4
ENDMDL
MODEL 4
REMARK VINA RESULT:      -6.7      2.279      3.040
REMARK  Name = Oxybenzone
REMARK  5 active torsions:
REMARK  status: ('A' for Active; 'I' for Inactive)
REMARK    1  A    between atoms: C_1  and  O_2
REMARK    2  A    between atoms: O_2  and  C_3
REMARK    3  A    between atoms: C_5  and  O_6
REMARK    4  A    between atoms: C_7  and  C_10
REMARK    5  A    between atoms: C_10  and  C_12
REMARK                            x       y       z     vdW  Elec       q    Type
REMARK                         _______ _______ _______ _____ _____    ______ ____
ROOT
ATOM      1  C   UNL     1      -8.978   3.208 131.954  0.00  0.00    +0.000 A 
ATOM      2  C   UNL     1      -9.062   4.354 132.752  0.00  0.00    +0.000 A 
ATOM      3  C   UNL     1      -9.971   5.372 132.443  0.00  0.00    +0.000 A 
ATOM      4  C   UNL     1     -10.808   5.265 131.322  0.00  0.00    +0.000 A 
ATOM      5  C   UNL     1     -10.706   4.110 130.530  0.00  0.00    +0.000 A 
ATOM      6  C   UNL     1      -9.815   3.085 130.850  0.00  0.00    +0.000 A 
ENDROOT
BRANCH   1   8
ATOM      7  C   UNL     1      -8.361   0.920 132.071  0.00  0.00    +0.000 C 
ATOM      8  O   UNL     1      -8.046   2.284 132.339  0.00  0.00    +0.000 OA
ENDBRANCH   1   8
BRANCH   3   9
ATOM      9  O   UNL     1     -10.028   6.476 133.248  0.00  0.00    +0.000 OA
ATOM     10  H   UNL     1     -10.762   6.413 133.878  0.00  0.00    +0.000 HD
ENDBRANCH   3   9
BRANCH   4  11
ATOM     11  C   UNL     1     -11.765   6.355 130.947  0.00  0.00    +0.000 C 
ATOM     12  O   UNL     1     -12.626   6.792 131.712  0.00  0.00    +0.000 OA
BRANCH  11  13
ATOM     13  C   UNL     1     -11.719   6.981 129.613  0.00  0.00    +0.000 A 
ATOM     14  C   UNL     1     -12.733   6.693 128.693  0.00  0.00    +0.000 A 
ATOM     15  C   UNL     1     -12.632   7.179 127.391  0.00  0.00    +0.000 A 
ATOM     16  C   UNL     1     -11.562   8.002 127.033  0.00  0.00    +0.000 A 
ATOM     17  C   UNL     1     -10.565   8.307 127.959  0.00  0.00    +0.000 A 
ATOM     18  C   UNL     1     -10.628   7.775 129.245  0.00  0.00    +0.000 A 
ENDBRANCH  11  13
ENDBRANCH   4  11
TORSDOF 4
ENDMDL
MODEL 5
REMARK VINA RESULT:      -6.5      2.482      3.499
REMARK  Name = Oxybenzone
REMARK  5 active torsions:
REMARK  status: ('A' for Active; 'I' for Inactive)
REMARK    1  A    between atoms: C_1  and  O_2
REMARK    2  A    between atoms: O_2  and  C_3
REMARK    3  A    between atoms: C_5  and  O_6
REMARK    4  A    between atoms: C_7  and  C_10
REMARK    5  A    between atoms: C_10  and  C_12
REMARK                            x       y       z     vdW  Elec       q    Type
REMARK                         _______ _______ _______ _____ _____    ______ ____
ROOT
ATOM      1  C   UNL     1      -9.319   2.675 132.116  0.00  0.00    +0.000 A 
ATOM      2  C   UNL     1      -9.299   3.770 132.987  0.00  0.00    +0.000 A 
ATOM      3  C   UNL     1      -9.310   5.077 132.487  0.00  0.00    +0.000 A 
ATOM      4  C   UNL     1      -9.332   5.311 131.105  0.00  0.00    +0.000 A 
ATOM      5  C   UNL     1      -9.348   4.200 130.245  0.00  0.00    +0.000 A 
ATOM      6  C   UNL     1      -9.358   2.896 130.744  0.00  0.00    +0.000 A 
ENDROOT
BRANCH   1   8
ATOM      7  C   UNL     1      -9.022   0.334 131.857  0.00  0.00    +0.000 C 
ATOM      8  O   UNL     1      -9.291   1.443 132.712  0.00  0.00    +0.000 OA
ENDBRANCH   1   8
BRANCH   3   9
ATOM      9  O   UNL     1      -9.294   6.122 133.368  0.00  0.00    +0.000 OA
ATOM     10  H   UNL     1      -8.692   5.949 134.107  0.00  0.00    +0.000 HD
ENDBRANCH   3   9
BRANCH   4  11
ATOM     11  C   UNL     1      -9.309   6.699 130.541  0.00  0.00    +0.000 C 
ATOM     12  O   UNL     1      -8.305   7.412 130.539  0.00  0.00    +0.000 OA
BRANCH  11  13
ATOM     13  C   UNL     1     -10.516   7.295 129.937  0.00  0.00    +0.000 A 
ATOM     14  C   UNL     1     -10.392   8.015 128.744  0.00  0.00    +0.000 A 
ATOM     15  C   UNL     1     -11.501   8.687 128.234  0.00  0.00    +0.000 A 
ATOM     16  C   UNL     1     -12.737   8.582 128.874  0.00  0.00    +0.000 A 
ATOM     17  C   UNL     1     -12.863   7.843 130.051  0.00  0.00    +0.000 A 
ATOM     18  C   UNL     1     -11.745   7.220 130.599  0.00  0.00    +0.000 A 
ENDBRANCH  11  13
ENDBRANCH   4  11
TORSDOF 4
ENDMDL
MODEL 6
REMARK VINA RESULT:      -6.4      2.362      5.871
REMARK  Name = Oxybenzone
REMARK  5 active torsions:
REMARK  status: ('A' for Active; 'I' for Inactive)
REMARK    1  A    between atoms: C_1  and  O_2
REMARK    2  A    between atoms: O_2  and  C_3
REMARK    3  A    between atoms: C_5  and  O_6
REMARK    4  A    between atoms: C_7  and  C_10
REMARK    5  A    between atoms: C_10  and  C_12
REMARK                            x       y       z     vdW  Elec       q    Type
REMARK                         _______ _______ _______ _____ _____    ______ ____
ROOT
ATOM      1  C   UNL     1     -12.210   7.890 129.514  0.00  0.00    +0.000 A 
ATOM      2  C   UNL     1     -10.819   7.904 129.361  0.00  0.00    +0.000 A 
ATOM      3  C   UNL     1      -9.997   7.223 130.266  0.00  0.00    +0.000 A 
ATOM      4  C   UNL     1     -10.552   6.522 131.345  0.00  0.00    +0.000 A 
ATOM      5  C   UNL     1     -11.950   6.522 131.486  0.00  0.00    +0.000 A 
ATOM      6  C   UNL     1     -12.772   7.184 130.572  0.00  0.00    +0.000 A 
ENDROOT
BRANCH   1   8
ATOM      7  C   UNL     1     -13.813   7.853 127.765  0.00  0.00    +0.000 C 
ATOM      8  O   UNL     1     -12.916   8.601 128.582  0.00  0.00    +0.000 OA
ENDBRANCH   1   8
BRANCH   3   9
ATOM      9  O   UNL     1      -8.642   7.255 130.082  0.00  0.00    +0.000 OA
ATOM     10  H   UNL     1      -8.357   8.106 129.718  0.00  0.00    +0.000 HD
ENDBRANCH   3   9
BRANCH   4  11
ATOM     11  C   UNL     1      -9.694   5.813 132.349  0.00  0.00    +0.000 C 
ATOM     12  O   UNL     1      -9.129   6.386 133.281  0.00  0.00    +0.000 OA
BRANCH  11  13
ATOM     13  C   UNL     1      -9.484   4.355 132.275  0.00  0.00    +0.000 A 
ATOM     14  C   UNL     1      -8.842   3.707 133.336  0.00  0.00    +0.000 A 
ATOM     15  C   UNL     1      -8.527   2.355 133.221  0.00  0.00    +0.000 A 
ATOM     16  C   UNL     1      -8.912   1.642 132.084  0.00  0.00    +0.000 A 
ATOM     17  C   UNL     1      -9.574   2.285 131.038  0.00  0.00    +0.000 A 
ATOM     18  C   UNL     1      -9.838   3.650 131.120  0.00  0.00    +0.000 A 
ENDBRANCH  11  13
ENDBRANCH   4  11
TORSDOF 4
ENDMDL
MODEL 7
REMARK VINA RESULT:      -6.4      2.422      5.542
REMARK  Name = Oxybenzone
REMARK  5 active torsions:
REMARK  status: ('A' for Active; 'I' for Inactive)
REMARK    1  A    between atoms: C_1  and  O_2
REMARK    2  A    between atoms: O_2  and  C_3
REMARK    3  A    between atoms: C_5  and  O_6
REMARK    4  A    between atoms: C_7  and  C_10
REMARK    5  A    between atoms: C_10  and  C_12
REMARK                            x       y       z     vdW  Elec       q    Type
REMARK                         _______ _______ _______ _____ _____    ______ ____
ROOT
ATOM      1  C   UNL     1     -12.398   8.510 128.997  0.00  0.00    +0.000 A 
ATOM      2  C   UNL     1     -12.797   7.773 130.118  0.00  0.00    +0.000 A 
ATOM      3  C   UNL     1     -11.867   7.017 130.841  0.00  0.00    +0.000 A 
ATOM      4  C   UNL     1     -10.521   6.979 130.449  0.00  0.00    +0.000 A 
ATOM      5  C   UNL     1     -10.139   7.721 129.320  0.00  0.00    +0.000 A 
ATOM      6  C   UNL     1     -11.062   8.491 128.611  0.00  0.00    +0.000 A 
ENDROOT
BRANCH   1   8
ATOM      7  C   UNL     1     -13.765  10.448 128.935  0.00  0.00    +0.000 C 
ATOM      8  O   UNL     1     -13.391   9.200 128.357  0.00  0.00    +0.000 OA
ENDBRANCH   1   8
BRANCH   3   9
ATOM      9  O   UNL     1     -12.293   6.313 131.933  0.00  0.00    +0.000 OA
ATOM     10  H   UNL     1     -13.090   5.801 131.732  0.00  0.00    +0.000 HD
ENDBRANCH   3   9
BRANCH   4  11
ATOM     11  C   UNL     1      -9.511   6.150 131.184  0.00  0.00    +0.000 C 
ATOM     12  O   UNL     1      -9.131   6.404 132.327  0.00  0.00    +0.000 OA
BRANCH  11  13
ATOM     13  C   UNL     1      -8.913   4.954 130.563  0.00  0.00    +0.000 A 
ATOM     14  C   UNL     1      -7.593   5.016 130.104  0.00  0.00    +0.000 A 
ATOM     15  C   UNL     1      -7.061   3.935 129.403  0.00  0.00    +0.000 A 
ATOM     16  C   UNL     1      -7.820   2.776 129.225  0.00  0.00    +0.000 A 
ATOM     17  C   UNL     1      -9.128   2.708 129.705  0.00  0.00    +0.000 A 
ATOM     18  C   UNL     1      -9.687   3.808 130.352  0.00  0.00    +0.000 A 
ENDBRANCH  11  13
ENDBRANCH   4  11
TORSDOF 4
ENDMDL
MODEL 8
REMARK VINA RESULT:      -6.3      1.415      1.740
REMARK  Name = Oxybenzone
REMARK  5 active torsions:
REMARK  status: ('A' for Active; 'I' for Inactive)
REMARK    1  A    between atoms: C_1  and  O_2
REMARK    2  A    between atoms: O_2  and  C_3
REMARK    3  A    between atoms: C_5  and  O_6
REMARK    4  A    between atoms: C_7  and  C_10
REMARK    5  A    between atoms: C_10  and  C_12
REMARK                            x       y       z     vdW  Elec       q    Type
REMARK                         _______ _______ _______ _____ _____    ______ ____
ROOT
ATOM      1  C   UNL     1      -7.194   5.904 132.237  0.00  0.00    +0.000 A 
ATOM      2  C   UNL     1      -8.071   4.850 132.517  0.00  0.00    +0.000 A 
ATOM      3  C   UNL     1      -9.292   4.742 131.841  0.00  0.00    +0.000 A 
ATOM      4  C   UNL     1      -9.660   5.692 130.878  0.00  0.00    +0.000 A 
ATOM      5  C   UNL     1      -8.769   6.745 130.613  0.00  0.00    +0.000 A 
ATOM      6  C   UNL     1      -7.542   6.842 131.272  0.00  0.00    +0.000 A 
ENDROOT
BRANCH   1   8
ATOM      7  C   UNL     1      -4.858   6.319 132.271  0.00  0.00    +0.000 C 
ATOM      8  O   UNL     1      -6.037   5.921 132.967  0.00  0.00    +0.000 OA
ENDBRANCH   1   8
BRANCH   3   9
ATOM      9  O   UNL     1     -10.122   3.697 132.138  0.00  0.00    +0.000 OA
ATOM     10  H   UNL     1      -9.722   3.105 132.791  0.00  0.00    +0.000 HD
ENDBRANCH   3   9
BRANCH   4  11
ATOM     11  C   UNL     1     -10.976   5.621 130.164  0.00  0.00    +0.000 C 
ATOM     12  O   UNL     1     -11.547   4.562 129.904  0.00  0.00    +0.000 OA
BRANCH  11  13
ATOM     13  C   UNL     1     -11.675   6.846 129.734  0.00  0.00    +0.000 A 
ATOM     14  C   UNL     1     -11.543   7.273 128.409  0.00  0.00    +0.000 A 
ATOM     15  C   UNL     1     -12.095   8.494 128.026  0.00  0.00    +0.000 A 
ATOM     16  C   UNL     1     -12.831   9.246 128.943  0.00  0.00    +0.000 A 
ATOM     17  C   UNL     1     -12.981   8.806 130.258  0.00  0.00    +0.000 A 
ATOM     18  C   UNL     1     -12.380   7.617 130.664  0.00  0.00    +0.000 A 
ENDBRANCH  11  13
ENDBRANCH   4  11
TORSDOF 4
ENDMDL
MODEL 9
REMARK VINA RESULT:      -6.1      9.503     10.622
REMARK  Name = Oxybenzone
REMARK  5 active torsions:
REMARK  status: ('A' for Active; 'I' for Inactive)
REMARK    1  A    between atoms: C_1  and  O_2
REMARK    2  A    between atoms: O_2  and  C_3
REMARK    3  A    between atoms: C_5  and  O_6
REMARK    4  A    between atoms: C_7  and  C_10
REMARK    5  A    between atoms: C_10  and  C_12
REMARK                            x       y       z     vdW  Elec       q    Type
REMARK                         _______ _______ _______ _____ _____    ______ ____
ROOT
ATOM      1  C   UNL     1      -7.870   2.022 123.557  0.00  0.00    +0.000 A 
ATOM      2  C   UNL     1      -9.062   1.848 124.269  0.00  0.00    +0.000 A 
ATOM      3  C   UNL     1      -9.416   0.588 124.765  0.00  0.00    +0.000 A 
ATOM      4  C   UNL     1      -8.586  -0.522 124.551  0.00  0.00    +0.000 A 
ATOM      5  C   UNL     1      -7.396  -0.329 123.831  0.00  0.00    +0.000 A 
ATOM      6  C   UNL     1      -7.032   0.932 123.354  0.00  0.00    +0.000 A 
ENDROOT
BRANCH   1   8
ATOM      7  C   UNL     1      -6.382   3.503 122.451  0.00  0.00    +0.000 C 
ATOM      8  O   UNL     1      -7.630   3.291 123.106  0.00  0.00    +0.000 OA
ENDBRANCH   1   8
BRANCH   3   9
ATOM      9  O   UNL     1     -10.587   0.455 125.459  0.00  0.00    +0.000 OA
ATOM     10  H   UNL     1     -11.132   1.252 125.382  0.00  0.00    +0.000 HD
ENDBRANCH   3   9
BRANCH   4  11
ATOM     11  C   UNL     1      -8.958  -1.889 125.040  0.00  0.00    +0.000 C 
ATOM     12  O   UNL     1      -9.561  -2.713 124.352  0.00  0.00    +0.000 OA
BRANCH  11  13
ATOM     13  C   UNL     1      -8.604  -2.331 126.402  0.00  0.00    +0.000 A 
ATOM     14  C   UNL     1      -9.054  -3.577 126.849  0.00  0.00    +0.000 A 
ATOM     15  C   UNL     1      -8.834  -3.949 128.174  0.00  0.00    +0.000 A 
ATOM     16  C   UNL     1      -8.109  -3.110 129.023  0.00  0.00    +0.000 A 
ATOM     17  C   UNL     1      -7.640  -1.878 128.567  0.00  0.00    +0.000 A 
ATOM     18  C   UNL     1      -7.910  -1.474 127.262  0.00  0.00    +0.000 A 
ENDBRANCH  11  13
ENDBRANCH   4  11
TORSDOF 4
ENDMDL
