MODEL 1
REMARK VINA RESULT:      -7.8      0.000      0.000
REMARK  Name = Oxybutynin
REMARK  13 active torsions:
REMARK  status: ('A' for Active; 'I' for Inactive)
REMARK    1  A    between atoms: C_1  and  C_2
REMARK    2  A    between atoms: C_2  and  N_3
REMARK    3  A    between atoms: N_3  and  C_4
REMARK    4  A    between atoms: N_3  and  C_6
REMARK    5  A    between atoms: C_4  and  C_5
REMARK    6  A    between atoms: C_6  and  C_7
REMARK    7  A    between atoms: C_8  and  C_9
REMARK    8  A    between atoms: C_9  and  O_10
REMARK    9  A    between atoms: O_10  and  C_11
REMARK   10  A    between atoms: C_11  and  C_13
REMARK   11  A    between atoms: C_13  and  O_14
REMARK   12  A    between atoms: C_13  and  C_15
REMARK   13  A    between atoms: C_13  and  C_21
REMARK                            x       y       z     vdW  Elec       q    Type
REMARK                         _______ _______ _______ _____ _____    ______ ____
ROOT
ATOM      1  C   UNL     1      -8.724  -1.594 125.141  0.00  0.00    +0.000 C 
ENDROOT
BRANCH   1   2
ATOM      2  C   UNL     1      -7.350  -1.757 124.411  0.00  0.00    +0.000 C 
ATOM      3  C   UNL     1      -6.462  -2.865 124.997  0.00  0.00    +0.000 C 
ATOM      4  C   UNL     1      -5.082  -2.852 124.356  0.00  0.00    +0.000 C 
ATOM      5  C   UNL     1      -5.169  -2.973 122.841  0.00  0.00    +0.000 C 
ATOM      6  C   UNL     1      -6.048  -1.880 122.249  0.00  0.00    +0.000 C 
ATOM      7  C   UNL     1      -7.444  -1.917 122.870  0.00  0.00    +0.000 C 
ENDBRANCH   1   2
BRANCH   1   8
ATOM      8  C   UNL     1      -8.658  -2.182 126.571  0.00  0.00    +0.000 A 
ATOM      9  C   UNL     1      -7.908  -1.523 127.557  0.00  0.00    +0.000 A 
ATOM     10  C   UNL     1      -7.563  -2.184 128.737  0.00  0.00    +0.000 A 
ATOM     11  C   UNL     1      -8.053  -3.461 129.005  0.00  0.00    +0.000 A 
ATOM     12  C   UNL     1      -8.895  -4.079 128.097  0.00  0.00    +0.000 A 
ATOM     13  C   UNL     1      -9.214  -3.431 126.911  0.00  0.00    +0.000 A 
ENDBRANCH   1   8
BRANCH   1  14
ATOM     14  C   UNL     1      -9.185  -0.073 125.217  0.00  0.00    +0.000 C 
ATOM     15  O   UNL     1     -10.305   0.315 125.498  0.00  0.00    +0.000 OA
BRANCH  14  16
ATOM     16  O   UNL     1      -8.164   0.795 124.903  0.00  0.00    +0.000 OA
BRANCH  16  17
ATOM     17  C   UNL     1      -8.585   2.181 124.862  0.00  0.00    +0.000 C 
BRANCH  17  19
ATOM     18  C   UNL     1      -8.590   3.082 122.186  0.00  0.00    +0.000 C 
ATOM     19  C   UNL     1      -8.588   2.666 123.422  0.00  0.00    +0.000 C 
BRANCH  18  20
ATOM     20  C   UNL     1      -8.594   3.567 120.745  0.00  0.00    +0.000 C 
BRANCH  20  21
ATOM     21  N   UNL     1      -7.300   4.254 120.430  0.00  0.00    +0.000 NA
BRANCH  21  23
ATOM     22  C   UNL     1      -5.129   4.167 121.771  0.00  0.00    +0.000 C 
ATOM     23  C   UNL     1      -6.191   3.430 120.959  0.00  0.00    +0.000 C 
ENDBRANCH  21  23
BRANCH  21  24
ATOM     24  C   UNL     1      -7.202   4.507 118.972  0.00  0.00    +0.000 C 
ATOM     25  C   UNL     1      -6.125   5.487 118.519  0.00  0.00    +0.000 C 
ENDBRANCH  21  24
ENDBRANCH  20  21
ENDBRANCH  18  20
ENDBRANCH  17  19
ENDBRANCH  16  17
ENDBRANCH  14  16
ENDBRANCH   1  14
BRANCH   1  26
ATOM     26  O   UNL     1      -9.709  -2.389 124.456  0.00  0.00    +0.000 OA
ATOM     27  H   UNL     1      -9.901  -1.952 123.608  0.00  0.00    +0.000 HD
ENDBRANCH   1  26
TORSDOF 11
ENDMDL
MODEL 2
REMARK VINA RESULT:      -7.3      1.160      2.115
REMARK  Name = Oxybutynin
REMARK  13 active torsions:
REMARK  status: ('A' for Active; 'I' for Inactive)
REMARK    1  A    between atoms: C_1  and  C_2
REMARK    2  A    between atoms: C_2  and  N_3
REMARK    3  A    between atoms: N_3  and  C_4
REMARK    4  A    between atoms: N_3  and  C_6
REMARK    5  A    between atoms: C_4  and  C_5
REMARK    6  A    between atoms: C_6  and  C_7
REMARK    7  A    between atoms: C_8  and  C_9
REMARK    8  A    between atoms: C_9  and  O_10
REMARK    9  A    between atoms: O_10  and  C_11
REMARK   10  A    between atoms: C_11  and  C_13
REMARK   11  A    between atoms: C_13  and  O_14
REMARK   12  A    between atoms: C_13  and  C_15
REMARK   13  A    between atoms: C_13  and  C_21
REMARK                            x       y       z     vdW  Elec       q    Type
REMARK                         _______ _______ _______ _____ _____    ______ ____
ROOT
ATOM      1  C   UNL     1      -8.559  -1.861 125.303  0.00  0.00    +0.000 C 
ENDROOT
BRANCH   1   2
ATOM      2  C   UNL     1      -7.241  -1.914 124.461  0.00  0.00    +0.000 C 
ATOM      3  C   UNL     1      -6.297  -3.058 124.855  0.00  0.00    +0.000 C 
ATOM      4  C   UNL     1      -4.970  -2.946 124.120  0.00  0.00    +0.000 C 
ATOM      5  C   UNL     1      -5.168  -2.906 122.612  0.00  0.00    +0.000 C 
ATOM      6  C   UNL     1      -6.105  -1.775 122.208  0.00  0.00    +0.000 C 
ATOM      7  C   UNL     1      -7.450  -1.910 122.922  0.00  0.00    +0.000 C 
ENDBRANCH   1   2
BRANCH   1   8
ATOM      8  C   UNL     1      -8.330  -2.447 126.717  0.00  0.00    +0.000 A 
ATOM      9  C   UNL     1      -9.020  -3.604 127.107  0.00  0.00    +0.000 A 
ATOM     10  C   UNL     1      -9.089  -3.961 128.455  0.00  0.00    +0.000 A 
ATOM     11  C   UNL     1      -8.380  -3.242 129.417  0.00  0.00    +0.000 A 
ATOM     12  C   UNL     1      -7.594  -2.169 129.033  0.00  0.00    +0.000 A 
ATOM     13  C   UNL     1      -7.551  -1.799 127.696  0.00  0.00    +0.000 A 
ENDBRANCH   1   8
BRANCH   1  14
ATOM     14  C   UNL     1      -9.126  -0.379 125.432  0.00  0.00    +0.000 C 
ATOM     15  O   UNL     1      -9.037   0.330 126.420  0.00  0.00    +0.000 OA
BRANCH  14  16
ATOM     16  O   UNL     1      -9.769   0.032 124.288  0.00  0.00    +0.000 OA
BRANCH  16  17
ATOM     17  C   UNL     1     -10.047   1.455 124.269  0.00  0.00    +0.000 C 
BRANCH  17  19
ATOM     18  C   UNL     1      -8.210   2.746 122.558  0.00  0.00    +0.000 C 
ATOM     19  C   UNL     1      -9.059   2.150 123.348  0.00  0.00    +0.000 C 
BRANCH  18  20
ATOM     20  C   UNL     1      -7.220   3.441 121.637  0.00  0.00    +0.000 C 
BRANCH  20  21
ATOM     21  N   UNL     1      -5.882   3.545 122.303  0.00  0.00    +0.000 NA
BRANCH  21  23
ATOM     22  C   UNL     1      -5.560   4.829 120.120  0.00  0.00    +0.000 C 
ATOM     23  C   UNL     1      -4.943   4.203 121.368  0.00  0.00    +0.000 C 
ENDBRANCH  21  23
BRANCH  21  24
ATOM     24  C   UNL     1      -6.014   4.252 123.599  0.00  0.00    +0.000 C 
ATOM     25  C   UNL     1      -5.527   3.508 124.838  0.00  0.00    +0.000 C 
ENDBRANCH  21  24
ENDBRANCH  20  21
ENDBRANCH  18  20
ENDBRANCH  17  19
ENDBRANCH  16  17
ENDBRANCH  14  16
ENDBRANCH   1  14
BRANCH   1  26
ATOM     26  O   UNL     1      -9.533  -2.726 124.693  0.00  0.00    +0.000 OA
ATOM     27  H   UNL     1     -10.062  -3.122 125.407  0.00  0.00    +0.000 HD
ENDBRANCH   1  26
TORSDOF 11
ENDMDL
MODEL 3
REMARK VINA RESULT:      -7.1      0.996      3.954
REMARK  Name = Oxybutynin
REMARK  13 active torsions:
REMARK  status: ('A' for Active; 'I' for Inactive)
REMARK    1  A    between atoms: C_1  and  C_2
REMARK    2  A    between atoms: C_2  and  N_3
REMARK    3  A    between atoms: N_3  and  C_4
REMARK    4  A    between atoms: N_3  and  C_6
REMARK    5  A    between atoms: C_4  and  C_5
REMARK    6  A    between atoms: C_6  and  C_7
REMARK    7  A    between atoms: C_8  and  C_9
REMARK    8  A    between atoms: C_9  and  O_10
REMARK    9  A    between atoms: O_10  and  C_11
REMARK   10  A    between atoms: C_11  and  C_13
REMARK   11  A    between atoms: C_13  and  O_14
REMARK   12  A    between atoms: C_13  and  C_15
REMARK   13  A    between atoms: C_13  and  C_21
REMARK                            x       y       z     vdW  Elec       q    Type
REMARK                         _______ _______ _______ _____ _____    ______ ____
ROOT
ATOM      1  C   UNL     1      -7.521  -0.419 125.695  0.00  0.00    +0.000 C 
ENDROOT
BRANCH   1   2
ATOM      2  C   UNL     1      -8.119  -1.419 126.739  0.00  0.00    +0.000 C 
ATOM      3  C   UNL     1      -8.427  -2.809 126.163  0.00  0.00    +0.000 C 
ATOM      4  C   UNL     1      -9.163  -3.668 127.181  0.00  0.00    +0.000 C 
ATOM      5  C   UNL     1      -8.382  -3.785 128.482  0.00  0.00    +0.000 C 
ATOM      6  C   UNL     1      -8.069  -2.411 129.063  0.00  0.00    +0.000 C 
ATOM      7  C   UNL     1      -7.300  -1.562 128.050  0.00  0.00    +0.000 C 
ENDBRANCH   1   2
BRANCH   1   8
ATOM      8  C   UNL     1      -6.590  -1.156 124.702  0.00  0.00    +0.000 A 
ATOM      9  C   UNL     1      -6.912  -1.176 123.336  0.00  0.00    +0.000 A 
ATOM     10  C   UNL     1      -6.291  -2.088 122.481  0.00  0.00    +0.000 A 
ATOM     11  C   UNL     1      -5.265  -2.910 122.944  0.00  0.00    +0.000 A 
ATOM     12  C   UNL     1      -4.850  -2.817 124.261  0.00  0.00    +0.000 A 
ATOM     13  C   UNL     1      -5.488  -1.930 125.116  0.00  0.00    +0.000 A 
ENDBRANCH   1   8
BRANCH   1  14
ATOM     14  C   UNL     1      -8.654   0.350 124.885  0.00  0.00    +0.000 C 
ATOM     15  O   UNL     1      -9.815  -0.007 124.779  0.00  0.00    +0.000 OA
BRANCH  14  16
ATOM     16  O   UNL     1      -8.177   1.487 124.276  0.00  0.00    +0.000 OA
BRANCH  16  17
ATOM     17  C   UNL     1      -9.205   2.241 123.588  0.00  0.00    +0.000 C 
BRANCH  17  19
ATOM     18  C   UNL     1      -8.102   3.443 121.283  0.00  0.00    +0.000 C 
ATOM     19  C   UNL     1      -8.612   2.889 122.347  0.00  0.00    +0.000 C 
BRANCH  18  20
ATOM     20  C   UNL     1      -7.509   4.090 120.041  0.00  0.00    +0.000 C 
BRANCH  20  21
ATOM     21  N   UNL     1      -6.025   4.233 120.195  0.00  0.00    +0.000 NA
BRANCH  21  23
ATOM     22  C   UNL     1      -6.052   5.631 118.059  0.00  0.00    +0.000 C 
ATOM     23  C   UNL     1      -5.601   5.473 119.509  0.00  0.00    +0.000 C 
ENDBRANCH  21  23
BRANCH  21  24
ATOM     24  C   UNL     1      -5.659   4.200 121.632  0.00  0.00    +0.000 C 
ATOM     25  C   UNL     1      -4.284   4.748 122.000  0.00  0.00    +0.000 C 
ENDBRANCH  21  24
ENDBRANCH  20  21
ENDBRANCH  18  20
ENDBRANCH  17  19
ENDBRANCH  16  17
ENDBRANCH  14  16
ENDBRANCH   1  14
BRANCH   1  26
ATOM     26  O   UNL     1      -6.668   0.513 126.384  0.00  0.00    +0.000 OA
ATOM     27  H   UNL     1      -6.687   1.350 125.888  0.00  0.00    +0.000 HD
ENDBRANCH   1  26
TORSDOF 11
ENDMDL
MODEL 4
REMARK VINA RESULT:      -7.1      3.123      4.024
REMARK  Name = Oxybutynin
REMARK  13 active torsions:
REMARK  status: ('A' for Active; 'I' for Inactive)
REMARK    1  A    between atoms: C_1  and  C_2
REMARK    2  A    between atoms: C_2  and  N_3
REMARK    3  A    between atoms: N_3  and  C_4
REMARK    4  A    between atoms: N_3  and  C_6
REMARK    5  A    between atoms: C_4  and  C_5
REMARK    6  A    between atoms: C_6  and  C_7
REMARK    7  A    between atoms: C_8  and  C_9
REMARK    8  A    between atoms: C_9  and  O_10
REMARK    9  A    between atoms: O_10  and  C_11
REMARK   10  A    between atoms: C_11  and  C_13
REMARK   11  A    between atoms: C_13  and  O_14
REMARK   12  A    between atoms: C_13  and  C_15
REMARK   13  A    between atoms: C_13  and  C_21
REMARK                            x       y       z     vdW  Elec       q    Type
REMARK                         _______ _______ _______ _____ _____    ______ ____
ROOT
ATOM      1  C   UNL     1      -8.673  -1.610 125.129  0.00  0.00    +0.000 C 
ENDROOT
BRANCH   1   2
ATOM      2  C   UNL     1      -7.285  -1.799 124.432  0.00  0.00    +0.000 C 
ATOM      3  C   UNL     1      -6.425  -2.911 125.050  0.00  0.00    +0.000 C 
ATOM      4  C   UNL     1      -5.031  -2.924 124.441  0.00  0.00    +0.000 C 
ATOM      5  C   UNL     1      -5.085  -3.062 122.926  0.00  0.00    +0.000 C 
ATOM      6  C   UNL     1      -5.936  -1.964 122.302  0.00  0.00    +0.000 C 
ATOM      7  C   UNL     1      -7.347  -1.976 122.892  0.00  0.00    +0.000 C 
ENDBRANCH   1   2
BRANCH   1   8
ATOM      8  C   UNL     1      -8.643  -2.171 126.571  0.00  0.00    +0.000 A 
ATOM      9  C   UNL     1      -7.954  -1.470 127.573  0.00  0.00    +0.000 A 
ATOM     10  C   UNL     1      -7.633  -2.100 128.777  0.00  0.00    +0.000 A 
ATOM     11  C   UNL     1      -8.091  -3.388 129.049  0.00  0.00    +0.000 A 
ATOM     12  C   UNL     1      -8.877  -4.049 128.120  0.00  0.00    +0.000 A 
ATOM     13  C   UNL     1      -9.170  -3.432 126.912  0.00  0.00    +0.000 A 
ENDBRANCH   1   8
BRANCH   1  14
ATOM     14  C   UNL     1      -9.120  -0.083 125.166  0.00  0.00    +0.000 C 
ATOM     15  O   UNL     1     -10.224   0.324 125.482  0.00  0.00    +0.000 OA
BRANCH  14  16
ATOM     16  O   UNL     1      -8.109   0.764 124.774  0.00  0.00    +0.000 OA
BRANCH  16  17
ATOM     17  C   UNL     1      -8.251   2.106 125.302  0.00  0.00    +0.000 C 
BRANCH  17  19
ATOM     18  C   UNL     1      -5.695   3.171 125.855  0.00  0.00    +0.000 C 
ATOM     19  C   UNL     1      -6.876   2.679 125.599  0.00  0.00    +0.000 C 
BRANCH  18  20
ATOM     20  C   UNL     1      -4.319   3.743 126.153  0.00  0.00    +0.000 C 
BRANCH  20  21
ATOM     21  N   UNL     1      -3.997   3.580 127.607  0.00  0.00    +0.000 NA
BRANCH  21  23
ATOM     22  C   UNL     1      -1.768   3.146 126.440  0.00  0.00    +0.000 C 
ATOM     23  C   UNL     1      -2.585   3.154 127.730  0.00  0.00    +0.000 C 
ENDBRANCH  21  23
BRANCH  21  24
ATOM     24  C   UNL     1      -4.298   4.835 128.337  0.00  0.00    +0.000 C 
ATOM     25  C   UNL     1      -3.729   6.122 127.750  0.00  0.00    +0.000 C 
ENDBRANCH  21  24
ENDBRANCH  20  21
ENDBRANCH  18  20
ENDBRANCH  17  19
ENDBRANCH  16  17
ENDBRANCH  14  16
ENDBRANCH   1  14
BRANCH   1  26
ATOM     26  O   UNL     1      -9.650  -2.408 124.438  0.00  0.00    +0.000 OA
ATOM     27  H   UNL     1      -9.189  -3.182 124.068  0.00  0.00    +0.000 HD
ENDBRANCH   1  26
TORSDOF 11
ENDMDL
MODEL 5
REMARK VINA RESULT:      -7.0      2.911      7.874
REMARK  Name = Oxybutynin
REMARK  13 active torsions:
REMARK  status: ('A' for Active; 'I' for Inactive)
REMARK    1  A    between atoms: C_1  and  C_2
REMARK    2  A    between atoms: C_2  and  N_3
REMARK    3  A    between atoms: N_3  and  C_4
REMARK    4  A    between atoms: N_3  and  C_6
REMARK    5  A    between atoms: C_4  and  C_5
REMARK    6  A    between atoms: C_6  and  C_7
REMARK    7  A    between atoms: C_8  and  C_9
REMARK    8  A    between atoms: C_9  and  O_10
REMARK    9  A    between atoms: O_10  and  C_11
REMARK   10  A    between atoms: C_11  and  C_13
REMARK   11  A    between atoms: C_13  and  O_14
REMARK   12  A    between atoms: C_13  and  C_15
REMARK   13  A    between atoms: C_13  and  C_21
REMARK                            x       y       z     vdW  Elec       q    Type
REMARK                         _______ _______ _______ _____ _____    ______ ____
ROOT
ATOM      1  C   UNL     1      -7.662   3.043 123.930  0.00  0.00    +0.000 C 
ENDROOT
BRANCH   1   2
ATOM      2  C   UNL     1      -6.296   2.830 124.662  0.00  0.00    +0.000 C 
ATOM      3  C   UNL     1      -5.682   4.122 125.221  0.00  0.00    +0.000 C 
ATOM      4  C   UNL     1      -4.282   3.869 125.762  0.00  0.00    +0.000 C 
ATOM      5  C   UNL     1      -4.281   2.770 126.815  0.00  0.00    +0.000 C 
ATOM      6  C   UNL     1      -4.889   1.483 126.272  0.00  0.00    +0.000 C 
ATOM      7  C   UNL     1      -6.308   1.734 125.761  0.00  0.00    +0.000 C 
ENDBRANCH   1   2
BRANCH   1   8
ATOM      8  C   UNL     1      -7.446   3.232 122.410  0.00  0.00    +0.000 A 
ATOM      9  C   UNL     1      -6.142   3.281 121.896  0.00  0.00    +0.000 A 
ATOM     10  C   UNL     1      -5.910   3.771 120.609  0.00  0.00    +0.000 A 
ATOM     11  C   UNL     1      -6.976   4.111 119.777  0.00  0.00    +0.000 A 
ATOM     12  C   UNL     1      -8.276   3.953 120.224  0.00  0.00    +0.000 A 
ATOM     13  C   UNL     1      -8.503   3.493 121.514  0.00  0.00    +0.000 A 
ENDBRANCH   1   8
BRANCH   1  14
ATOM     14  C   UNL     1      -8.666   1.832 124.174  0.00  0.00    +0.000 C 
ATOM     15  O   UNL     1      -9.696   1.885 124.823  0.00  0.00    +0.000 OA
BRANCH  14  16
ATOM     16  O   UNL     1      -8.234   0.671 123.575  0.00  0.00    +0.000 OA
BRANCH  16  17
ATOM     17  C   UNL     1      -9.234  -0.378 123.574  0.00  0.00    +0.000 C 
BRANCH  17  19
ATOM     18  C   UNL     1      -8.747  -2.141 125.726  0.00  0.00    +0.000 C 
ATOM     19  C   UNL     1      -8.971  -1.326 124.732  0.00  0.00    +0.000 C 
BRANCH  18  20
ATOM     20  C   UNL     1      -8.485  -3.090 126.884  0.00  0.00    +0.000 C 
BRANCH  20  21
ATOM     21  N   UNL     1      -7.811  -2.359 128.006  0.00  0.00    +0.000 NA
BRANCH  21  23
ATOM     22  C   UNL     1      -7.671  -2.866 130.504  0.00  0.00    +0.000 C 
ATOM     23  C   UNL     1      -7.475  -3.336 129.065  0.00  0.00    +0.000 C 
ENDBRANCH  21  23
BRANCH  21  24
ATOM     24  C   UNL     1      -6.633  -1.618 127.493  0.00  0.00    +0.000 C 
ATOM     25  C   UNL     1      -5.264  -2.222 127.787  0.00  0.00    +0.000 C 
ENDBRANCH  21  24
ENDBRANCH  20  21
ENDBRANCH  18  20
ENDBRANCH  17  19
ENDBRANCH  16  17
ENDBRANCH  14  16
ENDBRANCH   1  14
BRANCH   1  26
ATOM     26  O   UNL     1      -8.241   4.280 124.382  0.00  0.00    +0.000 OA
ATOM     27  H   UNL     1      -8.558   4.760 123.598  0.00  0.00    +0.000 HD
ENDBRANCH   1  26
TORSDOF 11
ENDMDL
MODEL 6
REMARK VINA RESULT:      -7.0      2.976      6.865
REMARK  Name = Oxybutynin
REMARK  13 active torsions:
REMARK  status: ('A' for Active; 'I' for Inactive)
REMARK    1  A    between atoms: C_1  and  C_2
REMARK    2  A    between atoms: C_2  and  N_3
REMARK    3  A    between atoms: N_3  and  C_4
REMARK    4  A    between atoms: N_3  and  C_6
REMARK    5  A    between atoms: C_4  and  C_5
REMARK    6  A    between atoms: C_6  and  C_7
REMARK    7  A    between atoms: C_8  and  C_9
REMARK    8  A    between atoms: C_9  and  O_10
REMARK    9  A    between atoms: O_10  and  C_11
REMARK   10  A    between atoms: C_11  and  C_13
REMARK   11  A    between atoms: C_13  and  O_14
REMARK   12  A    between atoms: C_13  and  C_15
REMARK   13  A    between atoms: C_13  and  C_21
REMARK                            x       y       z     vdW  Elec       q    Type
REMARK                         _______ _______ _______ _____ _____    ______ ____
ROOT
ATOM      1  C   UNL     1      -7.079   3.347 124.190  0.00  0.00    +0.000 C 
ENDROOT
BRANCH   1   2
ATOM      2  C   UNL     1      -6.221   3.566 122.900  0.00  0.00    +0.000 C 
ATOM      3  C   UNL     1      -7.048   3.638 121.609  0.00  0.00    +0.000 C 
ATOM      4  C   UNL     1      -6.143   3.676 120.385  0.00  0.00    +0.000 C 
ATOM      5  C   UNL     1      -5.154   4.831 120.458  0.00  0.00    +0.000 C 
ATOM      6  C   UNL     1      -4.328   4.771 121.737  0.00  0.00    +0.000 C 
ATOM      7  C   UNL     1      -5.239   4.766 122.965  0.00  0.00    +0.000 C 
ENDBRANCH   1   2
BRANCH   1   8
ATOM      8  C   UNL     1      -7.880   2.027 124.098  0.00  0.00    +0.000 A 
ATOM      9  C   UNL     1      -7.308   0.911 123.469  0.00  0.00    +0.000 A 
ATOM     10  C   UNL     1      -8.108  -0.166 123.082  0.00  0.00    +0.000 A 
ATOM     11  C   UNL     1      -9.461  -0.201 123.417  0.00  0.00    +0.000 A 
ATOM     12  C   UNL     1     -10.017   0.836 124.146  0.00  0.00    +0.000 A 
ATOM     13  C   UNL     1      -9.225   1.919 124.504  0.00  0.00    +0.000 A 
ENDBRANCH   1   8
BRANCH   1  14
ATOM     14  C   UNL     1      -6.185   3.331 125.507  0.00  0.00    +0.000 C 
ATOM     15  O   UNL     1      -6.357   4.032 126.489  0.00  0.00    +0.000 OA
BRANCH  14  16
ATOM     16  O   UNL     1      -5.149   2.430 125.421  0.00  0.00    +0.000 OA
BRANCH  16  17
ATOM     17  C   UNL     1      -4.974   1.643 126.625  0.00  0.00    +0.000 C 
BRANCH  17  19
ATOM     18  C   UNL     1      -5.392  -1.086 126.030  0.00  0.00    +0.000 C 
ATOM     19  C   UNL     1      -5.199   0.174 126.305  0.00  0.00    +0.000 C 
BRANCH  18  20
ATOM     20  C   UNL     1      -5.618  -2.555 125.709  0.00  0.00    +0.000 C 
BRANCH  20  21
ATOM     21  N   UNL     1      -6.275  -2.694 124.369  0.00  0.00    +0.000 NA
BRANCH  21  23
ATOM     22  C   UNL     1      -4.536  -4.417 123.645  0.00  0.00    +0.000 C 
ATOM     23  C   UNL     1      -5.247  -3.092 123.383  0.00  0.00    +0.000 C 
ENDBRANCH  21  23
BRANCH  21  24
ATOM     24  C   UNL     1      -7.407  -3.648 124.457  0.00  0.00    +0.000 C 
ATOM     25  C   UNL     1      -8.557  -3.263 125.380  0.00  0.00    +0.000 C 
ENDBRANCH  21  24
ENDBRANCH  20  21
ENDBRANCH  18  20
ENDBRANCH  17  19
ENDBRANCH  16  17
ENDBRANCH  14  16
ENDBRANCH   1  14
BRANCH   1  26
ATOM     26  O   UNL     1      -8.074   4.384 124.265  0.00  0.00    +0.000 OA
ATOM     27  H   UNL     1      -7.609   5.227 124.403  0.00  0.00    +0.000 HD
ENDBRANCH   1  26
TORSDOF 11
ENDMDL
MODEL 7
REMARK VINA RESULT:      -7.0      3.535      7.543
REMARK  Name = Oxybutynin
REMARK  13 active torsions:
REMARK  status: ('A' for Active; 'I' for Inactive)
REMARK    1  A    between atoms: C_1  and  C_2
REMARK    2  A    between atoms: C_2  and  N_3
REMARK    3  A    between atoms: N_3  and  C_4
REMARK    4  A    between atoms: N_3  and  C_6
REMARK    5  A    between atoms: C_4  and  C_5
REMARK    6  A    between atoms: C_6  and  C_7
REMARK    7  A    between atoms: C_8  and  C_9
REMARK    8  A    between atoms: C_9  and  O_10
REMARK    9  A    between atoms: O_10  and  C_11
REMARK   10  A    between atoms: C_11  and  C_13
REMARK   11  A    between atoms: C_13  and  O_14
REMARK   12  A    between atoms: C_13  and  C_15
REMARK   13  A    between atoms: C_13  and  C_21
REMARK                            x       y       z     vdW  Elec       q    Type
REMARK                         _______ _______ _______ _____ _____    ______ ____
ROOT
ATOM      1  C   UNL     1      -6.349   4.531 125.280  0.00  0.00    +0.000 C 
ENDROOT
BRANCH   1   2
ATOM      2  C   UNL     1      -5.201   4.241 126.302  0.00  0.00    +0.000 C 
ATOM      3  C   UNL     1      -4.197   3.181 125.825  0.00  0.00    +0.000 C 
ATOM      4  C   UNL     1      -3.215   2.825 126.931  0.00  0.00    +0.000 C 
ATOM      5  C   UNL     1      -2.491   4.059 127.452  0.00  0.00    +0.000 C 
ATOM      6  C   UNL     1      -3.476   5.119 127.927  0.00  0.00    +0.000 C 
ATOM      7  C   UNL     1      -4.441   5.498 126.803  0.00  0.00    +0.000 C 
ENDBRANCH   1   2
BRANCH   1   8
ATOM      8  C   UNL     1      -6.000   3.958 123.885  0.00  0.00    +0.000 A 
ATOM      9  C   UNL     1      -5.109   4.654 123.054  0.00  0.00    +0.000 A 
ATOM     10  C   UNL     1      -5.031   4.347 121.694  0.00  0.00    +0.000 A 
ATOM     11  C   UNL     1      -5.748   3.274 121.166  0.00  0.00    +0.000 A 
ATOM     12  C   UNL     1      -6.539   2.499 121.997  0.00  0.00    +0.000 A 
ATOM     13  C   UNL     1      -6.637   2.824 123.343  0.00  0.00    +0.000 A 
ENDBRANCH   1   8
BRANCH   1  14
ATOM     14  C   UNL     1      -7.744   3.932 125.761  0.00  0.00    +0.000 C 
ATOM     15  O   UNL     1      -8.842   4.333 125.418  0.00  0.00    +0.000 OA
BRANCH  14  16
ATOM     16  O   UNL     1      -7.584   2.895 126.651  0.00  0.00    +0.000 OA
BRANCH  16  17
ATOM     17  C   UNL     1      -8.556   1.835 126.472  0.00  0.00    +0.000 C 
BRANCH  17  19
ATOM     18  C   UNL     1      -7.238  -0.513 125.622  0.00  0.00    +0.000 C 
ATOM     19  C   UNL     1      -7.847   0.572 126.014  0.00  0.00    +0.000 C 
BRANCH  18  20
ATOM     20  C   UNL     1      -6.529  -1.777 125.165  0.00  0.00    +0.000 C 
BRANCH  20  21
ATOM     21  N   UNL     1      -6.894  -2.088 123.745  0.00  0.00    +0.000 NA
BRANCH  21  23
ATOM     22  C   UNL     1      -4.820  -3.575 123.809  0.00  0.00    +0.000 C 
ATOM     23  C   UNL     1      -5.685  -2.575 123.046  0.00  0.00    +0.000 C 
ENDBRANCH  21  23
BRANCH  21  24
ATOM     24  C   UNL     1      -8.021  -3.052 123.712  0.00  0.00    +0.000 C 
ATOM     25  C   UNL     1      -8.264  -3.865 124.978  0.00  0.00    +0.000 C 
ENDBRANCH  21  24
ENDBRANCH  20  21
ENDBRANCH  18  20
ENDBRANCH  17  19
ENDBRANCH  16  17
ENDBRANCH  14  16
ENDBRANCH   1  14
BRANCH   1  26
ATOM     26  O   UNL     1      -6.447   5.953 125.086  0.00  0.00    +0.000 OA
ATOM     27  H   UNL     1      -7.388   6.193 125.142  0.00  0.00    +0.000 HD
ENDBRANCH   1  26
TORSDOF 11
ENDMDL
MODEL 8
REMARK VINA RESULT:      -7.0      2.983      7.307
REMARK  Name = Oxybutynin
REMARK  13 active torsions:
REMARK  status: ('A' for Active; 'I' for Inactive)
REMARK    1  A    between atoms: C_1  and  C_2
REMARK    2  A    between atoms: C_2  and  N_3
REMARK    3  A    between atoms: N_3  and  C_4
REMARK    4  A    between atoms: N_3  and  C_6
REMARK    5  A    between atoms: C_4  and  C_5
REMARK    6  A    between atoms: C_6  and  C_7
REMARK    7  A    between atoms: C_8  and  C_9
REMARK    8  A    between atoms: C_9  and  O_10
REMARK    9  A    between atoms: O_10  and  C_11
REMARK   10  A    between atoms: C_11  and  C_13
REMARK   11  A    between atoms: C_13  and  O_14
REMARK   12  A    between atoms: C_13  and  C_15
REMARK   13  A    between atoms: C_13  and  C_21
REMARK                            x       y       z     vdW  Elec       q    Type
REMARK                         _______ _______ _______ _____ _____    ______ ____
ROOT
ATOM      1  C   UNL     1      -8.005   2.498 123.406  0.00  0.00    +0.000 C 
ENDROOT
BRANCH   1   2
ATOM      2  C   UNL     1      -6.670   3.032 122.787  0.00  0.00    +0.000 C 
ATOM      3  C   UNL     1      -6.785   3.426 121.308  0.00  0.00    +0.000 C 
ATOM      4  C   UNL     1      -5.420   3.768 120.729  0.00  0.00    +0.000 C 
ATOM      5  C   UNL     1      -4.734   4.867 121.529  0.00  0.00    +0.000 C 
ATOM      6  C   UNL     1      -4.616   4.487 123.000  0.00  0.00    +0.000 C 
ATOM      7  C   UNL     1      -5.993   4.177 123.586  0.00  0.00    +0.000 C 
ENDBRANCH   1   2
BRANCH   1   8
ATOM      8  C   UNL     1      -8.032   0.950 123.398  0.00  0.00    +0.000 A 
ATOM      9  C   UNL     1      -6.824   0.237 123.373  0.00  0.00    +0.000 A 
ATOM     10  C   UNL     1      -6.816  -1.119 123.038  0.00  0.00    +0.000 A 
ATOM     11  C   UNL     1      -8.011  -1.808 122.837  0.00  0.00    +0.000 A 
ATOM     12  C   UNL     1      -9.219  -1.147 122.978  0.00  0.00    +0.000 A 
ATOM     13  C   UNL     1      -9.223   0.207 123.283  0.00  0.00    +0.000 A 
ENDBRANCH   1   8
BRANCH   1  14
ATOM     14  C   UNL     1      -8.227   3.022 124.892  0.00  0.00    +0.000 C 
ATOM     15  O   UNL     1      -8.945   3.952 125.215  0.00  0.00    +0.000 OA
BRANCH  14  16
ATOM     16  O   UNL     1      -7.486   2.312 125.809  0.00  0.00    +0.000 OA
BRANCH  16  17
ATOM     17  C   UNL     1      -8.299   1.646 126.807  0.00  0.00    +0.000 C 
BRANCH  17  19
ATOM     18  C   UNL     1      -7.303  -0.960 127.240  0.00  0.00    +0.000 C 
ATOM     19  C   UNL     1      -7.763   0.244 127.040  0.00  0.00    +0.000 C 
BRANCH  18  20
ATOM     20  C   UNL     1      -6.767  -2.363 127.473  0.00  0.00    +0.000 C 
BRANCH  20  21
ATOM     21  N   UNL     1      -7.049  -2.795 128.880  0.00  0.00    +0.000 NA
BRANCH  21  23
ATOM     22  C   UNL     1      -7.732  -1.280 130.818  0.00  0.00    +0.000 C 
ATOM     23  C   UNL     1      -6.678  -1.691 129.792  0.00  0.00    +0.000 C 
ENDBRANCH  21  23
BRANCH  21  24
ATOM     24  C   UNL     1      -8.466  -3.213 129.008  0.00  0.00    +0.000 C 
ATOM     25  C   UNL     1      -9.016  -4.113 127.906  0.00  0.00    +0.000 C 
ENDBRANCH  21  24
ENDBRANCH  20  21
ENDBRANCH  18  20
ENDBRANCH  17  19
ENDBRANCH  16  17
ENDBRANCH  14  16
ENDBRANCH   1  14
BRANCH   1  26
ATOM     26  O   UNL     1      -9.098   2.895 122.559  0.00  0.00    +0.000 OA
ATOM     27  H   UNL     1      -9.875   3.032 123.128  0.00  0.00    +0.000 HD
ENDBRANCH   1  26
TORSDOF 11
ENDMDL
MODEL 9
REMARK VINA RESULT:      -6.9      4.171      8.017
REMARK  Name = Oxybutynin
REMARK  13 active torsions:
REMARK  status: ('A' for Active; 'I' for Inactive)
REMARK    1  A    between atoms: C_1  and  C_2
REMARK    2  A    between atoms: C_2  and  N_3
REMARK    3  A    between atoms: N_3  and  C_4
REMARK    4  A    between atoms: N_3  and  C_6
REMARK    5  A    between atoms: C_4  and  C_5
REMARK    6  A    between atoms: C_6  and  C_7
REMARK    7  A    between atoms: C_8  and  C_9
REMARK    8  A    between atoms: C_9  and  O_10
REMARK    9  A    between atoms: O_10  and  C_11
REMARK   10  A    between atoms: C_11  and  C_13
REMARK   11  A    between atoms: C_13  and  O_14
REMARK   12  A    between atoms: C_13  and  C_15
REMARK   13  A    between atoms: C_13  and  C_21
REMARK                            x       y       z     vdW  Elec       q    Type
REMARK                         _______ _______ _______ _____ _____    ______ ____
ROOT
ATOM      1  C   UNL     1      -7.558   3.133 124.122  0.00  0.00    +0.000 C 
ENDROOT
BRANCH   1   2
ATOM      2  C   UNL     1      -6.228   3.304 124.929  0.00  0.00    +0.000 C 
ATOM      3  C   UNL     1      -6.252   4.471 125.926  0.00  0.00    +0.000 C 
ATOM      4  C   UNL     1      -4.878   4.685 126.545  0.00  0.00    +0.000 C 
ATOM      5  C   UNL     1      -4.362   3.418 127.211  0.00  0.00    +0.000 C 
ATOM      6  C   UNL     1      -4.336   2.251 126.231  0.00  0.00    +0.000 C 
ATOM      7  C   UNL     1      -5.724   2.017 125.636  0.00  0.00    +0.000 C 
ENDBRANCH   1   2
BRANCH   1   8
ATOM      8  C   UNL     1      -7.304   3.304 122.605  0.00  0.00    +0.000 A 
ATOM      9  C   UNL     1      -5.991   3.468 122.136  0.00  0.00    +0.000 A 
ATOM     10  C   UNL     1      -5.760   3.946 120.845  0.00  0.00    +0.000 A 
ATOM     11  C   UNL     1      -6.821   4.158 119.966  0.00  0.00    +0.000 A 
ATOM     12  C   UNL     1      -8.116   3.884 120.372  0.00  0.00    +0.000 A 
ATOM     13  C   UNL     1      -8.345   3.436 121.666  0.00  0.00    +0.000 A 
ENDBRANCH   1   8
BRANCH   1  14
ATOM     14  C   UNL     1      -8.240   1.719 124.386  0.00  0.00    +0.000 C 
ATOM     15  O   UNL     1      -7.923   0.669 123.854  0.00  0.00    +0.000 OA
BRANCH  14  16
ATOM     16  O   UNL     1      -9.274   1.802 125.290  0.00  0.00    +0.000 OA
BRANCH  16  17
ATOM     17  C   UNL     1      -9.075   0.975 126.463  0.00  0.00    +0.000 C 
BRANCH  17  19
ATOM     18  C   UNL     1      -8.026   2.555 128.556  0.00  0.00    +0.000 C 
ATOM     19  C   UNL     1      -8.511   1.825 127.590  0.00  0.00    +0.000 C 
BRANCH  18  20
ATOM     20  C   UNL     1      -7.462   3.406 129.682  0.00  0.00    +0.000 C 
BRANCH  20  21
ATOM     21  N   UNL     1      -8.507   4.356 130.183  0.00  0.00    +0.000 NA
BRANCH  21  23
ATOM     22  C   UNL     1     -11.029   4.039 130.422  0.00  0.00    +0.000 C 
ATOM     23  C   UNL     1      -9.617   3.568 130.762  0.00  0.00    +0.000 C 
ENDBRANCH  21  23
BRANCH  21  24
ATOM     24  C   UNL     1      -7.903   5.314 131.140  0.00  0.00    +0.000 C 
ATOM     25  C   UNL     1      -8.330   6.772 131.009  0.00  0.00    +0.000 C 
ENDBRANCH  21  24
ENDBRANCH  20  21
ENDBRANCH  18  20
ENDBRANCH  17  19
ENDBRANCH  16  17
ENDBRANCH  14  16
ENDBRANCH   1  14
BRANCH   1  26
ATOM     26  O   UNL     1      -8.453   4.202 124.474  0.00  0.00    +0.000 OA
ATOM     27  H   UNL     1      -9.355   3.837 124.491  0.00  0.00    +0.000 HD
ENDBRANCH   1  26
TORSDOF 11
ENDMDL
