MODEL 1
REMARK VINA RESULT:      -6.1      0.000      0.000
REMARK  Name = Oxybuprocaine
REMARK  15 active torsions:
REMARK  status: ('A' for Active; 'I' for Inactive)
REMARK    1  A    between atoms: C_1  and  C_2
REMARK    2  A    between atoms: C_2  and  C_3
REMARK    3  A    between atoms: C_3  and  C_4
REMARK    4  A    between atoms: C_4  and  O_5
REMARK    5  A    between atoms: O_5  and  C_6
REMARK    6  A    between atoms: C_8  and  C_13
REMARK    7  A    between atoms: C_11  and  N_12
REMARK    8  A    between atoms: C_13  and  O_15
REMARK    9  A    between atoms: O_15  and  C_16
REMARK   10  A    between atoms: C_16  and  C_17
REMARK   11  A    between atoms: C_17  and  N_18
REMARK   12  A    between atoms: N_18  and  C_19
REMARK   13  A    between atoms: N_18  and  C_21
REMARK   14  A    between atoms: C_19  and  C_20
REMARK   15  A    between atoms: C_21  and  C_22
REMARK                            x       y       z     vdW  Elec       q    Type
REMARK                         _______ _______ _______ _____ _____    ______ ____
ROOT
ATOM      1  C   UNL     1      -6.979   3.369 123.196  0.00  0.00    +0.000 A 
ATOM      2  C   UNL     1      -7.742   2.269 122.753  0.00  0.00    +0.000 A 
ATOM      3  C   UNL     1      -8.818   1.784 123.522  0.00  0.00    +0.000 A 
ATOM      4  C   UNL     1      -9.115   2.389 124.740  0.00  0.00    +0.000 A 
ATOM      5  C   UNL     1      -8.378   3.492 125.164  0.00  0.00    +0.000 A 
ATOM      6  C   UNL     1      -7.336   4.024 124.392  0.00  0.00    +0.000 A 
ENDROOT
BRANCH   6   7
ATOM      7  N   UNL     1      -6.603   5.086 124.939  0.00  0.00    +0.000 N 
ATOM      8  H   UNL     1      -6.275   5.787 124.287  0.00  0.00    +0.000 HD
ATOM      9  H   UNL     1      -5.868   4.778 125.568  0.00  0.00    +0.000 HD
ENDBRANCH   6   7
BRANCH   3  10
ATOM     10  C   UNL     1      -9.628   0.631 123.040  0.00  0.00    +0.000 C 
ATOM     11  O   UNL     1     -10.348   0.700 122.064  0.00  0.00    +0.000 OA
BRANCH  10  12
ATOM     12  O   UNL     1      -9.424  -0.491 123.820  0.00  0.00    +0.000 OA
BRANCH  12  13
ATOM     13  C   UNL     1      -8.389  -1.310 123.266  0.00  0.00    +0.000 C 
BRANCH  13  14
ATOM     14  C   UNL     1      -8.356  -2.786 123.717  0.00  0.00    +0.000 C 
BRANCH  14  15
ATOM     15  N   UNL     1      -7.235  -3.136 124.644  0.00  0.00    +0.000 NA
BRANCH  15  16
ATOM     16  C   UNL     1      -5.940  -2.513 124.281  0.00  0.00    +0.000 C 
ATOM     17  C   UNL     1      -4.906  -3.391 123.589  0.00  0.00    +0.000 C 
ENDBRANCH  15  16
BRANCH  15  18
ATOM     18  C   UNL     1      -7.606  -2.743 126.031  0.00  0.00    +0.000 C 
ATOM     19  C   UNL     1      -9.022  -3.167 126.439  0.00  0.00    +0.000 C 
ENDBRANCH  15  18
ENDBRANCH  14  15
ENDBRANCH  13  14
ENDBRANCH  12  13
ENDBRANCH  10  12
ENDBRANCH   3  10
BRANCH   1  20
ATOM     20  O   UNL     1      -5.994   3.806 122.335  0.00  0.00    +0.000 OA
BRANCH  20  21
ATOM     21  C   UNL     1      -5.974   3.204 121.035  0.00  0.00    +0.000 C 
BRANCH  21  22
ATOM     22  C   UNL     1      -6.538   4.184 120.010  0.00  0.00    +0.000 C 
BRANCH  22  24
ATOM     23  C   UNL     1      -5.906   6.022 118.418  0.00  0.00    +0.000 C 
ATOM     24  C   UNL     1      -5.482   5.227 119.638  0.00  0.00    +0.000 C 
ENDBRANCH  22  24
ENDBRANCH  21  22
ENDBRANCH  20  21
ENDBRANCH   1  20
TORSDOF 12
ENDMDL
MODEL 2
REMARK VINA RESULT:      -6.0      2.596      4.032
REMARK  Name = Oxybuprocaine
REMARK  15 active torsions:
REMARK  status: ('A' for Active; 'I' for Inactive)
REMARK    1  A    between atoms: C_1  and  C_2
REMARK    2  A    between atoms: C_2  and  C_3
REMARK    3  A    between atoms: C_3  and  C_4
REMARK    4  A    between atoms: C_4  and  O_5
REMARK    5  A    between atoms: O_5  and  C_6
REMARK    6  A    between atoms: C_8  and  C_13
REMARK    7  A    between atoms: C_11  and  N_12
REMARK    8  A    between atoms: C_13  and  O_15
REMARK    9  A    between atoms: O_15  and  C_16
REMARK   10  A    between atoms: C_16  and  C_17
REMARK   11  A    between atoms: C_17  and  N_18
REMARK   12  A    between atoms: N_18  and  C_19
REMARK   13  A    between atoms: N_18  and  C_21
REMARK   14  A    between atoms: C_19  and  C_20
REMARK   15  A    between atoms: C_21  and  C_22
REMARK                            x       y       z     vdW  Elec       q    Type
REMARK                         _______ _______ _______ _____ _____    ______ ____
ROOT
ATOM      1  C   UNL     1      -5.935   3.798 123.677  0.00  0.00    +0.000 A 
ATOM      2  C   UNL     1      -7.041   3.177 124.291  0.00  0.00    +0.000 A 
ATOM      3  C   UNL     1      -8.146   2.755 123.526  0.00  0.00    +0.000 A 
ATOM      4  C   UNL     1      -8.148   2.973 122.151  0.00  0.00    +0.000 A 
ATOM      5  C   UNL     1      -7.043   3.562 121.540  0.00  0.00    +0.000 A 
ATOM      6  C   UNL     1      -5.912   3.943 122.275  0.00  0.00    +0.000 A 
ENDROOT
BRANCH   6   7
ATOM      7  N   UNL     1      -4.883   4.598 121.584  0.00  0.00    +0.000 N 
ATOM      8  H   UNL     1      -4.919   4.550 120.574  0.00  0.00    +0.000 HD
ATOM      9  H   UNL     1      -3.960   4.377 121.943  0.00  0.00    +0.000 HD
ENDBRANCH   6   7
BRANCH   3  10
ATOM     10  C   UNL     1      -9.304   2.087 124.181  0.00  0.00    +0.000 C 
ATOM     11  O   UNL     1     -10.273   1.697 123.559  0.00  0.00    +0.000 OA
BRANCH  10  12
ATOM     12  O   UNL     1      -9.109   1.957 125.542  0.00  0.00    +0.000 OA
BRANCH  12  13
ATOM     13  C   UNL     1      -9.562   0.677 125.998  0.00  0.00    +0.000 C 
BRANCH  13  14
ATOM     14  C   UNL     1      -8.676  -0.537 125.650  0.00  0.00    +0.000 C 
BRANCH  14  15
ATOM     15  N   UNL     1      -9.304  -1.530 124.723  0.00  0.00    +0.000 NA
BRANCH  15  16
ATOM     16  C   UNL     1      -8.629  -1.632 123.407  0.00  0.00    +0.000 C 
ATOM     17  C   UNL     1      -7.290  -0.926 123.247  0.00  0.00    +0.000 C 
ENDBRANCH  15  16
BRANCH  15  18
ATOM     18  C   UNL     1      -9.323  -2.867 125.378  0.00  0.00    +0.000 C 
ATOM     19  C   UNL     1      -8.398  -2.975 126.596  0.00  0.00    +0.000 C 
ENDBRANCH  15  18
ENDBRANCH  14  15
ENDBRANCH  13  14
ENDBRANCH  12  13
ENDBRANCH  10  12
ENDBRANCH   3  10
BRANCH   1  20
ATOM     20  O   UNL     1      -4.878   4.109 124.507  0.00  0.00    +0.000 OA
BRANCH  20  21
ATOM     21  C   UNL     1      -5.184   4.242 125.900  0.00  0.00    +0.000 C 
BRANCH  21  22
ATOM     22  C   UNL     1      -3.892   4.241 126.711  0.00  0.00    +0.000 C 
BRANCH  22  24
ATOM     23  C   UNL     1      -1.682   3.046 126.760  0.00  0.00    +0.000 C 
ATOM     24  C   UNL     1      -3.179   2.894 126.570  0.00  0.00    +0.000 C 
ENDBRANCH  22  24
ENDBRANCH  21  22
ENDBRANCH  20  21
ENDBRANCH   1  20
TORSDOF 12
ENDMDL
MODEL 3
REMARK VINA RESULT:      -6.0      7.909      9.803
REMARK  Name = Oxybuprocaine
REMARK  15 active torsions:
REMARK  status: ('A' for Active; 'I' for Inactive)
REMARK    1  A    between atoms: C_1  and  C_2
REMARK    2  A    between atoms: C_2  and  C_3
REMARK    3  A    between atoms: C_3  and  C_4
REMARK    4  A    between atoms: C_4  and  O_5
REMARK    5  A    between atoms: O_5  and  C_6
REMARK    6  A    between atoms: C_8  and  C_13
REMARK    7  A    between atoms: C_11  and  N_12
REMARK    8  A    between atoms: C_13  and  O_15
REMARK    9  A    between atoms: O_15  and  C_16
REMARK   10  A    between atoms: C_16  and  C_17
REMARK   11  A    between atoms: C_17  and  N_18
REMARK   12  A    between atoms: N_18  and  C_19
REMARK   13  A    between atoms: N_18  and  C_21
REMARK   14  A    between atoms: C_19  and  C_20
REMARK   15  A    between atoms: C_21  and  C_22
REMARK                            x       y       z     vdW  Elec       q    Type
REMARK                         _______ _______ _______ _____ _____    ______ ____
ROOT
ATOM      1  C   UNL     1      -9.743   6.669 130.791  0.00  0.00    +0.000 A 
ATOM      2  C   UNL     1      -8.400   6.852 130.404  0.00  0.00    +0.000 A 
ATOM      3  C   UNL     1      -7.348   6.546 131.290  0.00  0.00    +0.000 A 
ATOM      4  C   UNL     1      -7.645   6.076 132.567  0.00  0.00    +0.000 A 
ATOM      5  C   UNL     1      -8.971   5.870 132.939  0.00  0.00    +0.000 A 
ATOM      6  C   UNL     1     -10.032   6.119 132.056  0.00  0.00    +0.000 A 
ENDROOT
BRANCH   6   7
ATOM      7  N   UNL     1     -11.334   5.956 132.548  0.00  0.00    +0.000 N 
ATOM      8  H   UNL     1     -11.508   5.118 133.088  0.00  0.00    +0.000 HD
ATOM      9  H   UNL     1     -12.047   6.108 131.841  0.00  0.00    +0.000 HD
ENDBRANCH   6   7
BRANCH   3  10
ATOM     10  C   UNL     1      -5.932   6.728 130.868  0.00  0.00    +0.000 C 
ATOM     11  O   UNL     1      -5.534   7.744 130.333  0.00  0.00    +0.000 OA
BRANCH  10  12
ATOM     12  O   UNL     1      -5.163   5.626 131.189  0.00  0.00    +0.000 OA
BRANCH  12  13
ATOM     13  C   UNL     1      -4.774   4.921 130.005  0.00  0.00    +0.000 C 
BRANCH  13  14
ATOM     14  C   UNL     1      -3.340   4.353 129.977  0.00  0.00    +0.000 C 
BRANCH  14  15
ATOM     15  N   UNL     1      -2.644   4.464 128.656  0.00  0.00    +0.000 NA
BRANCH  15  16
ATOM     16  C   UNL     1      -2.819   3.279 127.784  0.00  0.00    +0.000 C 
ATOM     17  C   UNL     1      -1.887   3.143 126.587  0.00  0.00    +0.000 C 
ENDBRANCH  15  16
BRANCH  15  18
ATOM     18  C   UNL     1      -3.132   5.680 127.948  0.00  0.00    +0.000 C 
ATOM     19  C   UNL     1      -2.244   6.914 128.150  0.00  0.00    +0.000 C 
ENDBRANCH  15  18
ENDBRANCH  14  15
ENDBRANCH  13  14
ENDBRANCH  12  13
ENDBRANCH  10  12
ENDBRANCH   3  10
BRANCH   1  20
ATOM     20  O   UNL     1     -10.691   6.933 129.824  0.00  0.00    +0.000 OA
BRANCH  20  21
ATOM     21  C   UNL     1     -10.408   8.023 128.939  0.00  0.00    +0.000 C 
BRANCH  21  22
ATOM     22  C   UNL     1     -11.710   8.713 128.544  0.00  0.00    +0.000 C 
BRANCH  22  24
ATOM     23  C   UNL     1     -12.084   7.164 126.602  0.00  0.00    +0.000 C 
ATOM     24  C   UNL     1     -12.665   7.710 127.891  0.00  0.00    +0.000 C 
ENDBRANCH  22  24
ENDBRANCH  21  22
ENDBRANCH  20  21
ENDBRANCH   1  20
TORSDOF 12
ENDMDL
MODEL 4
REMARK VINA RESULT:      -5.9      5.605      8.130
REMARK  Name = Oxybuprocaine
REMARK  15 active torsions:
REMARK  status: ('A' for Active; 'I' for Inactive)
REMARK    1  A    between atoms: C_1  and  C_2
REMARK    2  A    between atoms: C_2  and  C_3
REMARK    3  A    between atoms: C_3  and  C_4
REMARK    4  A    between atoms: C_4  and  O_5
REMARK    5  A    between atoms: O_5  and  C_6
REMARK    6  A    between atoms: C_8  and  C_13
REMARK    7  A    between atoms: C_11  and  N_12
REMARK    8  A    between atoms: C_13  and  O_15
REMARK    9  A    between atoms: O_15  and  C_16
REMARK   10  A    between atoms: C_16  and  C_17
REMARK   11  A    between atoms: C_17  and  N_18
REMARK   12  A    between atoms: N_18  and  C_19
REMARK   13  A    between atoms: N_18  and  C_21
REMARK   14  A    between atoms: C_19  and  C_20
REMARK   15  A    between atoms: C_21  and  C_22
REMARK                            x       y       z     vdW  Elec       q    Type
REMARK                         _______ _______ _______ _____ _____    ______ ____
ROOT
ATOM      1  C   UNL     1      -7.477  -2.160 126.605  0.00  0.00    +0.000 A 
ATOM      2  C   UNL     1      -6.948  -1.929 127.892  0.00  0.00    +0.000 A 
ATOM      3  C   UNL     1      -7.452  -2.620 129.011  0.00  0.00    +0.000 A 
ATOM      4  C   UNL     1      -8.495  -3.527 128.842  0.00  0.00    +0.000 A 
ATOM      5  C   UNL     1      -8.998  -3.775 127.567  0.00  0.00    +0.000 A 
ATOM      6  C   UNL     1      -8.479  -3.137 126.432  0.00  0.00    +0.000 A 
ENDROOT
BRANCH   6   7
ATOM      7  N   UNL     1      -9.102  -3.393 125.204  0.00  0.00    +0.000 N 
ATOM      8  H   UNL     1      -9.020  -2.672 124.499  0.00  0.00    +0.000 HD
ATOM      9  H   UNL     1     -10.059  -3.719 125.304  0.00  0.00    +0.000 HD
ENDBRANCH   6   7
BRANCH   3  10
ATOM     10  C   UNL     1      -6.878  -2.381 130.364  0.00  0.00    +0.000 C 
ATOM     11  O   UNL     1      -6.701  -1.264 130.811  0.00  0.00    +0.000 OA
BRANCH  10  12
ATOM     12  O   UNL     1      -6.615  -3.568 131.019  0.00  0.00    +0.000 OA
BRANCH  12  13
ATOM     13  C   UNL     1      -5.644  -3.370 132.052  0.00  0.00    +0.000 C 
BRANCH  13  14
ATOM     14  C   UNL     1      -4.221  -3.899 131.776  0.00  0.00    +0.000 C 
BRANCH  14  15
ATOM     15  N   UNL     1      -3.226  -2.852 131.381  0.00  0.00    +0.000 NA
BRANCH  15  16
ATOM     16  C   UNL     1      -3.245  -2.522 129.936  0.00  0.00    +0.000 C 
ATOM     17  C   UNL     1      -3.585  -3.644 128.964  0.00  0.00    +0.000 C 
ENDBRANCH  15  16
BRANCH  15  18
ATOM     18  C   UNL     1      -3.472  -1.618 132.177  0.00  0.00    +0.000 C 
ATOM     19  C   UNL     1      -2.457  -1.395 133.304  0.00  0.00    +0.000 C 
ENDBRANCH  15  18
ENDBRANCH  14  15
ENDBRANCH  13  14
ENDBRANCH  12  13
ENDBRANCH  10  12
ENDBRANCH   3  10
BRANCH   1  20
ATOM     20  O   UNL     1      -6.866  -1.484 125.570  0.00  0.00    +0.000 OA
BRANCH  20  21
ATOM     21  C   UNL     1      -5.592  -1.987 125.148  0.00  0.00    +0.000 C 
BRANCH  21  22
ATOM     22  C   UNL     1      -5.757  -2.772 123.850  0.00  0.00    +0.000 C 
BRANCH  22  24
ATOM     23  C   UNL     1      -4.381  -4.858 123.584  0.00  0.00    +0.000 C 
ATOM     24  C   UNL     1      -4.411  -3.352 123.407  0.00  0.00    +0.000 C 
ENDBRANCH  22  24
ENDBRANCH  21  22
ENDBRANCH  20  21
ENDBRANCH   1  20
TORSDOF 12
ENDMDL
MODEL 5
REMARK VINA RESULT:      -5.7      3.398      7.088
REMARK  Name = Oxybuprocaine
REMARK  15 active torsions:
REMARK  status: ('A' for Active; 'I' for Inactive)
REMARK    1  A    between atoms: C_1  and  C_2
REMARK    2  A    between atoms: C_2  and  C_3
REMARK    3  A    between atoms: C_3  and  C_4
REMARK    4  A    between atoms: C_4  and  O_5
REMARK    5  A    between atoms: O_5  and  C_6
REMARK    6  A    between atoms: C_8  and  C_13
REMARK    7  A    between atoms: C_11  and  N_12
REMARK    8  A    between atoms: C_13  and  O_15
REMARK    9  A    between atoms: O_15  and  C_16
REMARK   10  A    between atoms: C_16  and  C_17
REMARK   11  A    between atoms: C_17  and  N_18
REMARK   12  A    between atoms: N_18  and  C_19
REMARK   13  A    between atoms: N_18  and  C_21
REMARK   14  A    between atoms: C_19  and  C_20
REMARK   15  A    between atoms: C_21  and  C_22
REMARK                            x       y       z     vdW  Elec       q    Type
REMARK                         _______ _______ _______ _____ _____    ______ ____
ROOT
ATOM      1  C   UNL     1      -7.604   0.271 123.654  0.00  0.00    +0.000 A 
ATOM      2  C   UNL     1      -7.324   1.451 124.374  0.00  0.00    +0.000 A 
ATOM      3  C   UNL     1      -8.365   2.298 124.799  0.00  0.00    +0.000 A 
ATOM      4  C   UNL     1      -9.683   1.972 124.488  0.00  0.00    +0.000 A 
ATOM      5  C   UNL     1      -9.961   0.793 123.801  0.00  0.00    +0.000 A 
ATOM      6  C   UNL     1      -8.945  -0.091 123.412  0.00  0.00    +0.000 A 
ENDROOT
BRANCH   6   7
ATOM      7  N   UNL     1      -9.317  -1.212 122.657  0.00  0.00    +0.000 N 
ATOM      8  H   UNL     1      -8.892  -2.092 122.921  0.00  0.00    +0.000 HD
ATOM      9  H   UNL     1      -9.267  -1.051 121.656  0.00  0.00    +0.000 HD
ENDBRANCH   6   7
BRANCH   3  10
ATOM     10  C   UNL     1      -8.062   3.535 125.571  0.00  0.00    +0.000 C 
ATOM     11  O   UNL     1      -8.582   4.605 125.323  0.00  0.00    +0.000 OA
BRANCH  10  12
ATOM     12  O   UNL     1      -7.158   3.288 126.586  0.00  0.00    +0.000 OA
BRANCH  12  13
ATOM     13  C   UNL     1      -6.070   4.216 126.531  0.00  0.00    +0.000 C 
BRANCH  13  14
ATOM     14  C   UNL     1      -4.793   3.836 127.310  0.00  0.00    +0.000 C 
BRANCH  14  15
ATOM     15  N   UNL     1      -3.623   4.740 127.081  0.00  0.00    +0.000 NA
BRANCH  15  16
ATOM     16  C   UNL     1      -3.744   6.059 127.747  0.00  0.00    +0.000 C 
ATOM     17  C   UNL     1      -2.474   6.681 128.311  0.00  0.00    +0.000 C 
ENDBRANCH  15  16
BRANCH  15  18
ATOM     18  C   UNL     1      -2.382   4.061 127.544  0.00  0.00    +0.000 C 
ATOM     19  C   UNL     1      -1.838   3.021 126.558  0.00  0.00    +0.000 C 
ENDBRANCH  15  18
ENDBRANCH  14  15
ENDBRANCH  13  14
ENDBRANCH  12  13
ENDBRANCH  10  12
ENDBRANCH   3  10
BRANCH   1  20
ATOM     20  O   UNL     1      -6.518  -0.522 123.347  0.00  0.00    +0.000 OA
BRANCH  20  21
ATOM     21  C   UNL     1      -6.119  -1.467 124.348  0.00  0.00    +0.000 C 
BRANCH  21  22
ATOM     22  C   UNL     1      -6.055  -2.863 123.735  0.00  0.00    +0.000 C 
BRANCH  22  24
ATOM     23  C   UNL     1      -4.384  -4.735 123.607  0.00  0.00    +0.000 C 
ATOM     24  C   UNL     1      -4.602  -3.244 123.438  0.00  0.00    +0.000 C 
ENDBRANCH  22  24
ENDBRANCH  21  22
ENDBRANCH  20  21
ENDBRANCH   1  20
TORSDOF 12
ENDMDL
MODEL 6
REMARK VINA RESULT:      -5.7      3.431      7.296
REMARK  Name = Oxybuprocaine
REMARK  15 active torsions:
REMARK  status: ('A' for Active; 'I' for Inactive)
REMARK    1  A    between atoms: C_1  and  C_2
REMARK    2  A    between atoms: C_2  and  C_3
REMARK    3  A    between atoms: C_3  and  C_4
REMARK    4  A    between atoms: C_4  and  O_5
REMARK    5  A    between atoms: O_5  and  C_6
REMARK    6  A    between atoms: C_8  and  C_13
REMARK    7  A    between atoms: C_11  and  N_12
REMARK    8  A    between atoms: C_13  and  O_15
REMARK    9  A    between atoms: O_15  and  C_16
REMARK   10  A    between atoms: C_16  and  C_17
REMARK   11  A    between atoms: C_17  and  N_18
REMARK   12  A    between atoms: N_18  and  C_19
REMARK   13  A    between atoms: N_18  and  C_21
REMARK   14  A    between atoms: C_19  and  C_20
REMARK   15  A    between atoms: C_21  and  C_22
REMARK                            x       y       z     vdW  Elec       q    Type
REMARK                         _______ _______ _______ _____ _____    ______ ____
ROOT
ATOM      1  C   UNL     1      -9.349   0.881 124.684  0.00  0.00    +0.000 A 
ATOM      2  C   UNL     1      -8.772   1.939 125.416  0.00  0.00    +0.000 A 
ATOM      3  C   UNL     1      -8.342   3.113 124.767  0.00  0.00    +0.000 A 
ATOM      4  C   UNL     1      -8.473   3.217 123.385  0.00  0.00    +0.000 A 
ATOM      5  C   UNL     1      -9.068   2.183 122.665  0.00  0.00    +0.000 A 
ATOM      6  C   UNL     1      -9.550   1.028 123.296  0.00  0.00    +0.000 A 
ENDROOT
BRANCH   6   7
ATOM      7  N   UNL     1     -10.061   0.010 122.479  0.00  0.00    +0.000 N 
ATOM      8  H   UNL     1      -9.625  -0.099 121.572  0.00  0.00    +0.000 HD
ATOM      9  H   UNL     1     -11.074   0.023 122.416  0.00  0.00    +0.000 HD
ENDBRANCH   6   7
BRANCH   3  10
ATOM     10  C   UNL     1      -7.747   4.231 125.550  0.00  0.00    +0.000 C 
ATOM     11  O   UNL     1      -8.351   4.804 126.435  0.00  0.00    +0.000 OA
BRANCH  10  12
ATOM     12  O   UNL     1      -6.449   4.490 125.155  0.00  0.00    +0.000 OA
BRANCH  12  13
ATOM     13  C   UNL     1      -5.522   3.725 125.933  0.00  0.00    +0.000 C 
BRANCH  13  14
ATOM     14  C   UNL     1      -4.979   4.388 127.216  0.00  0.00    +0.000 C 
BRANCH  14  15
ATOM     15  N   UNL     1      -3.489   4.500 127.285  0.00  0.00    +0.000 NA
BRANCH  15  16
ATOM     16  C   UNL     1      -2.997   5.255 128.462  0.00  0.00    +0.000 C 
ATOM     17  C   UNL     1      -2.316   6.592 128.204  0.00  0.00    +0.000 C 
ENDBRANCH  15  16
BRANCH  15  18
ATOM     18  C   UNL     1      -2.895   3.134 127.286  0.00  0.00    +0.000 C 
ATOM     19  C   UNL     1      -1.577   3.030 126.511  0.00  0.00    +0.000 C 
ENDBRANCH  15  18
ENDBRANCH  14  15
ENDBRANCH  13  14
ENDBRANCH  12  13
ENDBRANCH  10  12
ENDBRANCH   3  10
BRANCH   1  20
ATOM     20  O   UNL     1      -9.799  -0.192 125.424  0.00  0.00    +0.000 OA
BRANCH  20  21
ATOM     21  C   UNL     1      -8.804  -1.134 125.844  0.00  0.00    +0.000 C 
BRANCH  21  22
ATOM     22  C   UNL     1      -9.402  -2.538 125.854  0.00  0.00    +0.000 C 
BRANCH  22  24
ATOM     23  C   UNL     1      -9.505  -3.349 123.478  0.00  0.00    +0.000 C 
ATOM     24  C   UNL     1      -8.735  -3.405 124.783  0.00  0.00    +0.000 C 
ENDBRANCH  22  24
ENDBRANCH  21  22
ENDBRANCH  20  21
ENDBRANCH   1  20
TORSDOF 12
ENDMDL
MODEL 7
REMARK VINA RESULT:      -5.6      1.810      7.262
REMARK  Name = Oxybuprocaine
REMARK  15 active torsions:
REMARK  status: ('A' for Active; 'I' for Inactive)
REMARK    1  A    between atoms: C_1  and  C_2
REMARK    2  A    between atoms: C_2  and  C_3
REMARK    3  A    between atoms: C_3  and  C_4
REMARK    4  A    between atoms: C_4  and  O_5
REMARK    5  A    between atoms: O_5  and  C_6
REMARK    6  A    between atoms: C_8  and  C_13
REMARK    7  A    between atoms: C_11  and  N_12
REMARK    8  A    between atoms: C_13  and  O_15
REMARK    9  A    between atoms: O_15  and  C_16
REMARK   10  A    between atoms: C_16  and  C_17
REMARK   11  A    between atoms: C_17  and  N_18
REMARK   12  A    between atoms: N_18  and  C_19
REMARK   13  A    between atoms: N_18  and  C_21
REMARK   14  A    between atoms: C_19  and  C_20
REMARK   15  A    between atoms: C_21  and  C_22
REMARK                            x       y       z     vdW  Elec       q    Type
REMARK                         _______ _______ _______ _____ _____    ______ ____
ROOT
ATOM      1  C   UNL     1      -6.996  -1.640 124.552  0.00  0.00    +0.000 A 
ATOM      2  C   UNL     1      -7.735  -0.475 124.262  0.00  0.00    +0.000 A 
ATOM      3  C   UNL     1      -8.904  -0.541 123.479  0.00  0.00    +0.000 A 
ATOM      4  C   UNL     1      -9.320  -1.770 122.974  0.00  0.00    +0.000 A 
ATOM      5  C   UNL     1      -8.605  -2.924 123.283  0.00  0.00    +0.000 A 
ATOM      6  C   UNL     1      -7.468  -2.890 124.102  0.00  0.00    +0.000 A 
ENDROOT
BRANCH   6   7
ATOM      7  N   UNL     1      -6.772  -4.091 124.292  0.00  0.00    +0.000 N 
ATOM      8  H   UNL     1      -5.925  -4.210 123.751  0.00  0.00    +0.000 HD
ATOM      9  H   UNL     1      -7.371  -4.909 124.246  0.00  0.00    +0.000 HD
ENDBRANCH   6   7
BRANCH   3  10
ATOM     10  C   UNL     1      -9.686   0.693 123.190  0.00  0.00    +0.000 C 
ATOM     11  O   UNL     1     -10.731   0.674 122.569  0.00  0.00    +0.000 OA
BRANCH  10  12
ATOM     12  O   UNL     1      -9.086   1.811 123.734  0.00  0.00    +0.000 OA
BRANCH  12  13
ATOM     13  C   UNL     1      -8.569   2.659 122.703  0.00  0.00    +0.000 C 
BRANCH  13  14
ATOM     14  C   UNL     1      -7.044   2.616 122.469  0.00  0.00    +0.000 C 
BRANCH  14  15
ATOM     15  N   UNL     1      -6.341   3.924 122.660  0.00  0.00    +0.000 NA
BRANCH  15  16
ATOM     16  C   UNL     1      -5.654   4.051 123.966  0.00  0.00    +0.000 C 
ATOM     17  C   UNL     1      -6.276   4.979 125.000  0.00  0.00    +0.000 C 
ENDBRANCH  15  16
BRANCH  15  18
ATOM     18  C   UNL     1      -5.357   4.115 121.559  0.00  0.00    +0.000 C 
ATOM     19  C   UNL     1      -5.998   4.394 120.194  0.00  0.00    +0.000 C 
ENDBRANCH  15  18
ENDBRANCH  14  15
ENDBRANCH  13  14
ENDBRANCH  12  13
ENDBRANCH  10  12
ENDBRANCH   3  10
BRANCH   1  20
ATOM     20  O   UNL     1      -5.908  -1.474 125.384  0.00  0.00    +0.000 OA
BRANCH  20  21
ATOM     21  C   UNL     1      -6.194  -1.066 126.727  0.00  0.00    +0.000 C 
BRANCH  21  22
ATOM     22  C   UNL     1      -6.545  -2.288 127.570  0.00  0.00    +0.000 C 
BRANCH  22  24
ATOM     23  C   UNL     1      -8.515  -3.671 128.293  0.00  0.00    +0.000 C 
ATOM     24  C   UNL     1      -8.037  -2.282 127.915  0.00  0.00    +0.000 C 
ENDBRANCH  22  24
ENDBRANCH  21  22
ENDBRANCH  20  21
ENDBRANCH   1  20
TORSDOF 12
ENDMDL
MODEL 8
REMARK VINA RESULT:      -5.6      2.574      6.371
REMARK  Name = Oxybuprocaine
REMARK  15 active torsions:
REMARK  status: ('A' for Active; 'I' for Inactive)
REMARK    1  A    between atoms: C_1  and  C_2
REMARK    2  A    between atoms: C_2  and  C_3
REMARK    3  A    between atoms: C_3  and  C_4
REMARK    4  A    between atoms: C_4  and  O_5
REMARK    5  A    between atoms: O_5  and  C_6
REMARK    6  A    between atoms: C_8  and  C_13
REMARK    7  A    between atoms: C_11  and  N_12
REMARK    8  A    between atoms: C_13  and  O_15
REMARK    9  A    between atoms: O_15  and  C_16
REMARK   10  A    between atoms: C_16  and  C_17
REMARK   11  A    between atoms: C_17  and  N_18
REMARK   12  A    between atoms: N_18  and  C_19
REMARK   13  A    between atoms: N_18  and  C_21
REMARK   14  A    between atoms: C_19  and  C_20
REMARK   15  A    between atoms: C_21  and  C_22
REMARK                            x       y       z     vdW  Elec       q    Type
REMARK                         _______ _______ _______ _____ _____    ______ ____
ROOT
ATOM      1  C   UNL     1      -7.941  -1.027 124.224  0.00  0.00    +0.000 A 
ATOM      2  C   UNL     1      -7.580   0.180 123.591  0.00  0.00    +0.000 A 
ATOM      3  C   UNL     1      -8.125   1.407 124.018  0.00  0.00    +0.000 A 
ATOM      4  C   UNL     1      -9.043   1.420 125.065  0.00  0.00    +0.000 A 
ATOM      5  C   UNL     1      -9.379   0.230 125.708  0.00  0.00    +0.000 A 
ATOM      6  C   UNL     1      -8.811  -0.996 125.333  0.00  0.00    +0.000 A 
ENDROOT
BRANCH   6   7
ATOM      7  N   UNL     1      -9.269  -2.147 125.987  0.00  0.00    +0.000 N 
ATOM      8  H   UNL     1      -9.866  -2.000 126.791  0.00  0.00    +0.000 HD
ATOM      9  H   UNL     1      -8.530  -2.816 126.180  0.00  0.00    +0.000 HD
ENDBRANCH   6   7
BRANCH   3  10
ATOM     10  C   UNL     1      -7.728   2.678 123.354  0.00  0.00    +0.000 C 
ATOM     11  O   UNL     1      -8.534   3.423 122.831  0.00  0.00    +0.000 OA
BRANCH  10  12
ATOM     12  O   UNL     1      -6.366   2.890 123.441  0.00  0.00    +0.000 OA
BRANCH  12  13
ATOM     13  C   UNL     1      -6.089   4.138 124.086  0.00  0.00    +0.000 C 
BRANCH  13  14
ATOM     14  C   UNL     1      -6.495   4.258 125.570  0.00  0.00    +0.000 C 
BRANCH  14  15
ATOM     15  N   UNL     1      -5.498   3.708 126.541  0.00  0.00    +0.000 NA
BRANCH  15  16
ATOM     16  C   UNL     1      -5.812   2.339 127.014  0.00  0.00    +0.000 C 
ATOM     17  C   UNL     1      -5.182   1.174 126.263  0.00  0.00    +0.000 C 
ENDBRANCH  15  16
BRANCH  15  18
ATOM     18  C   UNL     1      -4.147   3.721 125.915  0.00  0.00    +0.000 C 
ATOM     19  C   UNL     1      -3.011   4.037 126.896  0.00  0.00    +0.000 C 
ENDBRANCH  15  18
ENDBRANCH  14  15
ENDBRANCH  13  14
ENDBRANCH  12  13
ENDBRANCH  10  12
ENDBRANCH   3  10
BRANCH   1  20
ATOM     20  O   UNL     1      -7.298  -2.161 123.774  0.00  0.00    +0.000 OA
BRANCH  20  21
ATOM     21  C   UNL     1      -6.367  -1.978 122.700  0.00  0.00    +0.000 C 
BRANCH  21  22
ATOM     22  C   UNL     1      -5.025  -2.601 123.074  0.00  0.00    +0.000 C 
BRANCH  22  24
ATOM     23  C   UNL     1      -4.307  -4.961 123.550  0.00  0.00    +0.000 C 
ATOM     24  C   UNL     1      -5.241  -3.837 123.952  0.00  0.00    +0.000 C 
ENDBRANCH  22  24
ENDBRANCH  21  22
ENDBRANCH  20  21
ENDBRANCH   1  20
TORSDOF 12
ENDMDL
MODEL 9
REMARK VINA RESULT:      -5.6      2.371      3.950
REMARK  Name = Oxybuprocaine
REMARK  15 active torsions:
REMARK  status: ('A' for Active; 'I' for Inactive)
REMARK    1  A    between atoms: C_1  and  C_2
REMARK    2  A    between atoms: C_2  and  C_3
REMARK    3  A    between atoms: C_3  and  C_4
REMARK    4  A    between atoms: C_4  and  O_5
REMARK    5  A    between atoms: O_5  and  C_6
REMARK    6  A    between atoms: C_8  and  C_13
REMARK    7  A    between atoms: C_11  and  N_12
REMARK    8  A    between atoms: C_13  and  O_15
REMARK    9  A    between atoms: O_15  and  C_16
REMARK   10  A    between atoms: C_16  and  C_17
REMARK   11  A    between atoms: C_17  and  N_18
REMARK   12  A    between atoms: N_18  and  C_19
REMARK   13  A    between atoms: N_18  and  C_21
REMARK   14  A    between atoms: C_19  and  C_20
REMARK   15  A    between atoms: C_21  and  C_22
REMARK                            x       y       z     vdW  Elec       q    Type
REMARK                         _______ _______ _______ _____ _____    ______ ____
ROOT
ATOM      1  C   UNL     1      -6.802   2.034 124.648  0.00  0.00    +0.000 A 
ATOM      2  C   UNL     1      -7.554   0.859 124.443  0.00  0.00    +0.000 A 
ATOM      3  C   UNL     1      -8.649   0.852 123.557  0.00  0.00    +0.000 A 
ATOM      4  C   UNL     1      -8.999   2.025 122.893  0.00  0.00    +0.000 A 
ATOM      5  C   UNL     1      -8.239   3.178 123.075  0.00  0.00    +0.000 A 
ATOM      6  C   UNL     1      -7.115   3.195 123.912  0.00  0.00    +0.000 A 
ENDROOT
BRANCH   6   7
ATOM      7  N   UNL     1      -6.461   4.422 124.092  0.00  0.00    +0.000 N 
ATOM      8  H   UNL     1      -6.237   4.675 125.046  0.00  0.00    +0.000 HD
ATOM      9  H   UNL     1      -6.904   5.185 123.590  0.00  0.00    +0.000 HD
ENDBRANCH   6   7
BRANCH   3  10
ATOM     10  C   UNL     1      -9.429  -0.397 123.335  0.00  0.00    +0.000 C 
ATOM     11  O   UNL     1     -10.180  -0.540 122.390  0.00  0.00    +0.000 OA
BRANCH  10  12
ATOM     12  O   UNL     1      -9.162  -1.339 124.309  0.00  0.00    +0.000 OA
BRANCH  12  13
ATOM     13  C   UNL     1      -8.852  -2.605 123.715  0.00  0.00    +0.000 C 
BRANCH  13  14
ATOM     14  C   UNL     1      -7.564  -3.303 124.200  0.00  0.00    +0.000 C 
BRANCH  14  15
ATOM     15  N   UNL     1      -6.363  -2.415 124.293  0.00  0.00    +0.000 NA
BRANCH  15  16
ATOM     16  C   UNL     1      -5.786  -2.326 125.655  0.00  0.00    +0.000 C 
ATOM     17  C   UNL     1      -6.750  -2.114 126.815  0.00  0.00    +0.000 C 
ENDBRANCH  15  16
BRANCH  15  18
ATOM     18  C   UNL     1      -5.324  -2.896 123.342  0.00  0.00    +0.000 C 
ATOM     19  C   UNL     1      -4.575  -4.145 123.821  0.00  0.00    +0.000 C 
ENDBRANCH  15  18
ENDBRANCH  14  15
ENDBRANCH  13  14
ENDBRANCH  12  13
ENDBRANCH  10  12
ENDBRANCH   3  10
BRANCH   1  20
ATOM     20  O   UNL     1      -5.709   1.914 125.482  0.00  0.00    +0.000 OA
BRANCH  20  21
ATOM     21  C   UNL     1      -5.898   2.336 126.838  0.00  0.00    +0.000 C 
BRANCH  21  22
ATOM     22  C   UNL     1      -4.640   3.043 127.333  0.00  0.00    +0.000 C 
BRANCH  22  24
ATOM     23  C   UNL     1      -2.179   3.357 126.936  0.00  0.00    +0.000 C 
ATOM     24  C   UNL     1      -3.440   2.661 126.463  0.00  0.00    +0.000 C 
ENDBRANCH  22  24
ENDBRANCH  21  22
ENDBRANCH  20  21
ENDBRANCH   1  20
TORSDOF 12
ENDMDL
