MODEL 1
REMARK VINA RESULT:      -8.0      0.000      0.000
REMARK  Name = Oxycodone
REMARK  4 active torsions:
REMARK  status: ('A' for Active; 'I' for Inactive)
REMARK    1  A    between atoms: C_1  and  O_2
REMARK    2  A    between atoms: O_2  and  C_3
REMARK    3  A    between atoms: C_11  and  O_12
REMARK    4  A    between atoms: N_22  and  C_23
REMARK                            x       y       z     vdW  Elec       q    Type
REMARK                         _______ _______ _______ _____ _____    ______ ____
ROOT
ATOM      1  C   UNL     1      -6.382   4.030 121.044  0.00  0.00    +0.000 A 
ATOM      2  C   UNL     1      -6.446   3.684 122.367  0.00  0.00    +0.000 A 
ATOM      3  O   UNL     1      -5.420   3.606 123.314  0.00  0.00    +0.000 OA
ATOM      4  C   UNL     1      -6.135   3.429 124.549  0.00  0.00    +0.000 C 
ATOM      5  C   UNL     1      -5.502   2.894 125.831  0.00  0.00    +0.000 C 
ATOM      6  O   UNL     1      -4.237   2.928 126.018  0.00  0.00    +0.000 OA
ATOM      7  C   UNL     1      -6.394   2.312 126.933  0.00  0.00    +0.000 C 
ATOM      8  C   UNL     1      -7.910   2.489 126.664  0.00  0.00    +0.000 C 
ATOM      9  C   UNL     1      -8.428   2.361 125.190  0.00  0.00    +0.000 C 
ATOM     10  C   UNL     1      -9.077   0.944 124.671  0.00  0.00    +0.000 C 
ATOM     11  C   UNL     1      -9.707   1.906 123.137  0.00  0.00    +0.000 C 
ATOM     12  C   UNL     1      -8.776   2.823 122.242  0.00  0.00    +0.000 A 
ATOM     13  C   UNL     1      -8.820   3.409 120.961  0.00  0.00    +0.000 A 
ATOM     14  C   UNL     1      -7.609   3.963 120.352  0.00  0.00    +0.000 A 
ATOM     15  C   UNL     1      -7.610   3.131 122.887  0.00  0.00    +0.000 A 
ATOM     16  C   UNL     1      -7.263   2.509 124.160  0.00  0.00    +0.000 C 
ATOM     17  C   UNL     1      -6.815   1.154 123.555  0.00  0.00    +0.000 C 
ATOM     18  C   UNL     1      -6.698   0.301 124.712  0.00  0.00    +0.000 C 
ATOM     19  N   UNL     1      -7.934  -0.396 124.857  0.00  0.00    +0.000 NA
ATOM     20  C   UNL     1      -7.519  -1.166 126.154  0.00  0.00    +0.000 C 
ENDROOT
BRANCH   1  22
ATOM     21  C   UNL     1      -5.450   5.462 119.442  0.00  0.00    +0.000 C 
ATOM     22  O   UNL     1      -5.240   4.399 120.383  0.00  0.00    +0.000 OA
ENDBRANCH   1  22
BRANCH   9  23
ATOM     23  O   UNL     1      -9.228   3.567 125.081  0.00  0.00    +0.000 OA
ATOM     24  H   UNL     1      -8.893   4.178 124.405  0.00  0.00    +0.000 HD
ENDBRANCH   9  23
TORSDOF 2
ENDMDL
MODEL 2
REMARK VINA RESULT:      -7.8      2.701      4.960
REMARK  Name = Oxycodone
REMARK  4 active torsions:
REMARK  status: ('A' for Active; 'I' for Inactive)
REMARK    1  A    between atoms: C_1  and  O_2
REMARK    2  A    between atoms: O_2  and  C_3
REMARK    3  A    between atoms: C_11  and  O_12
REMARK    4  A    between atoms: N_22  and  C_23
REMARK                            x       y       z     vdW  Elec       q    Type
REMARK                         _______ _______ _______ _____ _____    ______ ____
ROOT
ATOM      1  C   UNL     1      -8.072   2.318 123.423  0.00  0.00    +0.000 A 
ATOM      2  C   UNL     1      -8.027   0.961 123.605  0.00  0.00    +0.000 A 
ATOM      3  O   UNL     1      -8.931  -0.020 123.188  0.00  0.00    +0.000 OA
ATOM      4  C   UNL     1      -8.226  -1.244 123.461  0.00  0.00    +0.000 C 
ATOM      5  C   UNL     1      -8.901  -2.610 123.568  0.00  0.00    +0.000 C 
ATOM      6  O   UNL     1     -10.049  -2.831 123.053  0.00  0.00    +0.000 OA
ATOM      7  C   UNL     1      -8.187  -3.753 124.297  0.00  0.00    +0.000 C 
ATOM      8  C   UNL     1      -6.736  -3.412 124.720  0.00  0.00    +0.000 C 
ATOM      9  C   UNL     1      -6.422  -1.955 125.207  0.00  0.00    +0.000 C 
ATOM     10  C   UNL     1      -6.367  -1.624 126.814  0.00  0.00    +0.000 C 
ATOM     11  C   UNL     1      -5.564   0.053 126.343  0.00  0.00    +0.000 C 
ATOM     12  C   UNL     1      -6.176   1.038 125.266  0.00  0.00    +0.000 A 
ATOM     13  C   UNL     1      -6.033   2.390 124.897  0.00  0.00    +0.000 A 
ATOM     14  C   UNL     1      -7.011   3.033 124.017  0.00  0.00    +0.000 A 
ATOM     15  C   UNL     1      -7.098   0.407 124.477  0.00  0.00    +0.000 A 
ATOM     16  C   UNL     1      -7.537  -0.954 124.770  0.00  0.00    +0.000 C 
ATOM     17  C   UNL     1      -8.489  -0.564 125.930  0.00  0.00    +0.000 C 
ATOM     18  C   UNL     1      -8.806  -1.834 126.535  0.00  0.00    +0.000 C 
ATOM     19  N   UNL     1      -7.893  -2.037 127.611  0.00  0.00    +0.000 NA
ATOM     20  C   UNL     1      -8.447  -3.444 128.013  0.00  0.00    +0.000 C 
ENDROOT
BRANCH   1  22
ATOM     21  C   UNL     1      -8.665   3.384 121.424  0.00  0.00    +0.000 C 
ATOM     22  O   UNL     1      -9.058   2.986 122.746  0.00  0.00    +0.000 OA
ENDBRANCH   1  22
BRANCH   9  23
ATOM     23  O   UNL     1      -5.255  -1.648 124.399  0.00  0.00    +0.000 OA
ATOM     24  H   UNL     1      -5.127  -0.694 124.275  0.00  0.00    +0.000 HD
ENDBRANCH   9  23
TORSDOF 2
ENDMDL
MODEL 3
REMARK VINA RESULT:      -7.7      2.576      3.943
REMARK  Name = Oxycodone
REMARK  4 active torsions:
REMARK  status: ('A' for Active; 'I' for Inactive)
REMARK    1  A    between atoms: C_1  and  O_2
REMARK    2  A    between atoms: O_2  and  C_3
REMARK    3  A    between atoms: C_11  and  O_12
REMARK    4  A    between atoms: N_22  and  C_23
REMARK                            x       y       z     vdW  Elec       q    Type
REMARK                         _______ _______ _______ _____ _____    ______ ____
ROOT
ATOM      1  C   UNL     1      -8.921   1.890 122.966  0.00  0.00    +0.000 A 
ATOM      2  C   UNL     1      -8.253   1.092 123.855  0.00  0.00    +0.000 A 
ATOM      3  O   UNL     1      -7.123   1.377 124.628  0.00  0.00    +0.000 OA
ATOM      4  C   UNL     1      -7.047   0.248 125.516  0.00  0.00    +0.000 C 
ATOM      5  C   UNL     1      -5.791  -0.144 126.290  0.00  0.00    +0.000 C 
ATOM      6  O   UNL     1      -4.852   0.695 126.512  0.00  0.00    +0.000 OA
ATOM      7  C   UNL     1      -5.647  -1.570 126.831  0.00  0.00    +0.000 C 
ATOM      8  C   UNL     1      -6.921  -2.435 126.652  0.00  0.00    +0.000 C 
ATOM      9  C   UNL     1      -7.771  -2.254 125.347  0.00  0.00    +0.000 C 
ATOM     10  C   UNL     1      -7.573  -3.293 124.090  0.00  0.00    +0.000 C 
ATOM     11  C   UNL     1      -9.180  -2.552 123.352  0.00  0.00    +0.000 C 
ATOM     12  C   UNL     1      -9.419  -0.997 123.173  0.00  0.00    +0.000 A 
ATOM     13  C   UNL     1     -10.291  -0.158 122.451  0.00  0.00    +0.000 A 
ATOM     14  C   UNL     1     -10.007   1.272 122.312  0.00  0.00    +0.000 A 
ATOM     15  C   UNL     1      -8.539  -0.266 123.923  0.00  0.00    +0.000 A 
ATOM     16  C   UNL     1      -7.436  -0.907 124.630  0.00  0.00    +0.000 C 
ATOM     17  C   UNL     1      -6.538  -1.096 123.380  0.00  0.00    +0.000 C 
ATOM     18  C   UNL     1      -5.501  -1.980 123.850  0.00  0.00    +0.000 C 
ATOM     19  N   UNL     1      -5.896  -3.313 123.526  0.00  0.00    +0.000 NA
ATOM     20  C   UNL     1      -4.645  -3.998 124.171  0.00  0.00    +0.000 C 
ENDROOT
BRANCH   1  22
ATOM     21  C   UNL     1      -8.664   3.490 121.275  0.00  0.00    +0.000 C 
ATOM     22  O   UNL     1      -8.593   3.189 122.676  0.00  0.00    +0.000 OA
ENDBRANCH   1  22
BRANCH   9  23
ATOM     23  O   UNL     1      -9.099  -2.098 125.912  0.00  0.00    +0.000 OA
ATOM     24  H   UNL     1      -9.662  -1.509 125.384  0.00  0.00    +0.000 HD
ENDBRANCH   9  23
TORSDOF 2
ENDMDL
MODEL 4
REMARK VINA RESULT:      -7.4      3.129      6.843
REMARK  Name = Oxycodone
REMARK  4 active torsions:
REMARK  status: ('A' for Active; 'I' for Inactive)
REMARK    1  A    between atoms: C_1  and  O_2
REMARK    2  A    between atoms: O_2  and  C_3
REMARK    3  A    between atoms: C_11  and  O_12
REMARK    4  A    between atoms: N_22  and  C_23
REMARK                            x       y       z     vdW  Elec       q    Type
REMARK                         _______ _______ _______ _____ _____    ______ ____
ROOT
ATOM      1  C   UNL     1      -7.969  -2.245 128.799  0.00  0.00    +0.000 A 
ATOM      2  C   UNL     1      -7.608  -1.607 127.642  0.00  0.00    +0.000 A 
ATOM      3  O   UNL     1      -7.031  -0.345 127.468  0.00  0.00    +0.000 OA
ATOM      4  C   UNL     1      -6.677  -0.343 126.074  0.00  0.00    +0.000 C 
ATOM      5  C   UNL     1      -6.383   0.923 125.272  0.00  0.00    +0.000 C 
ATOM      6  O   UNL     1      -6.053   2.017 125.845  0.00  0.00    +0.000 OA
ATOM      7  C   UNL     1      -6.471   0.890 123.743  0.00  0.00    +0.000 C 
ATOM      8  C   UNL     1      -6.705  -0.529 123.164  0.00  0.00    +0.000 C 
ATOM      9  C   UNL     1      -7.640  -1.512 123.949  0.00  0.00    +0.000 C 
ATOM     10  C   UNL     1      -9.210  -1.684 123.499  0.00  0.00    +0.000 C 
ATOM     11  C   UNL     1      -9.267  -3.224 124.639  0.00  0.00    +0.000 C 
ATOM     12  C   UNL     1      -8.786  -3.209 126.147  0.00  0.00    +0.000 A 
ATOM     13  C   UNL     1      -8.939  -4.014 127.294  0.00  0.00    +0.000 A 
ATOM     14  C   UNL     1      -8.575  -3.505 128.618  0.00  0.00    +0.000 A 
ATOM     15  C   UNL     1      -8.008  -2.115 126.413  0.00  0.00    +0.000 A 
ATOM     16  C   UNL     1      -7.839  -1.052 125.428  0.00  0.00    +0.000 C 
ATOM     17  C   UNL     1      -9.220  -0.390 125.674  0.00  0.00    +0.000 C 
ATOM     18  C   UNL     1      -9.344   0.530 124.572  0.00  0.00    +0.000 C 
ATOM     19  N   UNL     1     -10.066  -0.135 123.537  0.00  0.00    +0.000 NA
ATOM     20  C   UNL     1     -10.000   1.055 122.522  0.00  0.00    +0.000 C 
ENDROOT
BRANCH   1  22
ATOM     21  C   UNL     1      -7.502  -2.745 131.038  0.00  0.00    +0.000 C 
ATOM     22  O   UNL     1      -7.800  -1.738 130.060  0.00  0.00    +0.000 OA
ENDBRANCH   1  22
BRANCH   9  23
ATOM     23  O   UNL     1      -6.802  -2.697 123.998  0.00  0.00    +0.000 OA
ATOM     24  H   UNL     1      -6.305  -2.769 124.829  0.00  0.00    +0.000 HD
ENDBRANCH   9  23
TORSDOF 2
ENDMDL
MODEL 5
REMARK VINA RESULT:      -7.2      3.353      5.544
REMARK  Name = Oxycodone
REMARK  4 active torsions:
REMARK  status: ('A' for Active; 'I' for Inactive)
REMARK    1  A    between atoms: C_1  and  O_2
REMARK    2  A    between atoms: O_2  and  C_3
REMARK    3  A    between atoms: C_11  and  O_12
REMARK    4  A    between atoms: N_22  and  C_23
REMARK                            x       y       z     vdW  Elec       q    Type
REMARK                         _______ _______ _______ _____ _____    ______ ____
ROOT
ATOM      1  C   UNL     1      -8.320   1.933 126.762  0.00  0.00    +0.000 A 
ATOM      2  C   UNL     1      -8.387   0.644 126.306  0.00  0.00    +0.000 A 
ATOM      3  O   UNL     1      -8.619  -0.537 127.017  0.00  0.00    +0.000 OA
ATOM      4  C   UNL     1      -8.807  -1.509 125.974  0.00  0.00    +0.000 C 
ATOM      5  C   UNL     1      -8.696  -3.018 126.185  0.00  0.00    +0.000 C 
ATOM      6  O   UNL     1      -8.812  -3.541 127.346  0.00  0.00    +0.000 OA
ATOM      7  C   UNL     1      -8.453  -3.936 124.983  0.00  0.00    +0.000 C 
ATOM      8  C   UNL     1      -8.508  -3.203 123.619  0.00  0.00    +0.000 C 
ATOM      9  C   UNL     1      -7.931  -1.748 123.528  0.00  0.00    +0.000 C 
ATOM     10  C   UNL     1      -6.410  -1.505 122.958  0.00  0.00    +0.000 C 
ATOM     11  C   UNL     1      -6.853   0.357 122.849  0.00  0.00    +0.000 C 
ATOM     12  C   UNL     1      -7.478   1.174 124.052  0.00  0.00    +0.000 A 
ATOM     13  C   UNL     1      -7.651   2.527 124.409  0.00  0.00    +0.000 A 
ATOM     14  C   UNL     1      -8.022   2.897 125.776  0.00  0.00    +0.000 A 
ATOM     15  C   UNL     1      -7.991   0.342 125.009  0.00  0.00    +0.000 A 
ATOM     16  C   UNL     1      -7.788  -1.101 124.942  0.00  0.00    +0.000 C 
ATOM     17  C   UNL     1      -6.324  -1.077 125.450  0.00  0.00    +0.000 C 
ATOM     18  C   UNL     1      -5.861  -2.415 125.181  0.00  0.00    +0.000 C 
ATOM     19  N   UNL     1      -5.213  -2.397 123.910  0.00  0.00    +0.000 NA
ATOM     20  C   UNL     1      -4.877  -3.925 123.892  0.00  0.00    +0.000 C 
ENDROOT
BRANCH   1  22
ATOM     21  C   UNL     1      -7.930   3.600 128.360  0.00  0.00    +0.000 C 
ATOM     22  O   UNL     1      -8.498   2.315 128.066  0.00  0.00    +0.000 OA
ENDBRANCH   1  22
BRANCH   9  23
ATOM     23  O   UNL     1      -9.032  -1.064 122.873  0.00  0.00    +0.000 OA
ATOM     24  H   UNL     1      -9.134  -1.326 121.943  0.00  0.00    +0.000 HD
ENDBRANCH   9  23
TORSDOF 2
ENDMDL
MODEL 6
REMARK VINA RESULT:      -7.1      6.598      9.006
REMARK  Name = Oxycodone
REMARK  4 active torsions:
REMARK  status: ('A' for Active; 'I' for Inactive)
REMARK    1  A    between atoms: C_1  and  O_2
REMARK    2  A    between atoms: O_2  and  C_3
REMARK    3  A    between atoms: C_11  and  O_12
REMARK    4  A    between atoms: N_22  and  C_23
REMARK                            x       y       z     vdW  Elec       q    Type
REMARK                         _______ _______ _______ _____ _____    ______ ____
ROOT
ATOM      1  C   UNL     1      -3.878   6.746 130.485  0.00  0.00    +0.000 A 
ATOM      2  C   UNL     1      -5.045   6.036 130.404  0.00  0.00    +0.000 A 
ATOM      3  O   UNL     1      -5.829   5.743 129.284  0.00  0.00    +0.000 OA
ATOM      4  C   UNL     1      -6.773   4.785 129.793  0.00  0.00    +0.000 C 
ATOM      5  C   UNL     1      -8.092   4.439 129.105  0.00  0.00    +0.000 C 
ATOM      6  O   UNL     1      -8.279   4.671 127.862  0.00  0.00    +0.000 OA
ATOM      7  C   UNL     1      -9.219   3.785 129.910  0.00  0.00    +0.000 C 
ATOM      8  C   UNL     1      -8.809   3.396 131.353  0.00  0.00    +0.000 C 
ATOM      9  C   UNL     1      -7.836   4.344 132.135  0.00  0.00    +0.000 C 
ATOM     10  C   UNL     1      -8.440   5.433 133.206  0.00  0.00    +0.000 C 
ATOM     11  C   UNL     1      -6.642   5.675 133.826  0.00  0.00    +0.000 C 
ATOM     12  C   UNL     1      -5.423   5.978 132.862  0.00  0.00    +0.000 A 
ATOM     13  C   UNL     1      -4.107   6.470 132.976  0.00  0.00    +0.000 A 
ATOM     14  C   UNL     1      -3.363   6.897 131.790  0.00  0.00    +0.000 A 
ATOM     15  C   UNL     1      -5.728   5.684 131.562  0.00  0.00    +0.000 A 
ATOM     16  C   UNL     1      -7.084   5.314 131.170  0.00  0.00    +0.000 C 
ATOM     17  C   UNL     1      -7.654   6.755 131.196  0.00  0.00    +0.000 C 
ATOM     18  C   UNL     1      -9.078   6.547 131.103  0.00  0.00    +0.000 C 
ATOM     19  N   UNL     1      -9.596   6.527 132.431  0.00  0.00    +0.000 NA
ATOM     20  C   UNL     1     -11.078   6.259 132.008  0.00  0.00    +0.000 C 
ENDROOT
BRANCH   1  22
ATOM     21  C   UNL     1      -2.265   6.431 128.817  0.00  0.00    +0.000 C 
ATOM     22  O   UNL     1      -3.226   7.310 129.420  0.00  0.00    +0.000 OA
ENDBRANCH   1  22
BRANCH   9  23
ATOM     23  O   UNL     1      -6.850   3.387 132.606  0.00  0.00    +0.000 OA
ATOM     24  H   UNL     1      -6.659   3.483 133.553  0.00  0.00    +0.000 HD
ENDBRANCH   9  23
TORSDOF 2
ENDMDL
MODEL 7
REMARK VINA RESULT:      -7.0      7.981      9.100
REMARK  Name = Oxycodone
REMARK  4 active torsions:
REMARK  status: ('A' for Active; 'I' for Inactive)
REMARK    1  A    between atoms: C_1  and  O_2
REMARK    2  A    between atoms: O_2  and  C_3
REMARK    3  A    between atoms: C_11  and  O_12
REMARK    4  A    between atoms: N_22  and  C_23
REMARK                            x       y       z     vdW  Elec       q    Type
REMARK                         _______ _______ _______ _____ _____    ______ ____
ROOT
ATOM      1  C   UNL     1      -9.728   7.279 130.074  0.00  0.00    +0.000 A 
ATOM      2  C   UNL     1      -8.602   6.927 130.768  0.00  0.00    +0.000 A 
ATOM      3  O   UNL     1      -7.258   7.121 130.434  0.00  0.00    +0.000 OA
ATOM      4  C   UNL     1      -6.571   6.761 131.645  0.00  0.00    +0.000 C 
ATOM      5  C   UNL     1      -5.086   6.411 131.710  0.00  0.00    +0.000 C 
ATOM      6  O   UNL     1      -4.271   6.778 130.795  0.00  0.00    +0.000 OA
ATOM      7  C   UNL     1      -4.546   5.614 132.902  0.00  0.00    +0.000 C 
ATOM      8  C   UNL     1      -5.592   5.385 134.023  0.00  0.00    +0.000 C 
ATOM      9  C   UNL     1      -7.082   5.125 133.612  0.00  0.00    +0.000 C 
ATOM     10  C   UNL     1      -7.655   3.588 133.541  0.00  0.00    +0.000 C 
ATOM     11  C   UNL     1      -9.411   4.351 133.431  0.00  0.00    +0.000 C 
ATOM     12  C   UNL     1      -9.805   5.481 132.395  0.00  0.00    +0.000 A 
ATOM     13  C   UNL     1     -10.987   6.036 131.864  0.00  0.00    +0.000 A 
ATOM     14  C   UNL     1     -10.943   6.890 130.677  0.00  0.00    +0.000 A 
ATOM     15  C   UNL     1      -8.697   6.086 131.870  0.00  0.00    +0.000 A 
ATOM     16  C   UNL     1      -7.357   5.577 132.143  0.00  0.00    +0.000 C 
ATOM     17  C   UNL     1      -7.436   4.388 131.150  0.00  0.00    +0.000 C 
ATOM     18  C   UNL     1      -6.283   3.595 131.495  0.00  0.00    +0.000 C 
ATOM     19  N   UNL     1      -6.710   2.597 132.420  0.00  0.00    +0.000 NA
ATOM     20  C   UNL     1      -5.293   1.962 132.617  0.00  0.00    +0.000 C 
ENDROOT
BRANCH   1  22
ATOM     21  C   UNL     1     -11.035   8.425 128.505  0.00  0.00    +0.000 C 
ATOM     22  O   UNL     1      -9.737   7.936 128.872  0.00  0.00    +0.000 OA
ENDBRANCH   1  22
BRANCH   9  23
ATOM     23  O   UNL     1      -7.766   6.078 134.469  0.00  0.00    +0.000 OA
ATOM     24  H   UNL     1      -8.517   6.504 134.027  0.00  0.00    +0.000 HD
ENDBRANCH   9  23
TORSDOF 2
ENDMDL
MODEL 8
REMARK VINA RESULT:      -6.9      3.232      6.136
REMARK  Name = Oxycodone
REMARK  4 active torsions:
REMARK  status: ('A' for Active; 'I' for Inactive)
REMARK    1  A    between atoms: C_1  and  O_2
REMARK    2  A    between atoms: O_2  and  C_3
REMARK    3  A    between atoms: C_11  and  O_12
REMARK    4  A    between atoms: N_22  and  C_23
REMARK                            x       y       z     vdW  Elec       q    Type
REMARK                         _______ _______ _______ _____ _____    ______ ____
ROOT
ATOM      1  C   UNL     1      -8.217   1.915 128.487  0.00  0.00    +0.000 A 
ATOM      2  C   UNL     1      -7.837   1.281 127.335  0.00  0.00    +0.000 A 
ATOM      3  O   UNL     1      -7.810   1.766 126.024  0.00  0.00    +0.000 OA
ATOM      4  C   UNL     1      -7.105   0.734 125.313  0.00  0.00    +0.000 C 
ATOM      5  C   UNL     1      -7.145   0.564 123.796  0.00  0.00    +0.000 C 
ATOM      6  O   UNL     1      -7.478   1.527 123.023  0.00  0.00    +0.000 OA
ATOM      7  C   UNL     1      -6.766  -0.783 123.173  0.00  0.00    +0.000 C 
ATOM      8  C   UNL     1      -6.213  -1.809 124.196  0.00  0.00    +0.000 C 
ATOM      9  C   UNL     1      -6.839  -1.843 125.633  0.00  0.00    +0.000 C 
ATOM     10  C   UNL     1      -7.994  -2.952 125.996  0.00  0.00    +0.000 C 
ATOM     11  C   UNL     1      -7.734  -2.477 127.836  0.00  0.00    +0.000 C 
ATOM     12  C   UNL     1      -7.759  -0.984 128.360  0.00  0.00    +0.000 A 
ATOM     13  C   UNL     1      -7.888  -0.321 129.597  0.00  0.00    +0.000 A 
ATOM     14  C   UNL     1      -8.166   1.116 129.649  0.00  0.00    +0.000 A 
ATOM     15  C   UNL     1      -7.617  -0.091 127.334  0.00  0.00    +0.000 A 
ATOM     16  C   UNL     1      -7.628  -0.531 125.943  0.00  0.00    +0.000 C 
ATOM     17  C   UNL     1      -9.165  -0.714 125.849  0.00  0.00    +0.000 C 
ATOM     18  C   UNL     1      -9.336  -1.423 124.606  0.00  0.00    +0.000 C 
ATOM     19  N   UNL     1      -9.386  -2.816 124.911  0.00  0.00    +0.000 NA
ATOM     20  C   UNL     1      -9.530  -3.288 123.426  0.00  0.00    +0.000 C 
ENDROOT
BRANCH   1  22
ATOM     21  C   UNL     1      -8.901   3.645 129.909  0.00  0.00    +0.000 C 
ATOM     22  O   UNL     1      -8.644   3.214 128.565  0.00  0.00    +0.000 OA
ENDBRANCH   1  22
BRANCH   9  23
ATOM     23  O   UNL     1      -5.639  -1.802 126.449  0.00  0.00    +0.000 OA
ATOM     24  H   UNL     1      -5.005  -1.132 126.147  0.00  0.00    +0.000 HD
ENDBRANCH   9  23
TORSDOF 2
ENDMDL
MODEL 9
REMARK VINA RESULT:      -6.6      6.159      8.053
REMARK  Name = Oxycodone
REMARK  4 active torsions:
REMARK  status: ('A' for Active; 'I' for Inactive)
REMARK    1  A    between atoms: C_1  and  O_2
REMARK    2  A    between atoms: O_2  and  C_3
REMARK    3  A    between atoms: C_11  and  O_12
REMARK    4  A    between atoms: N_22  and  C_23
REMARK                            x       y       z     vdW  Elec       q    Type
REMARK                         _______ _______ _______ _____ _____    ______ ____
ROOT
ATOM      1  C   UNL     1     -11.415   6.729 128.817  0.00  0.00    +0.000 A 
ATOM      2  C   UNL     1     -10.255   6.094 129.172  0.00  0.00    +0.000 A 
ATOM      3  O   UNL     1      -9.356   5.377 128.376  0.00  0.00    +0.000 OA
ATOM      4  C   UNL     1      -8.241   5.166 129.260  0.00  0.00    +0.000 C 
ATOM      5  C   UNL     1      -7.165   4.107 129.035  0.00  0.00    +0.000 C 
ATOM      6  O   UNL     1      -6.955   3.601 127.880  0.00  0.00    +0.000 OA
ATOM      7  C   UNL     1      -6.301   3.641 130.211  0.00  0.00    +0.000 C 
ATOM      8  C   UNL     1      -6.531   4.452 131.512  0.00  0.00    +0.000 C 
ATOM      9  C   UNL     1      -7.986   4.932 131.846  0.00  0.00    +0.000 C 
ATOM     10  C   UNL     1      -8.912   4.068 132.891  0.00  0.00    +0.000 C 
ATOM     11  C   UNL     1     -10.103   5.571 132.926  0.00  0.00    +0.000 C 
ATOM     12  C   UNL     1     -10.670   6.262 131.619  0.00  0.00    +0.000 A 
ATOM     13  C   UNL     1     -11.720   7.138 131.281  0.00  0.00    +0.000 A 
ATOM     14  C   UNL     1     -12.117   7.326 129.885  0.00  0.00    +0.000 A 
ATOM     15  C   UNL     1      -9.943   5.914 130.514  0.00  0.00    +0.000 A 
ATOM     16  C   UNL     1      -8.905   4.891 130.584  0.00  0.00    +0.000 C 
ATOM     17  C   UNL     1      -9.876   3.682 130.583  0.00  0.00    +0.000 C 
ATOM     18  C   UNL     1      -9.023   2.575 130.934  0.00  0.00    +0.000 C 
ATOM     19  N   UNL     1      -9.113   2.395 132.347  0.00  0.00    +0.000 NA
ATOM     20  C   UNL     1      -8.095   1.208 132.410  0.00  0.00    +0.000 C 
ENDROOT
BRANCH   1  22
ATOM     21  C   UNL     1     -11.205   7.710 126.701  0.00  0.00    +0.000 C 
ATOM     22  O   UNL     1     -11.917   6.792 127.544  0.00  0.00    +0.000 OA
ENDBRANCH   1  22
BRANCH   9  23
ATOM     23  O   UNL     1      -7.746   6.335 132.134  0.00  0.00    +0.000 OA
ATOM     24  H   UNL     1      -7.645   6.509 133.083  0.00  0.00    +0.000 HD
ENDBRANCH   9  23
TORSDOF 2
ENDMDL
