MODEL 1
REMARK VINA RESULT:      -6.7      0.000      0.000
REMARK  Name = Oxymetazoline
REMARK  9 active torsions:
REMARK  status: ('A' for Active; 'I' for Inactive)
REMARK    1  A    between atoms: C_1  and  C_2
REMARK    2  A    between atoms: C_4  and  C_16
REMARK    3  A    between atoms: C_5  and  O_6
REMARK    4  A    between atoms: C_7  and  C_8
REMARK    5  A    between atoms: C_9  and  C_10
REMARK    6  A    between atoms: C_10  and  C_11
REMARK    7  A    between atoms: C_16  and  C_17
REMARK    8  A    between atoms: C_16  and  C_18
REMARK    9  A    between atoms: C_16  and  C_19
REMARK                            x       y       z     vdW  Elec       q    Type
REMARK                         _______ _______ _______ _____ _____    ______ ____
ROOT
ATOM      1  C   UNL     1      -6.091   2.234 125.083  0.00  0.00    +0.000 C 
ATOM      2  C   UNL     1      -7.082   1.260 124.550  0.00  0.00    +0.000 A 
ATOM      3  C   UNL     1      -6.843  -0.046 124.979  0.00  0.00    +0.000 A 
ATOM      4  C   UNL     1      -7.645  -1.137 124.643  0.00  0.00    +0.000 A 
ATOM      5  C   UNL     1      -8.742  -0.852 123.814  0.00  0.00    +0.000 A 
ATOM      6  C   UNL     1      -9.003   0.461 123.334  0.00  0.00    +0.000 A 
ATOM      7  C   UNL     1     -10.247   0.678 122.490  0.00  0.00    +0.000 C 
ATOM      8  C   UNL     1      -8.144   1.543 123.671  0.00  0.00    +0.000 A 
ENDROOT
BRANCH   4   9
ATOM      9  C   UNL     1      -7.228  -2.463 125.295  0.00  0.00    +0.000 C 
ATOM     10  C   UNL     1      -5.846  -2.304 125.980  0.00  0.00    +0.000 C 
ATOM     11  C   UNL     1      -8.284  -2.857 126.361  0.00  0.00    +0.000 C 
ATOM     12  C   UNL     1      -7.110  -3.643 124.335  0.00  0.00    +0.000 C 
ENDBRANCH   4   9
BRANCH   5  13
ATOM     13  O   UNL     1      -9.677  -1.755 123.402  0.00  0.00    +0.000 OA
ATOM     14  H   UNL     1      -9.478  -2.144 122.542  0.00  0.00    +0.000 HD
ENDBRANCH   5  13
BRANCH   8  15
ATOM     15  C   UNL     1      -8.449   2.922 123.073  0.00  0.00    +0.000 C 
BRANCH  15  16
ATOM     16  C   UNL     1      -7.804   3.305 121.753  0.00  0.00    +0.000 C 
ATOM     17  N   UNL     1      -8.519   3.763 120.754  0.00  0.00    +0.000 NA
ATOM     18  C   UNL     1      -7.501   4.158 119.729  0.00  0.00    +0.000 C 
ATOM     19  C   UNL     1      -6.172   4.237 120.476  0.00  0.00    +0.000 C 
ATOM     20  N   UNL     1      -6.435   3.283 121.541  0.00  0.00    +0.000 N 
ATOM     21  H   UNL     1      -5.835   3.277 122.357  0.00  0.00    +0.000 HD
ENDBRANCH  15  16
ENDBRANCH   8  15
TORSDOF 4
ENDMDL
MODEL 2
REMARK VINA RESULT:      -6.6      1.363      2.674
REMARK  Name = Oxymetazoline
REMARK  9 active torsions:
REMARK  status: ('A' for Active; 'I' for Inactive)
REMARK    1  A    between atoms: C_1  and  C_2
REMARK    2  A    between atoms: C_4  and  C_16
REMARK    3  A    between atoms: C_5  and  O_6
REMARK    4  A    between atoms: C_7  and  C_8
REMARK    5  A    between atoms: C_9  and  C_10
REMARK    6  A    between atoms: C_10  and  C_11
REMARK    7  A    between atoms: C_16  and  C_17
REMARK    8  A    between atoms: C_16  and  C_18
REMARK    9  A    between atoms: C_16  and  C_19
REMARK                            x       y       z     vdW  Elec       q    Type
REMARK                         _______ _______ _______ _____ _____    ______ ____
ROOT
ATOM      1  C   UNL     1     -10.130   0.946 122.448  0.00  0.00    +0.000 C 
ATOM      2  C   UNL     1      -9.075   0.540 123.416  0.00  0.00    +0.000 A 
ATOM      3  C   UNL     1      -9.097  -0.826 123.700  0.00  0.00    +0.000 A 
ATOM      4  C   UNL     1      -8.193  -1.461 124.554  0.00  0.00    +0.000 A 
ATOM      5  C   UNL     1      -7.228  -0.628 125.144  0.00  0.00    +0.000 A 
ATOM      6  C   UNL     1      -7.190   0.772 124.900  0.00  0.00    +0.000 A 
ATOM      7  C   UNL     1      -6.072   1.578 125.539  0.00  0.00    +0.000 C 
ATOM      8  C   UNL     1      -8.149   1.390 124.049  0.00  0.00    +0.000 A 
ENDROOT
BRANCH   4   9
ATOM      9  C   UNL     1      -8.366  -2.983 124.653  0.00  0.00    +0.000 C 
ATOM     10  C   UNL     1      -8.768  -3.376 126.098  0.00  0.00    +0.000 C 
ATOM     11  C   UNL     1      -9.482  -3.429 123.673  0.00  0.00    +0.000 C 
ATOM     12  C   UNL     1      -7.123  -3.797 124.305  0.00  0.00    +0.000 C 
ENDBRANCH   4   9
BRANCH   5  13
ATOM     13  O   UNL     1      -6.226  -1.043 125.970  0.00  0.00    +0.000 OA
ATOM     14  H   UNL     1      -5.478  -1.427 125.498  0.00  0.00    +0.000 HD
ENDBRANCH   5  13
BRANCH   8  15
ATOM     15  C   UNL     1      -8.087   2.912 123.876  0.00  0.00    +0.000 C 
BRANCH  15  16
ATOM     16  C   UNL     1      -7.399   3.479 122.647  0.00  0.00    +0.000 C 
ATOM     17  N   UNL     1      -6.093   3.589 122.588  0.00  0.00    +0.000 NA
ATOM     18  C   UNL     1      -5.828   4.030 121.182  0.00  0.00    +0.000 C 
ATOM     19  C   UNL     1      -7.109   3.733 120.408  0.00  0.00    +0.000 C 
ATOM     20  N   UNL     1      -8.075   3.830 121.490  0.00  0.00    +0.000 N 
ATOM     21  H   UNL     1      -9.004   3.449 121.357  0.00  0.00    +0.000 HD
ENDBRANCH  15  16
ENDBRANCH   8  15
TORSDOF 4
ENDMDL
MODEL 3
REMARK VINA RESULT:      -6.5      4.376      6.389
REMARK  Name = Oxymetazoline
REMARK  9 active torsions:
REMARK  status: ('A' for Active; 'I' for Inactive)
REMARK    1  A    between atoms: C_1  and  C_2
REMARK    2  A    between atoms: C_4  and  C_16
REMARK    3  A    between atoms: C_5  and  O_6
REMARK    4  A    between atoms: C_7  and  C_8
REMARK    5  A    between atoms: C_9  and  C_10
REMARK    6  A    between atoms: C_10  and  C_11
REMARK    7  A    between atoms: C_16  and  C_17
REMARK    8  A    between atoms: C_16  and  C_18
REMARK    9  A    between atoms: C_16  and  C_19
REMARK                            x       y       z     vdW  Elec       q    Type
REMARK                         _______ _______ _______ _____ _____    ______ ____
ROOT
ATOM      1  C   UNL     1      -9.205  -3.980 128.145  0.00  0.00    +0.000 C 
ATOM      2  C   UNL     1      -7.998  -3.115 128.252  0.00  0.00    +0.000 A 
ATOM      3  C   UNL     1      -7.127  -3.523 129.264  0.00  0.00    +0.000 A 
ATOM      4  C   UNL     1      -5.913  -2.897 129.547  0.00  0.00    +0.000 A 
ATOM      5  C   UNL     1      -5.598  -1.789 128.744  0.00  0.00    +0.000 A 
ATOM      6  C   UNL     1      -6.473  -1.327 127.722  0.00  0.00    +0.000 A 
ATOM      7  C   UNL     1      -6.016  -0.156 126.868  0.00  0.00    +0.000 C 
ATOM      8  C   UNL     1      -7.718  -1.971 127.483  0.00  0.00    +0.000 A 
ENDROOT
BRANCH   4   9
ATOM      9  C   UNL     1      -5.089  -3.570 130.654  0.00  0.00    +0.000 C 
ATOM     10  C   UNL     1      -5.227  -2.771 131.976  0.00  0.00    +0.000 C 
ATOM     11  C   UNL     1      -5.617  -5.012 130.871  0.00  0.00    +0.000 C 
ATOM     12  C   UNL     1      -3.595  -3.686 130.365  0.00  0.00    +0.000 C 
ENDBRANCH   4   9
BRANCH   5  13
ATOM     13  O   UNL     1      -4.448  -1.061 128.817  0.00  0.00    +0.000 OA
ATOM     14  H   UNL     1      -4.317  -0.642 129.676  0.00  0.00    +0.000 HD
ENDBRANCH   5  13
BRANCH   8  15
ATOM     15  C   UNL     1      -8.639  -1.386 126.405  0.00  0.00    +0.000 C 
BRANCH  15  16
ATOM     16  C   UNL     1      -8.689  -2.058 125.044  0.00  0.00    +0.000 C 
ATOM     17  N   UNL     1      -9.675  -2.858 124.717  0.00  0.00    +0.000 NA
ATOM     18  C   UNL     1      -9.426  -3.169 123.273  0.00  0.00    +0.000 C 
ATOM     19  C   UNL     1      -8.439  -2.112 122.787  0.00  0.00    +0.000 C 
ATOM     20  N   UNL     1      -7.767  -1.812 124.041  0.00  0.00    +0.000 N 
ATOM     21  H   UNL     1      -7.210  -0.969 124.112  0.00  0.00    +0.000 HD
ENDBRANCH  15  16
ENDBRANCH   8  15
TORSDOF 4
ENDMDL
MODEL 4
REMARK VINA RESULT:      -6.3      4.632      7.341
REMARK  Name = Oxymetazoline
REMARK  9 active torsions:
REMARK  status: ('A' for Active; 'I' for Inactive)
REMARK    1  A    between atoms: C_1  and  C_2
REMARK    2  A    between atoms: C_4  and  C_16
REMARK    3  A    between atoms: C_5  and  O_6
REMARK    4  A    between atoms: C_7  and  C_8
REMARK    5  A    between atoms: C_9  and  C_10
REMARK    6  A    between atoms: C_10  and  C_11
REMARK    7  A    between atoms: C_16  and  C_17
REMARK    8  A    between atoms: C_16  and  C_18
REMARK    9  A    between atoms: C_16  and  C_19
REMARK                            x       y       z     vdW  Elec       q    Type
REMARK                         _______ _______ _______ _____ _____    ______ ____
ROOT
ATOM      1  C   UNL     1      -9.133  -4.118 127.828  0.00  0.00    +0.000 C 
ATOM      2  C   UNL     1      -8.525  -2.913 127.200  0.00  0.00    +0.000 A 
ATOM      3  C   UNL     1      -8.707  -2.871 125.817  0.00  0.00    +0.000 A 
ATOM      4  C   UNL     1      -8.258  -1.832 125.002  0.00  0.00    +0.000 A 
ATOM      5  C   UNL     1      -7.578  -0.794 125.660  0.00  0.00    +0.000 A 
ATOM      6  C   UNL     1      -7.348  -0.814 127.063  0.00  0.00    +0.000 A 
ATOM      7  C   UNL     1      -6.655   0.383 127.690  0.00  0.00    +0.000 C 
ATOM      8  C   UNL     1      -7.793  -1.907 127.858  0.00  0.00    +0.000 A 
ENDROOT
BRANCH   4   9
ATOM      9  C   UNL     1      -8.642  -1.968 123.522  0.00  0.00    +0.000 C 
ATOM     10  C   UNL     1      -7.364  -2.098 122.653  0.00  0.00    +0.000 C 
ATOM     11  C   UNL     1      -9.513  -3.238 123.340  0.00  0.00    +0.000 C 
ATOM     12  C   UNL     1      -9.442  -0.799 122.954  0.00  0.00    +0.000 C 
ENDBRANCH   4   9
BRANCH   5  13
ATOM     13  O   UNL     1      -7.096   0.335 125.067  0.00  0.00    +0.000 OA
ATOM     14  H   UNL     1      -7.770   0.833 124.591  0.00  0.00    +0.000 HD
ENDBRANCH   5  13
BRANCH   8  15
ATOM     15  C   UNL     1      -7.461  -1.893 129.356  0.00  0.00    +0.000 C 
BRANCH  15  16
ATOM     16  C   UNL     1      -6.316  -2.755 129.857  0.00  0.00    +0.000 C 
ATOM     17  N   UNL     1      -6.535  -3.930 130.397  0.00  0.00    +0.000 NA
ATOM     18  C   UNL     1      -5.165  -4.497 130.601  0.00  0.00    +0.000 C 
ATOM     19  C   UNL     1      -4.236  -3.659 129.726  0.00  0.00    +0.000 C 
ATOM     20  N   UNL     1      -4.983  -2.412 129.705  0.00  0.00    +0.000 N 
ATOM     21  H   UNL     1      -4.756  -1.713 129.008  0.00  0.00    +0.000 HD
ENDBRANCH  15  16
ENDBRANCH   8  15
TORSDOF 4
ENDMDL
MODEL 5
REMARK VINA RESULT:      -6.3      5.230      8.307
REMARK  Name = Oxymetazoline
REMARK  9 active torsions:
REMARK  status: ('A' for Active; 'I' for Inactive)
REMARK    1  A    between atoms: C_1  and  C_2
REMARK    2  A    between atoms: C_4  and  C_16
REMARK    3  A    between atoms: C_5  and  O_6
REMARK    4  A    between atoms: C_7  and  C_8
REMARK    5  A    between atoms: C_9  and  C_10
REMARK    6  A    between atoms: C_10  and  C_11
REMARK    7  A    between atoms: C_16  and  C_17
REMARK    8  A    between atoms: C_16  and  C_18
REMARK    9  A    between atoms: C_16  and  C_19
REMARK                            x       y       z     vdW  Elec       q    Type
REMARK                         _______ _______ _______ _____ _____    ______ ____
ROOT
ATOM      1  C   UNL     1      -9.364  -4.025 128.097  0.00  0.00    +0.000 C 
ATOM      2  C   UNL     1      -8.206  -3.147 127.776  0.00  0.00    +0.000 A 
ATOM      3  C   UNL     1      -7.918  -3.107 126.411  0.00  0.00    +0.000 A 
ATOM      4  C   UNL     1      -6.900  -2.335 125.850  0.00  0.00    +0.000 A 
ATOM      5  C   UNL     1      -6.141  -1.579 126.758  0.00  0.00    +0.000 A 
ATOM      6  C   UNL     1      -6.386  -1.615 128.159  0.00  0.00    +0.000 A 
ATOM      7  C   UNL     1      -5.548  -0.716 129.052  0.00  0.00    +0.000 C 
ATOM      8  C   UNL     1      -7.412  -2.439 128.697  0.00  0.00    +0.000 A 
ENDROOT
BRANCH   4   9
ATOM      9  C   UNL     1      -6.822  -2.393 124.318  0.00  0.00    +0.000 C 
ATOM     10  C   UNL     1      -5.505  -3.084 123.881  0.00  0.00    +0.000 C 
ATOM     11  C   UNL     1      -8.028  -3.207 123.782  0.00  0.00    +0.000 C 
ATOM     12  C   UNL     1      -6.860  -1.037 123.620  0.00  0.00    +0.000 C 
ENDBRANCH   4   9
BRANCH   5  13
ATOM     13  O   UNL     1      -5.132  -0.725 126.426  0.00  0.00    +0.000 OA
ATOM     14  H   UNL     1      -5.108   0.069 126.973  0.00  0.00    +0.000 HD
ENDBRANCH   5  13
BRANCH   8  15
ATOM     15  C   UNL     1      -7.585  -2.476 130.221  0.00  0.00    +0.000 C 
BRANCH  15  16
ATOM     16  C   UNL     1      -6.787  -3.489 131.022  0.00  0.00    +0.000 C 
ATOM     17  N   UNL     1      -6.063  -4.407 130.427  0.00  0.00    +0.000 NA
ATOM     18  C   UNL     1      -5.333  -5.078 131.550  0.00  0.00    +0.000 C 
ATOM     19  C   UNL     1      -5.447  -4.130 132.741  0.00  0.00    +0.000 C 
ATOM     20  N   UNL     1      -6.695  -3.465 132.403  0.00  0.00    +0.000 N 
ATOM     21  H   UNL     1      -6.936  -2.601 132.874  0.00  0.00    +0.000 HD
ENDBRANCH  15  16
ENDBRANCH   8  15
TORSDOF 4
ENDMDL
MODEL 6
REMARK VINA RESULT:      -6.2      4.580      7.508
REMARK  Name = Oxymetazoline
REMARK  9 active torsions:
REMARK  status: ('A' for Active; 'I' for Inactive)
REMARK    1  A    between atoms: C_1  and  C_2
REMARK    2  A    between atoms: C_4  and  C_16
REMARK    3  A    between atoms: C_5  and  O_6
REMARK    4  A    between atoms: C_7  and  C_8
REMARK    5  A    between atoms: C_9  and  C_10
REMARK    6  A    between atoms: C_10  and  C_11
REMARK    7  A    between atoms: C_16  and  C_17
REMARK    8  A    between atoms: C_16  and  C_18
REMARK    9  A    between atoms: C_16  and  C_19
REMARK                            x       y       z     vdW  Elec       q    Type
REMARK                         _______ _______ _______ _____ _____    ______ ____
ROOT
ATOM      1  C   UNL     1      -5.152  -1.754 127.884  0.00  0.00    +0.000 C 
ATOM      2  C   UNL     1      -6.506  -2.162 127.421  0.00  0.00    +0.000 A 
ATOM      3  C   UNL     1      -6.819  -1.666 126.155  0.00  0.00    +0.000 A 
ATOM      4  C   UNL     1      -8.015  -1.931 125.486  0.00  0.00    +0.000 A 
ATOM      5  C   UNL     1      -8.929  -2.743 126.176  0.00  0.00    +0.000 A 
ATOM      6  C   UNL     1      -8.658  -3.245 127.479  0.00  0.00    +0.000 A 
ATOM      7  C   UNL     1      -9.686  -4.163 128.118  0.00  0.00    +0.000 C 
ATOM      8  C   UNL     1      -7.441  -2.927 128.143  0.00  0.00    +0.000 A 
ENDROOT
BRANCH   4   9
ATOM      9  C   UNL     1      -8.102  -1.339 124.072  0.00  0.00    +0.000 C 
ATOM     10  C   UNL     1      -9.100  -0.153 124.056  0.00  0.00    +0.000 C 
ATOM     11  C   UNL     1      -6.699  -0.832 123.649  0.00  0.00    +0.000 C 
ATOM     12  C   UNL     1      -8.562  -2.315 122.993  0.00  0.00    +0.000 C 
ENDBRANCH   4   9
BRANCH   5  13
ATOM     13  O   UNL     1     -10.134  -3.162 125.694  0.00  0.00    +0.000 OA
ATOM     14  H   UNL     1     -10.184  -4.117 125.573  0.00  0.00    +0.000 HD
ENDBRANCH   5  13
BRANCH   8  15
ATOM     15  C   UNL     1      -7.238  -3.453 129.569  0.00  0.00    +0.000 C 
BRANCH  15  16
ATOM     16  C   UNL     1      -7.593  -2.551 130.737  0.00  0.00    +0.000 C 
ATOM     17  N   UNL     1      -7.388  -2.929 131.976  0.00  0.00    +0.000 NA
ATOM     18  C   UNL     1      -7.718  -1.715 132.787  0.00  0.00    +0.000 C 
ATOM     19  C   UNL     1      -7.716  -0.548 131.803  0.00  0.00    +0.000 C 
ATOM     20  N   UNL     1      -8.066  -1.258 130.584  0.00  0.00    +0.000 N 
ATOM     21  H   UNL     1      -7.914  -0.807 129.690  0.00  0.00    +0.000 HD
ENDBRANCH  15  16
ENDBRANCH   8  15
TORSDOF 4
ENDMDL
MODEL 7
REMARK VINA RESULT:      -6.2      4.747      7.849
REMARK  Name = Oxymetazoline
REMARK  9 active torsions:
REMARK  status: ('A' for Active; 'I' for Inactive)
REMARK    1  A    between atoms: C_1  and  C_2
REMARK    2  A    between atoms: C_4  and  C_16
REMARK    3  A    between atoms: C_5  and  O_6
REMARK    4  A    between atoms: C_7  and  C_8
REMARK    5  A    between atoms: C_9  and  C_10
REMARK    6  A    between atoms: C_10  and  C_11
REMARK    7  A    between atoms: C_16  and  C_17
REMARK    8  A    between atoms: C_16  and  C_18
REMARK    9  A    between atoms: C_16  and  C_19
REMARK                            x       y       z     vdW  Elec       q    Type
REMARK                         _______ _______ _______ _____ _____    ______ ____
ROOT
ATOM      1  C   UNL     1      -9.663  -4.231 128.232  0.00  0.00    +0.000 C 
ATOM      2  C   UNL     1      -8.539  -3.454 127.642  0.00  0.00    +0.000 A 
ATOM      3  C   UNL     1      -8.740  -3.146 126.296  0.00  0.00    +0.000 A 
ATOM      4  C   UNL     1      -7.848  -2.401 125.524  0.00  0.00    +0.000 A 
ATOM      5  C   UNL     1      -6.688  -1.966 126.186  0.00  0.00    +0.000 A 
ATOM      6  C   UNL     1      -6.434  -2.283 127.549  0.00  0.00    +0.000 A 
ATOM      7  C   UNL     1      -5.180  -1.718 128.192  0.00  0.00    +0.000 C 
ATOM      8  C   UNL     1      -7.352  -3.073 128.296  0.00  0.00    +0.000 A 
ENDROOT
BRANCH   4   9
ATOM      9  C   UNL     1      -8.319  -2.125 124.089  0.00  0.00    +0.000 C 
ATOM     10  C   UNL     1      -9.396  -3.161 123.678  0.00  0.00    +0.000 C 
ATOM     11  C   UNL     1      -8.928  -0.700 124.023  0.00  0.00    +0.000 C 
ATOM     12  C   UNL     1      -7.223  -2.186 123.029  0.00  0.00    +0.000 C 
ENDBRANCH   4   9
BRANCH   5  13
ATOM     13  O   UNL     1      -5.709  -1.191 125.639  0.00  0.00    +0.000 OA
ATOM     14  H   UNL     1      -5.668  -1.252 124.677  0.00  0.00    +0.000 HD
ENDBRANCH   5  13
BRANCH   8  15
ATOM     15  C   UNL     1      -6.990  -3.427 129.744  0.00  0.00    +0.000 C 
BRANCH  15  16
ATOM     16  C   UNL     1      -7.505  -2.540 130.863  0.00  0.00    +0.000 C 
ATOM     17  N   UNL     1      -7.337  -2.867 132.122  0.00  0.00    +0.000 NA
ATOM     18  C   UNL     1      -7.837  -1.675 132.876  0.00  0.00    +0.000 C 
ATOM     19  C   UNL     1      -7.895  -0.537 131.861  0.00  0.00    +0.000 C 
ATOM     20  N   UNL     1      -8.098  -1.308 130.645  0.00  0.00    +0.000 N 
ATOM     21  H   UNL     1      -7.939  -0.864 129.748  0.00  0.00    +0.000 HD
ENDBRANCH  15  16
ENDBRANCH   8  15
TORSDOF 4
ENDMDL
MODEL 8
REMARK VINA RESULT:      -6.1      9.530     11.325
REMARK  Name = Oxymetazoline
REMARK  9 active torsions:
REMARK  status: ('A' for Active; 'I' for Inactive)
REMARK    1  A    between atoms: C_1  and  C_2
REMARK    2  A    between atoms: C_4  and  C_16
REMARK    3  A    between atoms: C_5  and  O_6
REMARK    4  A    between atoms: C_7  and  C_8
REMARK    5  A    between atoms: C_9  and  C_10
REMARK    6  A    between atoms: C_10  and  C_11
REMARK    7  A    between atoms: C_16  and  C_17
REMARK    8  A    between atoms: C_16  and  C_18
REMARK    9  A    between atoms: C_16  and  C_19
REMARK                            x       y       z     vdW  Elec       q    Type
REMARK                         _______ _______ _______ _____ _____    ______ ____
ROOT
ATOM      1  C   UNL     1      -5.907   7.202 130.853  0.00  0.00    +0.000 C 
ATOM      2  C   UNL     1      -6.966   6.546 131.667  0.00  0.00    +0.000 A 
ATOM      3  C   UNL     1      -8.232   6.642 131.089  0.00  0.00    +0.000 A 
ATOM      4  C   UNL     1      -9.386   6.083 131.640  0.00  0.00    +0.000 A 
ATOM      5  C   UNL     1      -9.211   5.401 132.855  0.00  0.00    +0.000 A 
ATOM      6  C   UNL     1      -7.941   5.305 133.489  0.00  0.00    +0.000 A 
ATOM      7  C   UNL     1      -7.843   4.496 134.770  0.00  0.00    +0.000 C 
ATOM      8  C   UNL     1      -6.792   5.915 132.913  0.00  0.00    +0.000 A 
ENDROOT
BRANCH   4   9
ATOM      9  C   UNL     1     -10.650   6.254 130.786  0.00  0.00    +0.000 C 
ATOM     10  C   UNL     1     -11.782   6.885 131.636  0.00  0.00    +0.000 C 
ATOM     11  C   UNL     1     -10.329   7.187 129.589  0.00  0.00    +0.000 C 
ATOM     12  C   UNL     1     -11.210   4.961 130.199  0.00  0.00    +0.000 C 
ENDBRANCH   4   9
BRANCH   5  13
ATOM     13  O   UNL     1     -10.189   4.745 133.541  0.00  0.00    +0.000 OA
ATOM     14  H   UNL     1      -9.917   3.874 133.853  0.00  0.00    +0.000 HD
ENDBRANCH   5  13
BRANCH   8  15
ATOM     15  C   UNL     1      -5.466   5.823 133.678  0.00  0.00    +0.000 C 
BRANCH  15  16
ATOM     16  C   UNL     1      -4.492   4.714 133.320  0.00  0.00    +0.000 C 
ATOM     17  N   UNL     1      -4.828   3.758 132.487  0.00  0.00    +0.000 NA
ATOM     18  C   UNL     1      -3.561   2.985 132.292  0.00  0.00    +0.000 C 
ATOM     19  C   UNL     1      -2.441   3.895 132.790  0.00  0.00    +0.000 C 
ATOM     20  N   UNL     1      -3.181   4.680 133.764  0.00  0.00    +0.000 N 
ATOM     21  H   UNL     1      -2.780   5.544 134.108  0.00  0.00    +0.000 HD
ENDBRANCH  15  16
ENDBRANCH   8  15
TORSDOF 4
ENDMDL
MODEL 9
REMARK VINA RESULT:      -6.0      9.144     11.432
REMARK  Name = Oxymetazoline
REMARK  9 active torsions:
REMARK  status: ('A' for Active; 'I' for Inactive)
REMARK    1  A    between atoms: C_1  and  C_2
REMARK    2  A    between atoms: C_4  and  C_16
REMARK    3  A    between atoms: C_5  and  O_6
REMARK    4  A    between atoms: C_7  and  C_8
REMARK    5  A    between atoms: C_9  and  C_10
REMARK    6  A    between atoms: C_10  and  C_11
REMARK    7  A    between atoms: C_16  and  C_17
REMARK    8  A    between atoms: C_16  and  C_18
REMARK    9  A    between atoms: C_16  and  C_19
REMARK                            x       y       z     vdW  Elec       q    Type
REMARK                         _______ _______ _______ _____ _____    ______ ____
ROOT
ATOM      1  C   UNL     1      -8.416   7.236 130.478  0.00  0.00    +0.000 C 
ATOM      2  C   UNL     1      -7.346   6.744 131.388  0.00  0.00    +0.000 A 
ATOM      3  C   UNL     1      -6.064   7.074 130.947  0.00  0.00    +0.000 A 
ATOM      4  C   UNL     1      -4.894   6.753 131.637  0.00  0.00    +0.000 A 
ATOM      5  C   UNL     1      -5.072   6.047 132.838  0.00  0.00    +0.000 A 
ATOM      6  C   UNL     1      -6.360   5.669 133.307  0.00  0.00    +0.000 A 
ATOM      7  C   UNL     1      -6.451   4.959 134.646  0.00  0.00    +0.000 C 
ATOM      8  C   UNL     1      -7.529   5.985 132.559  0.00  0.00    +0.000 A 
ENDROOT
BRANCH   4   9
ATOM      9  C   UNL     1      -3.606   7.287 130.995  0.00  0.00    +0.000 C 
ATOM     10  C   UNL     1      -3.948   8.104 129.723  0.00  0.00    +0.000 C 
ATOM     11  C   UNL     1      -2.878   8.206 132.011  0.00  0.00    +0.000 C 
ATOM     12  C   UNL     1      -2.605   6.216 130.573  0.00  0.00    +0.000 C 
ENDBRANCH   4   9
BRANCH   5  13
ATOM     13  O   UNL     1      -4.075   5.674 133.690  0.00  0.00    +0.000 OA
ATOM     14  H   UNL     1      -3.851   6.354 134.335  0.00  0.00    +0.000 HD
ENDBRANCH   5  13
BRANCH   8  15
ATOM     15  C   UNL     1      -8.881   5.497 133.093  0.00  0.00    +0.000 C 
BRANCH  15  16
ATOM     16  C   UNL     1      -9.460   4.206 132.542  0.00  0.00    +0.000 C 
ATOM     17  N   UNL     1      -9.737   4.075 131.267  0.00  0.00    +0.000 NA
ATOM     18  C   UNL     1     -10.125   2.635 131.125  0.00  0.00    +0.000 C 
ATOM     19  C   UNL     1      -9.617   1.944 132.388  0.00  0.00    +0.000 C 
ATOM     20  N   UNL     1      -9.650   3.069 133.309  0.00  0.00    +0.000 N 
ATOM     21  H   UNL     1      -9.142   3.003 134.184  0.00  0.00    +0.000 HD
ENDBRANCH  15  16
ENDBRANCH   8  15
TORSDOF 4
ENDMDL
