MODEL 1
REMARK VINA RESULT:      -8.1      0.000      0.000
REMARK  Name = Oxymetholone
REMARK  5 active torsions:
REMARK  status: ('A' for Active; 'I' for Inactive)
REMARK    1  A    between atoms: C_5  and  C_6
REMARK    2  A    between atoms: C_5  and  O_7
REMARK    3  A    between atoms: C_8  and  C_9
REMARK    4  A    between atoms: C_25  and  C_26
REMARK    5  A    between atoms: C_27  and  O_28
REMARK                            x       y       z     vdW  Elec       q    Type
REMARK                         _______ _______ _______ _____ _____    ______ ____
ROOT
ATOM      1  C   UNL     1      -7.491  -2.152 123.389  0.00  0.00    +0.000 C 
ATOM      2  C   UNL     1      -6.622  -1.617 122.402  0.00  0.00    +0.000 C 
ATOM      3  C   UNL     1      -6.245  -1.352 123.805  0.00  0.00    +0.000 C 
ATOM      4  C   UNL     1      -7.262  -2.567 125.181  0.00  0.00    +0.000 C 
ATOM      5  C   UNL     1      -8.324  -3.844 124.907  0.00  0.00    +0.000 C 
ATOM      6  C   UNL     1      -6.082  -2.780 124.484  0.00  0.00    +0.000 C 
ATOM      7  C   UNL     1      -5.446  -4.017 124.051  0.00  0.00    +0.000 C 
ATOM      8  C   UNL     1      -5.305  -1.646 125.742  0.00  0.00    +0.000 C 
ATOM      9  C   UNL     1      -6.440  -0.501 126.269  0.00  0.00    +0.000 C 
ATOM     10  C   UNL     1      -7.467   0.224 125.213  0.00  0.00    +0.000 C 
ATOM     11  C   UNL     1      -8.414  -0.815 124.245  0.00  0.00    +0.000 C 
ATOM     12  C   UNL     1      -9.191  -0.091 123.178  0.00  0.00    +0.000 C 
ATOM     13  C   UNL     1      -9.970   1.054 123.762  0.00  0.00    +0.000 C 
ATOM     14  C   UNL     1      -9.115   2.042 124.564  0.00  0.00    +0.000 C 
ATOM     15  C   UNL     1      -8.251   2.867 123.601  0.00  0.00    +0.000 C 
ATOM     16  C   UNL     1      -7.698   3.926 124.484  0.00  0.00    +0.000 C 
ATOM     17  O   UNL     1      -8.395   4.741 125.098  0.00  0.00    +0.000 OA
ATOM     18  C   UNL     1      -6.389   3.574 125.068  0.00  0.00    +0.000 C 
ATOM     19  C   UNL     1      -7.032   2.587 126.196  0.00  0.00    +0.000 C 
ATOM     20  C   UNL     1      -8.230   1.435 125.731  0.00  0.00    +0.000 C 
ATOM     21  C   UNL     1      -9.184   0.833 126.788  0.00  0.00    +0.000 C 
ATOM     22  C   UNL     1      -5.688   4.745 125.038  0.00  0.00    +0.000 C 
ENDROOT
BRANCH   4  23
ATOM     23  O   UNL     1      -6.773  -3.115 126.476  0.00  0.00    +0.000 OA
ATOM     24  H   UNL     1      -6.197  -3.897 126.393  0.00  0.00    +0.000 HD
ENDBRANCH   4  23
BRANCH  22  25
ATOM     25  O   UNL     1      -5.815   5.702 126.026  0.00  0.00    +0.000 OA
ATOM     26  H   UNL     1      -6.494   5.348 126.629  0.00  0.00    +0.000 HD
ENDBRANCH  22  25
TORSDOF 2
ENDMDL
MODEL 2
REMARK VINA RESULT:      -7.9      4.541      8.238
REMARK  Name = Oxymetholone
REMARK  5 active torsions:
REMARK  status: ('A' for Active; 'I' for Inactive)
REMARK    1  A    between atoms: C_5  and  C_6
REMARK    2  A    between atoms: C_5  and  O_7
REMARK    3  A    between atoms: C_8  and  C_9
REMARK    4  A    between atoms: C_25  and  C_26
REMARK    5  A    between atoms: C_27  and  O_28
REMARK                            x       y       z     vdW  Elec       q    Type
REMARK                         _______ _______ _______ _____ _____    ______ ____
ROOT
ATOM      1  C   UNL     1      -2.406   6.174 129.418  0.00  0.00    +0.000 C 
ATOM      2  C   UNL     1      -2.668   7.197 128.470  0.00  0.00    +0.000 C 
ATOM      3  C   UNL     1      -3.848   6.644 129.164  0.00  0.00    +0.000 C 
ATOM      4  C   UNL     1      -3.357   5.525 130.871  0.00  0.00    +0.000 C 
ATOM      5  C   UNL     1      -1.861   5.281 131.601  0.00  0.00    +0.000 C 
ATOM      6  C   UNL     1      -3.587   6.884 130.714  0.00  0.00    +0.000 C 
ATOM      7  C   UNL     1      -3.086   8.024 131.470  0.00  0.00    +0.000 C 
ATOM      8  C   UNL     1      -5.393   6.426 130.677  0.00  0.00    +0.000 C 
ATOM      9  C   UNL     1      -5.586   4.881 130.005  0.00  0.00    +0.000 C 
ATOM     10  C   UNL     1      -4.718   4.412 128.692  0.00  0.00    +0.000 C 
ATOM     11  C   UNL     1      -3.021   4.550 128.819  0.00  0.00    +0.000 C 
ATOM     12  C   UNL     1      -2.303   4.281 127.524  0.00  0.00    +0.000 C 
ATOM     13  C   UNL     1      -2.752   2.980 126.919  0.00  0.00    +0.000 C 
ATOM     14  C   UNL     1      -4.269   2.878 126.721  0.00  0.00    +0.000 C 
ATOM     15  C   UNL     1      -4.694   3.787 125.561  0.00  0.00    +0.000 C 
ATOM     16  C   UNL     1      -6.105   3.382 125.330  0.00  0.00    +0.000 C 
ATOM     17  O   UNL     1      -6.448   2.240 125.010  0.00  0.00    +0.000 OA
ATOM     18  C   UNL     1      -7.076   4.198 126.086  0.00  0.00    +0.000 C 
ATOM     19  C   UNL     1      -6.799   3.425 127.495  0.00  0.00    +0.000 C 
ATOM     20  C   UNL     1      -5.173   3.137 127.997  0.00  0.00    +0.000 C 
ATOM     21  C   UNL     1      -4.862   2.032 129.034  0.00  0.00    +0.000 C 
ATOM     22  C   UNL     1      -8.116   4.363 125.217  0.00  0.00    +0.000 C 
ENDROOT
BRANCH   4  23
ATOM     23  O   UNL     1      -4.118   5.390 132.144  0.00  0.00    +0.000 OA
ATOM     24  H   UNL     1      -3.595   5.564 132.947  0.00  0.00    +0.000 HD
ENDBRANCH   4  23
BRANCH  22  25
ATOM     25  O   UNL     1      -9.107   3.411 125.068  0.00  0.00    +0.000 OA
ATOM     26  H   UNL     1      -9.227   3.037 125.960  0.00  0.00    +0.000 HD
ENDBRANCH  22  25
TORSDOF 2
ENDMDL
MODEL 3
REMARK VINA RESULT:      -7.8      3.452      6.416
REMARK  Name = Oxymetholone
REMARK  5 active torsions:
REMARK  status: ('A' for Active; 'I' for Inactive)
REMARK    1  A    between atoms: C_5  and  C_6
REMARK    2  A    between atoms: C_5  and  O_7
REMARK    3  A    between atoms: C_8  and  C_9
REMARK    4  A    between atoms: C_25  and  C_26
REMARK    5  A    between atoms: C_27  and  O_28
REMARK                            x       y       z     vdW  Elec       q    Type
REMARK                         _______ _______ _______ _____ _____    ______ ____
ROOT
ATOM      1  C   UNL     1      -6.643  -1.472 124.987  0.00  0.00    +0.000 C 
ATOM      2  C   UNL     1      -5.670  -2.477 124.753  0.00  0.00    +0.000 C 
ATOM      3  C   UNL     1      -6.840  -2.887 125.554  0.00  0.00    +0.000 C 
ATOM      4  C   UNL     1      -8.440  -1.534 125.436  0.00  0.00    +0.000 C 
ATOM      5  C   UNL     1      -8.612  -0.154 124.489  0.00  0.00    +0.000 C 
ATOM      6  C   UNL     1      -8.108  -2.616 124.634  0.00  0.00    +0.000 C 
ATOM      7  C   UNL     1      -8.385  -2.874 123.227  0.00  0.00    +0.000 C 
ATOM      8  C   UNL     1      -8.820  -3.662 126.001  0.00  0.00    +0.000 C 
ATOM      9  C   UNL     1      -8.589  -2.898 127.497  0.00  0.00    +0.000 C 
ATOM     10  C   UNL     1      -7.175  -2.147 127.857  0.00  0.00    +0.000 C 
ATOM     11  C   UNL     1      -6.647  -0.959 126.750  0.00  0.00    +0.000 C 
ATOM     12  C   UNL     1      -5.263  -0.446 127.042  0.00  0.00    +0.000 C 
ATOM     13  C   UNL     1      -5.137  -0.021 128.478  0.00  0.00    +0.000 C 
ATOM     14  C   UNL     1      -5.527  -1.110 129.484  0.00  0.00    +0.000 C 
ATOM     15  C   UNL     1      -4.442  -2.195 129.508  0.00  0.00    +0.000 C 
ATOM     16  C   UNL     1      -4.824  -3.013 130.688  0.00  0.00    +0.000 C 
ATOM     17  O   UNL     1      -4.887  -2.570 131.839  0.00  0.00    +0.000 OA
ATOM     18  C   UNL     1      -5.700  -4.151 130.348  0.00  0.00    +0.000 C 
ATOM     19  C   UNL     1      -7.037  -3.228 130.213  0.00  0.00    +0.000 C 
ATOM     20  C   UNL     1      -6.963  -1.757 129.313  0.00  0.00    +0.000 C 
ATOM     21  C   UNL     1      -8.017  -0.648 129.544  0.00  0.00    +0.000 C 
ATOM     22  C   UNL     1      -5.253  -5.162 131.149  0.00  0.00    +0.000 C 
ENDROOT
BRANCH   4  23
ATOM     23  O   UNL     1      -9.902  -1.818 125.472  0.00  0.00    +0.000 OA
ATOM     24  H   UNL     1     -10.469  -1.028 125.414  0.00  0.00    +0.000 HD
ENDBRANCH   4  23
BRANCH  22  25
ATOM     25  O   UNL     1      -5.668  -5.299 132.460  0.00  0.00    +0.000 OA
ATOM     26  H   UNL     1      -6.172  -6.133 132.475  0.00  0.00    +0.000 HD
ENDBRANCH  22  25
TORSDOF 2
ENDMDL
MODEL 4
REMARK VINA RESULT:      -7.8      1.591      2.314
REMARK  Name = Oxymetholone
REMARK  5 active torsions:
REMARK  status: ('A' for Active; 'I' for Inactive)
REMARK    1  A    between atoms: C_5  and  C_6
REMARK    2  A    between atoms: C_5  and  O_7
REMARK    3  A    between atoms: C_8  and  C_9
REMARK    4  A    between atoms: C_25  and  C_26
REMARK    5  A    between atoms: C_27  and  O_28
REMARK                            x       y       z     vdW  Elec       q    Type
REMARK                         _______ _______ _______ _____ _____    ______ ____
ROOT
ATOM      1  C   UNL     1      -7.017  -1.876 123.663  0.00  0.00    +0.000 C 
ATOM      2  C   UNL     1      -5.716  -1.957 124.224  0.00  0.00    +0.000 C 
ATOM      3  C   UNL     1      -6.808  -1.656 125.170  0.00  0.00    +0.000 C 
ATOM      4  C   UNL     1      -8.715  -2.044 124.385  0.00  0.00    +0.000 C 
ATOM      5  C   UNL     1      -9.151  -2.742 122.917  0.00  0.00    +0.000 C 
ATOM      6  C   UNL     1      -7.826  -2.872 125.053  0.00  0.00    +0.000 C 
ATOM      7  C   UNL     1      -7.642  -4.316 124.988  0.00  0.00    +0.000 C 
ATOM      8  C   UNL     1      -8.408  -2.009 126.598  0.00  0.00    +0.000 C 
ATOM      9  C   UNL     1      -8.842  -0.408 126.240  0.00  0.00    +0.000 C 
ATOM     10  C   UNL     1      -7.934   0.509 125.225  0.00  0.00    +0.000 C 
ATOM     11  C   UNL     1      -7.632  -0.147 123.678  0.00  0.00    +0.000 C 
ATOM     12  C   UNL     1      -6.648   0.657 122.872  0.00  0.00    +0.000 C 
ATOM     13  C   UNL     1      -7.036   2.109 122.839  0.00  0.00    +0.000 C 
ATOM     14  C   UNL     1      -7.227   2.732 124.226  0.00  0.00    +0.000 C 
ATOM     15  C   UNL     1      -5.859   2.914 124.896  0.00  0.00    +0.000 C 
ATOM     16  C   UNL     1      -6.184   3.749 126.081  0.00  0.00    +0.000 C 
ATOM     17  O   UNL     1      -6.680   4.877 126.011  0.00  0.00    +0.000 OA
ATOM     18  C   UNL     1      -6.469   2.955 127.292  0.00  0.00    +0.000 C 
ATOM     19  C   UNL     1      -7.978   2.561 126.816  0.00  0.00    +0.000 C 
ATOM     20  C   UNL     1      -8.237   2.001 125.204  0.00  0.00    +0.000 C 
ATOM     21  C   UNL     1      -9.647   2.071 124.572  0.00  0.00    +0.000 C 
ATOM     22  C   UNL     1      -5.888   3.669 128.300  0.00  0.00    +0.000 C 
ENDROOT
BRANCH   4  23
ATOM     23  O   UNL     1      -9.932  -2.527 125.095  0.00  0.00    +0.000 OA
ATOM     24  H   UNL     1      -9.886  -2.463 126.066  0.00  0.00    +0.000 HD
ENDBRANCH   4  23
BRANCH  22  25
ATOM     25  O   UNL     1      -6.525   4.733 128.909  0.00  0.00    +0.000 OA
ATOM     26  H   UNL     1      -5.814   5.222 129.362  0.00  0.00    +0.000 HD
ENDBRANCH  22  25
TORSDOF 2
ENDMDL
MODEL 5
REMARK VINA RESULT:      -7.7      3.674      6.151
REMARK  Name = Oxymetholone
REMARK  5 active torsions:
REMARK  status: ('A' for Active; 'I' for Inactive)
REMARK    1  A    between atoms: C_5  and  C_6
REMARK    2  A    between atoms: C_5  and  O_7
REMARK    3  A    between atoms: C_8  and  C_9
REMARK    4  A    between atoms: C_25  and  C_26
REMARK    5  A    between atoms: C_27  and  O_28
REMARK                            x       y       z     vdW  Elec       q    Type
REMARK                         _______ _______ _______ _____ _____    ______ ____
ROOT
ATOM      1  C   UNL     1      -6.948  -3.324 130.399  0.00  0.00    +0.000 C 
ATOM      2  C   UNL     1      -6.128  -4.426 130.042  0.00  0.00    +0.000 C 
ATOM      3  C   UNL     1      -5.709  -3.112 129.514  0.00  0.00    +0.000 C 
ATOM      4  C   UNL     1      -6.647  -1.497 130.471  0.00  0.00    +0.000 C 
ATOM      5  C   UNL     1      -7.686  -1.488 131.795  0.00  0.00    +0.000 C 
ATOM      6  C   UNL     1      -5.487  -2.187 130.788  0.00  0.00    +0.000 C 
ATOM      7  C   UNL     1      -4.836  -2.408 132.073  0.00  0.00    +0.000 C 
ATOM      8  C   UNL     1      -4.696  -1.192 129.426  0.00  0.00    +0.000 C 
ATOM      9  C   UNL     1      -5.840  -0.842 128.223  0.00  0.00    +0.000 C 
ATOM     10  C   UNL     1      -6.920  -1.974 127.726  0.00  0.00    +0.000 C 
ATOM     11  C   UNL     1      -7.874  -2.696 128.943  0.00  0.00    +0.000 C 
ATOM     12  C   UNL     1      -8.706  -3.847 128.445  0.00  0.00    +0.000 C 
ATOM     13  C   UNL     1      -9.492  -3.455 127.225  0.00  0.00    +0.000 C 
ATOM     14  C   UNL     1      -8.634  -2.884 126.090  0.00  0.00    +0.000 C 
ATOM     15  C   UNL     1      -7.825  -4.015 125.443  0.00  0.00    +0.000 C 
ATOM     16  C   UNL     1      -7.268  -3.366 124.228  0.00  0.00    +0.000 C 
ATOM     17  O   UNL     1      -7.963  -2.886 123.327  0.00  0.00    +0.000 OA
ATOM     18  C   UNL     1      -5.932  -2.778 124.443  0.00  0.00    +0.000 C 
ATOM     19  C   UNL     1      -6.510  -1.462 125.214  0.00  0.00    +0.000 C 
ATOM     20  C   UNL     1      -7.694  -1.660 126.454  0.00  0.00    +0.000 C 
ATOM     21  C   UNL     1      -8.597  -0.473 126.866  0.00  0.00    +0.000 C 
ATOM     22  C   UNL     1      -5.261  -3.051 123.285  0.00  0.00    +0.000 C 
ENDROOT
BRANCH   4  23
ATOM     23  O   UNL     1      -6.100  -0.142 130.760  0.00  0.00    +0.000 OA
ATOM     24  H   UNL     1      -6.515   0.578 130.252  0.00  0.00    +0.000 HD
ENDBRANCH   4  23
BRANCH  22  25
ATOM     25  O   UNL     1      -5.378  -2.253 122.163  0.00  0.00    +0.000 OA
ATOM     26  H   UNL     1      -5.806  -2.822 121.498  0.00  0.00    +0.000 HD
ENDBRANCH  22  25
TORSDOF 2
ENDMDL
MODEL 6
REMARK VINA RESULT:      -7.6      2.698      4.505
REMARK  Name = Oxymetholone
REMARK  5 active torsions:
REMARK  status: ('A' for Active; 'I' for Inactive)
REMARK    1  A    between atoms: C_5  and  C_6
REMARK    2  A    between atoms: C_5  and  O_7
REMARK    3  A    between atoms: C_8  and  C_9
REMARK    4  A    between atoms: C_25  and  C_26
REMARK    5  A    between atoms: C_27  and  O_28
REMARK                            x       y       z     vdW  Elec       q    Type
REMARK                         _______ _______ _______ _____ _____    ______ ____
ROOT
ATOM      1  C   UNL     1      -7.922  -3.099 125.900  0.00  0.00    +0.000 C 
ATOM      2  C   UNL     1      -9.132  -3.267 126.623  0.00  0.00    +0.000 C 
ATOM      3  C   UNL     1      -8.964  -1.970 125.938  0.00  0.00    +0.000 C 
ATOM      4  C   UNL     1      -7.428  -1.979 124.509  0.00  0.00    +0.000 C 
ATOM      5  C   UNL     1      -6.472  -3.254 123.968  0.00  0.00    +0.000 C 
ATOM      6  C   UNL     1      -8.768  -2.318 124.400  0.00  0.00    +0.000 C 
ATOM      7  C   UNL     1      -9.443  -3.243 123.499  0.00  0.00    +0.000 C 
ATOM      8  C   UNL     1      -9.079  -0.481 124.360  0.00  0.00    +0.000 C 
ATOM      9  C   UNL     1      -7.903   0.326 125.277  0.00  0.00    +0.000 C 
ATOM     10  C   UNL     1      -7.401  -0.267 126.723  0.00  0.00    +0.000 C 
ATOM     11  C   UNL     1      -6.829  -1.875 126.724  0.00  0.00    +0.000 C 
ATOM     12  C   UNL     1      -6.561  -2.412 128.104  0.00  0.00    +0.000 C 
ATOM     13  C   UNL     1      -5.692  -1.470 128.889  0.00  0.00    +0.000 C 
ATOM     14  C   UNL     1      -6.239  -0.040 128.968  0.00  0.00    +0.000 C 
ATOM     15  C   UNL     1      -7.453  -0.010 129.906  0.00  0.00    +0.000 C 
ATOM     16  C   UNL     1      -7.694   1.445 130.081  0.00  0.00    +0.000 C 
ATOM     17  O   UNL     1      -6.869   2.224 130.568  0.00  0.00    +0.000 OA
ATOM     18  C   UNL     1      -8.659   1.996 129.110  0.00  0.00    +0.000 C 
ATOM     19  C   UNL     1      -7.577   2.045 127.891  0.00  0.00    +0.000 C 
ATOM     20  C   UNL     1      -6.575   0.671 127.592  0.00  0.00    +0.000 C 
ATOM     21  C   UNL     1      -5.256   0.826 126.801  0.00  0.00    +0.000 C 
ATOM     22  C   UNL     1      -9.391   2.888 129.840  0.00  0.00    +0.000 C 
ENDROOT
BRANCH   4  23
ATOM     23  O   UNL     1      -7.354  -1.239 123.218  0.00  0.00    +0.000 OA
ATOM     24  H   UNL     1      -7.249  -1.806 122.433  0.00  0.00    +0.000 HD
ENDBRANCH   4  23
BRANCH  22  25
ATOM     25  O   UNL     1      -8.959   4.180 130.069  0.00  0.00    +0.000 OA
ATOM     26  H   UNL     1      -8.028   4.185 129.781  0.00  0.00    +0.000 HD
ENDBRANCH  22  25
TORSDOF 2
ENDMDL
MODEL 7
REMARK VINA RESULT:      -7.6      5.998      8.262
REMARK  Name = Oxymetholone
REMARK  5 active torsions:
REMARK  status: ('A' for Active; 'I' for Inactive)
REMARK    1  A    between atoms: C_5  and  C_6
REMARK    2  A    between atoms: C_5  and  O_7
REMARK    3  A    between atoms: C_8  and  C_9
REMARK    4  A    between atoms: C_25  and  C_26
REMARK    5  A    between atoms: C_27  and  O_28
REMARK                            x       y       z     vdW  Elec       q    Type
REMARK                         _______ _______ _______ _____ _____    ______ ____
ROOT
ATOM      1  C   UNL     1      -8.500   2.438 131.752  0.00  0.00    +0.000 C 
ATOM      2  C   UNL     1      -9.760   1.793 131.648  0.00  0.00    +0.000 C 
ATOM      3  C   UNL     1      -9.294   2.495 130.437  0.00  0.00    +0.000 C 
ATOM      4  C   UNL     1      -7.254   2.982 130.494  0.00  0.00    +0.000 C 
ATOM      5  C   UNL     1      -6.086   2.588 131.639  0.00  0.00    +0.000 C 
ATOM      6  C   UNL     1      -7.898   1.832 130.064  0.00  0.00    +0.000 C 
ATOM      7  C   UNL     1      -7.439   0.450 130.014  0.00  0.00    +0.000 C 
ATOM      8  C   UNL     1      -8.302   2.806 128.528  0.00  0.00    +0.000 C 
ATOM      9  C   UNL     1      -8.467   4.450 128.911  0.00  0.00    +0.000 C 
ATOM     10  C   UNL     1      -9.251   4.931 130.270  0.00  0.00    +0.000 C 
ATOM     11  C   UNL     1      -8.695   4.264 131.740  0.00  0.00    +0.000 C 
ATOM     12  C   UNL     1      -9.570   4.601 132.917  0.00  0.00    +0.000 C 
ATOM     13  C   UNL     1      -9.826   6.080 132.992  0.00  0.00    +0.000 C 
ATOM     14  C   UNL     1     -10.407   6.677 131.705  0.00  0.00    +0.000 C 
ATOM     15  C   UNL     1     -11.869   6.236 131.552  0.00  0.00    +0.000 C 
ATOM     16  C   UNL     1     -12.352   7.087 130.435  0.00  0.00    +0.000 C 
ATOM     17  O   UNL     1     -12.371   8.322 130.471  0.00  0.00    +0.000 OA
ATOM     18  C   UNL     1     -12.211   6.447 129.112  0.00  0.00    +0.000 C 
ATOM     19  C   UNL     1     -10.611   6.749 129.011  0.00  0.00    +0.000 C 
ATOM     20  C   UNL     1      -9.599   6.409 130.367  0.00  0.00    +0.000 C 
ATOM     21  C   UNL     1      -8.218   7.094 130.500  0.00  0.00    +0.000 C 
ATOM     22  C   UNL     1     -13.346   6.811 128.447  0.00  0.00    +0.000 C 
ENDROOT
BRANCH   4  23
ATOM     23  O   UNL     1      -6.279   3.037 129.368  0.00  0.00    +0.000 OA
ATOM     24  H   UNL     1      -6.112   3.932 129.022  0.00  0.00    +0.000 HD
ENDBRANCH   4  23
BRANCH  22  25
ATOM     25  O   UNL     1     -13.458   8.023 127.793  0.00  0.00    +0.000 OA
ATOM     26  H   UNL     1     -14.030   8.563 128.368  0.00  0.00    +0.000 HD
ENDBRANCH  22  25
TORSDOF 2
ENDMDL
MODEL 8
REMARK VINA RESULT:      -7.4      3.412      5.175
REMARK  Name = Oxymetholone
REMARK  5 active torsions:
REMARK  status: ('A' for Active; 'I' for Inactive)
REMARK    1  A    between atoms: C_5  and  C_6
REMARK    2  A    between atoms: C_5  and  O_7
REMARK    3  A    between atoms: C_8  and  C_9
REMARK    4  A    between atoms: C_25  and  C_26
REMARK    5  A    between atoms: C_27  and  O_28
REMARK                            x       y       z     vdW  Elec       q    Type
REMARK                         _______ _______ _______ _____ _____    ______ ____
ROOT
ATOM      1  C   UNL     1      -8.351  -2.456 125.591  0.00  0.00    +0.000 C 
ATOM      2  C   UNL     1      -9.354  -1.469 125.775  0.00  0.00    +0.000 C 
ATOM      3  C   UNL     1      -7.960  -0.982 125.785  0.00  0.00    +0.000 C 
ATOM      4  C   UNL     1      -6.590  -2.375 125.020  0.00  0.00    +0.000 C 
ATOM      5  C   UNL     1      -6.865  -3.874 124.308  0.00  0.00    +0.000 C 
ATOM      6  C   UNL     1      -7.347  -1.404 124.381  0.00  0.00    +0.000 C 
ATOM      7  C   UNL     1      -7.857  -1.344 123.018  0.00  0.00    +0.000 C 
ATOM      8  C   UNL     1      -6.081  -0.199 125.027  0.00  0.00    +0.000 C 
ATOM      9  C   UNL     1      -5.458  -0.748 126.506  0.00  0.00    +0.000 C 
ATOM     10  C   UNL     1      -6.437  -1.412 127.644  0.00  0.00    +0.000 C 
ATOM     11  C   UNL     1      -7.402  -2.726 127.139  0.00  0.00    +0.000 C 
ATOM     12  C   UNL     1      -8.403  -3.163 128.175  0.00  0.00    +0.000 C 
ATOM     13  C   UNL     1      -7.740  -3.387 129.505  0.00  0.00    +0.000 C 
ATOM     14  C   UNL     1      -6.939  -2.181 130.010  0.00  0.00    +0.000 C 
ATOM     15  C   UNL     1      -7.906  -1.079 130.460  0.00  0.00    +0.000 C 
ATOM     16  C   UNL     1      -7.008  -0.118 131.150  0.00  0.00    +0.000 C 
ATOM     17  O   UNL     1      -6.331  -0.402 132.143  0.00  0.00    +0.000 OA
ATOM     18  C   UNL     1      -6.498   0.944 130.261  0.00  0.00    +0.000 C 
ATOM     19  C   UNL     1      -5.381  -0.019 129.564  0.00  0.00    +0.000 C 
ATOM     20  C   UNL     1      -5.838  -1.596 129.031  0.00  0.00    +0.000 C 
ATOM     21  C   UNL     1      -4.763  -2.687 128.816  0.00  0.00    +0.000 C 
ATOM     22  C   UNL     1      -6.513   2.064 131.042  0.00  0.00    +0.000 C 
ENDROOT
BRANCH   4  23
ATOM     23  O   UNL     1      -5.340  -2.122 124.250  0.00  0.00    +0.000 OA
ATOM     24  H   UNL     1      -4.926  -1.257 124.423  0.00  0.00    +0.000 HD
ENDBRANCH   4  23
BRANCH  22  25
ATOM     25  O   UNL     1      -5.483   2.367 131.911  0.00  0.00    +0.000 OA
ATOM     26  H   UNL     1      -5.593   3.316 132.105  0.00  0.00    +0.000 HD
ENDBRANCH  22  25
TORSDOF 2
ENDMDL
MODEL 9
REMARK VINA RESULT:      -7.4      7.071      8.882
REMARK  Name = Oxymetholone
REMARK  5 active torsions:
REMARK  status: ('A' for Active; 'I' for Inactive)
REMARK    1  A    between atoms: C_5  and  C_6
REMARK    2  A    between atoms: C_5  and  O_7
REMARK    3  A    between atoms: C_8  and  C_9
REMARK    4  A    between atoms: C_25  and  C_26
REMARK    5  A    between atoms: C_27  and  O_28
REMARK                            x       y       z     vdW  Elec       q    Type
REMARK                         _______ _______ _______ _____ _____    ______ ____
ROOT
ATOM      1  C   UNL     1      -3.971   4.435 129.868  0.00  0.00    +0.000 C 
ATOM      2  C   UNL     1      -4.349   4.405 128.500  0.00  0.00    +0.000 C 
ATOM      3  C   UNL     1      -4.661   5.651 129.228  0.00  0.00    +0.000 C 
ATOM      4  C   UNL     1      -3.647   5.819 131.058  0.00  0.00    +0.000 C 
ATOM      5  C   UNL     1      -2.473   4.819 131.731  0.00  0.00    +0.000 C 
ATOM      6  C   UNL     1      -3.270   6.190 129.776  0.00  0.00    +0.000 C 
ATOM      7  C   UNL     1      -1.949   6.314 129.175  0.00  0.00    +0.000 C 
ATOM      8  C   UNL     1      -4.394   7.654 130.026  0.00  0.00    +0.000 C 
ATOM      9  C   UNL     1      -5.682   7.230 131.045  0.00  0.00    +0.000 C 
ATOM     10  C   UNL     1      -6.442   5.782 130.894  0.00  0.00    +0.000 C 
ATOM     11  C   UNL     1      -5.447   4.396 130.958  0.00  0.00    +0.000 C 
ATOM     12  C   UNL     1      -6.179   3.122 130.630  0.00  0.00    +0.000 C 
ATOM     13  C   UNL     1      -7.433   2.995 131.448  0.00  0.00    +0.000 C 
ATOM     14  C   UNL     1      -8.376   4.198 131.331  0.00  0.00    +0.000 C 
ATOM     15  C   UNL     1      -9.044   4.190 129.950  0.00  0.00    +0.000 C 
ATOM     16  C   UNL     1     -10.094   5.232 130.089  0.00  0.00    +0.000 C 
ATOM     17  O   UNL     1     -11.014   5.174 130.912  0.00  0.00    +0.000 OA
ATOM     18  C   UNL     1      -9.646   6.572 129.664  0.00  0.00    +0.000 C 
ATOM     19  C   UNL     1      -8.804   6.849 131.033  0.00  0.00    +0.000 C 
ATOM     20  C   UNL     1      -7.756   5.623 131.645  0.00  0.00    +0.000 C 
ATOM     21  C   UNL     1      -7.323   5.637 133.130  0.00  0.00    +0.000 C 
ATOM     22  C   UNL     1     -10.733   7.098 129.028  0.00  0.00    +0.000 C 
ENDROOT
BRANCH   4  23
ATOM     23  O   UNL     1      -3.135   7.046 131.727  0.00  0.00    +0.000 OA
ATOM     24  H   UNL     1      -3.750   7.443 132.370  0.00  0.00    +0.000 HD
ENDBRANCH   4  23
BRANCH  22  25
ATOM     25  O   UNL     1     -11.759   7.715 129.718  0.00  0.00    +0.000 OA
ATOM     26  H   UNL     1     -11.405   8.591 129.958  0.00  0.00    +0.000 HD
ENDBRANCH  22  25
TORSDOF 2
ENDMDL
