MODEL 1
REMARK VINA RESULT:      -7.5      0.000      0.000
REMARK  Name = Oxymorphone
REMARK  3 active torsions:
REMARK  status: ('A' for Active; 'I' for Inactive)
REMARK    1  A    between atoms: C_5  and  O_6
REMARK    2  A    between atoms: N_14  and  C_15
REMARK    3  A    between atoms: C_19  and  O_20
REMARK                            x       y       z     vdW  Elec       q    Type
REMARK                         _______ _______ _______ _____ _____    ______ ____
ROOT
ATOM      1  C   UNL     1      -8.951   2.326 123.175  0.00  0.00    +0.000 C 
ATOM      2  O   UNL     1      -9.005   2.500 121.730  0.00  0.00    +0.000 OA
ATOM      3  C   UNL     1      -7.839   3.133 121.478  0.00  0.00    +0.000 A 
ATOM      4  C   UNL     1      -7.539   3.947 120.334  0.00  0.00    +0.000 A 
ATOM      5  C   UNL     1      -6.297   4.572 120.308  0.00  0.00    +0.000 A 
ATOM      6  C   UNL     1      -5.484   4.502 121.447  0.00  0.00    +0.000 A 
ATOM      7  C   UNL     1      -5.865   3.766 122.582  0.00  0.00    +0.000 A 
ATOM      8  C   UNL     1      -6.924   2.891 122.541  0.00  0.00    +0.000 A 
ATOM      9  C   UNL     1      -7.375   1.863 123.917  0.00  0.00    +0.000 C 
ATOM     10  C   UNL     1      -6.109   1.048 125.424  0.00  0.00    +0.000 C 
ATOM     11  C   UNL     1      -5.124   2.201 126.516  0.00  0.00    +0.000 C 
ATOM     12  N   UNL     1      -6.146   3.075 126.272  0.00  0.00    +0.000 NA
ATOM     13  C   UNL     1      -6.330   4.311 126.914  0.00  0.00    +0.000 C 
ATOM     14  C   UNL     1      -6.148   3.078 124.845  0.00  0.00    +0.000 C 
ATOM     15  C   UNL     1      -5.225   3.832 123.912  0.00  0.00    +0.000 C 
ATOM     16  C   UNL     1      -7.696   2.923 124.916  0.00  0.00    +0.000 C 
ATOM     17  C   UNL     1      -8.826   2.020 125.755  0.00  0.00    +0.000 C 
ATOM     18  C   UNL     1      -9.772   1.009 124.941  0.00  0.00    +0.000 C 
ATOM     19  C   UNL     1     -10.022   1.432 123.558  0.00  0.00    +0.000 C 
ATOM     20  O   UNL     1     -10.937   1.065 122.839  0.00  0.00    +0.000 OA
ENDROOT
BRANCH   4  21
ATOM     21  O   UNL     1      -8.267   4.191 119.192  0.00  0.00    +0.000 OA
ATOM     22  H   UNL     1      -9.123   3.739 119.137  0.00  0.00    +0.000 HD
ENDBRANCH   4  21
BRANCH  16  23
ATOM     23  O   UNL     1      -8.231   4.233 124.736  0.00  0.00    +0.000 OA
ATOM     24  H   UNL     1      -8.602   4.525 125.586  0.00  0.00    +0.000 HD
ENDBRANCH  16  23
TORSDOF 2
ENDMDL
MODEL 2
REMARK VINA RESULT:      -7.3      5.880      8.394
REMARK  Name = Oxymorphone
REMARK  3 active torsions:
REMARK  status: ('A' for Active; 'I' for Inactive)
REMARK    1  A    between atoms: C_5  and  O_6
REMARK    2  A    between atoms: N_14  and  C_15
REMARK    3  A    between atoms: C_19  and  O_20
REMARK                            x       y       z     vdW  Elec       q    Type
REMARK                         _______ _______ _______ _____ _____    ______ ____
ROOT
ATOM      1  C   UNL     1      -8.677   5.004 129.075  0.00  0.00    +0.000 C 
ATOM      2  O   UNL     1      -9.492   5.738 128.117  0.00  0.00    +0.000 OA
ATOM      3  C   UNL     1     -10.413   6.320 128.916  0.00  0.00    +0.000 A 
ATOM      4  C   UNL     1     -11.712   6.785 128.523  0.00  0.00    +0.000 A 
ATOM      5  C   UNL     1     -12.536   7.286 129.525  0.00  0.00    +0.000 A 
ATOM      6  C   UNL     1     -12.124   7.167 130.859  0.00  0.00    +0.000 A 
ATOM      7  C   UNL     1     -10.876   6.616 131.199  0.00  0.00    +0.000 A 
ATOM      8  C   UNL     1      -9.911   6.395 130.246  0.00  0.00    +0.000 A 
ATOM      9  C   UNL     1      -8.286   5.801 130.644  0.00  0.00    +0.000 C 
ATOM     10  C   UNL     1      -7.165   6.122 132.428  0.00  0.00    +0.000 C 
ATOM     11  C   UNL     1      -7.858   5.538 134.062  0.00  0.00    +0.000 C 
ATOM     12  N   UNL     1      -8.489   4.598 133.297  0.00  0.00    +0.000 NA
ATOM     13  C   UNL     1      -9.201   3.492 133.790  0.00  0.00    +0.000 C 
ATOM     14  C   UNL     1      -9.162   5.438 132.360  0.00  0.00    +0.000 C 
ATOM     15  C   UNL     1     -10.452   6.207 132.554  0.00  0.00    +0.000 C 
ATOM     16  C   UNL     1      -8.650   4.484 131.241  0.00  0.00    +0.000 C 
ATOM     17  C   UNL     1      -7.231   3.712 130.808  0.00  0.00    +0.000 C 
ATOM     18  C   UNL     1      -6.538   4.086 129.408  0.00  0.00    +0.000 C 
ATOM     19  C   UNL     1      -7.493   4.535 128.388  0.00  0.00    +0.000 C 
ATOM     20  O   UNL     1      -7.312   4.556 127.182  0.00  0.00    +0.000 OA
ENDROOT
BRANCH   4  21
ATOM     21  O   UNL     1     -12.294   6.875 127.279  0.00  0.00    +0.000 OA
ATOM     22  H   UNL     1     -12.047   6.179 126.651  0.00  0.00    +0.000 HD
ENDBRANCH   4  21
BRANCH  16  23
ATOM     23  O   UNL     1      -9.733   3.603 130.949  0.00  0.00    +0.000 OA
ATOM     24  H   UNL     1     -10.543   3.992 131.321  0.00  0.00    +0.000 HD
ENDBRANCH  16  23
TORSDOF 2
ENDMDL
MODEL 3
REMARK VINA RESULT:      -7.2      3.402      6.389
REMARK  Name = Oxymorphone
REMARK  3 active torsions:
REMARK  status: ('A' for Active; 'I' for Inactive)
REMARK    1  A    between atoms: C_5  and  O_6
REMARK    2  A    between atoms: N_14  and  C_15
REMARK    3  A    between atoms: C_19  and  O_20
REMARK                            x       y       z     vdW  Elec       q    Type
REMARK                         _______ _______ _______ _____ _____    ______ ____
ROOT
ATOM      1  C   UNL     1      -8.629   1.530 125.792  0.00  0.00    +0.000 C 
ATOM      2  O   UNL     1      -8.461   2.218 127.065  0.00  0.00    +0.000 OA
ATOM      3  C   UNL     1      -8.127   1.204 127.892  0.00  0.00    +0.000 A 
ATOM      4  C   UNL     1      -8.274   1.183 129.320  0.00  0.00    +0.000 A 
ATOM      5  C   UNL     1      -7.936   0.004 129.975  0.00  0.00    +0.000 A 
ATOM      6  C   UNL     1      -7.627  -1.128 129.209  0.00  0.00    +0.000 A 
ATOM      7  C   UNL     1      -7.587  -1.080 127.804  0.00  0.00    +0.000 A 
ATOM      8  C   UNL     1      -7.609   0.118 127.132  0.00  0.00    +0.000 A 
ATOM      9  C   UNL     1      -7.453   0.232 125.367  0.00  0.00    +0.000 C 
ATOM     10  C   UNL     1      -6.390  -1.065 124.051  0.00  0.00    +0.000 C 
ATOM     11  C   UNL     1      -6.860  -2.871 123.966  0.00  0.00    +0.000 C 
ATOM     12  N   UNL     1      -8.099  -2.418 124.323  0.00  0.00    +0.000 NA
ATOM     13  C   UNL     1      -9.273  -3.190 124.343  0.00  0.00    +0.000 C 
ATOM     14  C   UNL     1      -7.777  -1.696 125.511  0.00  0.00    +0.000 C 
ATOM     15  C   UNL     1      -7.532  -2.247 126.900  0.00  0.00    +0.000 C 
ATOM     16  C   UNL     1      -8.666  -0.540 124.967  0.00  0.00    +0.000 C 
ATOM     17  C   UNL     1      -8.912   0.278 123.530  0.00  0.00    +0.000 C 
ATOM     18  C   UNL     1      -8.585   1.849 123.464  0.00  0.00    +0.000 C 
ATOM     19  C   UNL     1      -8.741   2.531 124.754  0.00  0.00    +0.000 C 
ATOM     20  O   UNL     1      -8.889   3.729 124.930  0.00  0.00    +0.000 OA
ENDROOT
BRANCH   4  21
ATOM     21  O   UNL     1      -8.657   2.173 130.196  0.00  0.00    +0.000 OA
ATOM     22  H   UNL     1      -9.550   2.526 130.064  0.00  0.00    +0.000 HD
ENDBRANCH   4  21
BRANCH  16  23
ATOM     23  O   UNL     1      -9.930  -0.677 125.614  0.00  0.00    +0.000 OA
ATOM     24  H   UNL     1     -10.425   0.150 125.482  0.00  0.00    +0.000 HD
ENDBRANCH  16  23
TORSDOF 2
ENDMDL
MODEL 4
REMARK VINA RESULT:      -7.2      2.690      4.103
REMARK  Name = Oxymorphone
REMARK  3 active torsions:
REMARK  status: ('A' for Active; 'I' for Inactive)
REMARK    1  A    between atoms: C_5  and  O_6
REMARK    2  A    between atoms: N_14  and  C_15
REMARK    3  A    between atoms: C_19  and  O_20
REMARK                            x       y       z     vdW  Elec       q    Type
REMARK                         _______ _______ _______ _____ _____    ______ ____
ROOT
ATOM      1  C   UNL     1      -8.777   0.701 123.799  0.00  0.00    +0.000 C 
ATOM      2  O   UNL     1      -8.741   2.149 123.645  0.00  0.00    +0.000 OA
ATOM      3  C   UNL     1      -7.679   2.488 124.407  0.00  0.00    +0.000 A 
ATOM      4  C   UNL     1      -7.426   3.772 124.996  0.00  0.00    +0.000 A 
ATOM      5  C   UNL     1      -6.306   3.886 125.812  0.00  0.00    +0.000 A 
ATOM      6  C   UNL     1      -5.587   2.728 126.136  0.00  0.00    +0.000 A 
ATOM      7  C   UNL     1      -5.933   1.472 125.605  0.00  0.00    +0.000 A 
ATOM      8  C   UNL     1      -6.826   1.360 124.568  0.00  0.00    +0.000 A 
ATOM      9  C   UNL     1      -7.211  -0.192 123.796  0.00  0.00    +0.000 C 
ATOM     10  C   UNL     1      -5.954  -1.897 123.564  0.00  0.00    +0.000 C 
ATOM     11  C   UNL     1      -5.265  -2.740 125.082  0.00  0.00    +0.000 C 
ATOM     12  N   UNL     1      -6.393  -2.263 125.686  0.00  0.00    +0.000 NA
ATOM     13  C   UNL     1      -6.831  -2.600 126.978  0.00  0.00    +0.000 C 
ATOM     14  C   UNL     1      -6.281  -0.873 125.381  0.00  0.00    +0.000 C 
ATOM     15  C   UNL     1      -5.422   0.166 126.070  0.00  0.00    +0.000 C 
ATOM     16  C   UNL     1      -7.782  -0.911 124.971  0.00  0.00    +0.000 C 
ATOM     17  C   UNL     1      -8.812  -1.884 124.083  0.00  0.00    +0.000 C 
ATOM     18  C   UNL     1      -9.509  -1.280 122.768  0.00  0.00    +0.000 C 
ATOM     19  C   UNL     1      -9.713   0.171 122.831  0.00  0.00    +0.000 C 
ATOM     20  O   UNL     1     -10.494   0.826 122.161  0.00  0.00    +0.000 OA
ENDROOT
BRANCH   4  21
ATOM     21  O   UNL     1      -8.089   4.970 124.854  0.00  0.00    +0.000 OA
ATOM     22  H   UNL     1      -7.609   5.659 124.369  0.00  0.00    +0.000 HD
ENDBRANCH   4  21
BRANCH  16  23
ATOM     23  O   UNL     1      -8.510  -0.417 126.095  0.00  0.00    +0.000 OA
ATOM     24  H   UNL     1      -7.880   0.032 126.684  0.00  0.00    +0.000 HD
ENDBRANCH  16  23
TORSDOF 2
ENDMDL
MODEL 5
REMARK VINA RESULT:      -7.1      3.607      5.532
REMARK  Name = Oxymorphone
REMARK  3 active torsions:
REMARK  status: ('A' for Active; 'I' for Inactive)
REMARK    1  A    between atoms: C_5  and  O_6
REMARK    2  A    between atoms: N_14  and  C_15
REMARK    3  A    between atoms: C_19  and  O_20
REMARK                            x       y       z     vdW  Elec       q    Type
REMARK                         _______ _______ _______ _____ _____    ______ ____
ROOT
ATOM      1  C   UNL     1      -7.830   0.264 127.191  0.00  0.00    +0.000 C 
ATOM      2  O   UNL     1      -8.423   1.579 126.996  0.00  0.00    +0.000 OA
ATOM      3  C   UNL     1      -8.704   1.569 125.675  0.00  0.00    +0.000 A 
ATOM      4  C   UNL     1      -8.878   2.717 124.830  0.00  0.00    +0.000 A 
ATOM      5  C   UNL     1      -9.087   2.482 123.476  0.00  0.00    +0.000 A 
ATOM      6  C   UNL     1      -8.963   1.172 122.992  0.00  0.00    +0.000 A 
ATOM      7  C   UNL     1      -8.699   0.090 123.851  0.00  0.00    +0.000 A 
ATOM      8  C   UNL     1      -8.790   0.225 125.215  0.00  0.00    +0.000 A 
ATOM      9  C   UNL     1      -8.569  -1.138 126.332  0.00  0.00    +0.000 C 
ATOM     10  C   UNL     1      -9.003  -3.198 126.000  0.00  0.00    +0.000 C 
ATOM     11  C   UNL     1      -8.142  -4.103 124.610  0.00  0.00    +0.000 C 
ATOM     12  N   UNL     1      -7.144  -3.196 124.828  0.00  0.00    +0.000 NA
ATOM     13  C   UNL     1      -5.865  -3.239 124.249  0.00  0.00    +0.000 C 
ATOM     14  C   UNL     1      -7.872  -1.975 124.702  0.00  0.00    +0.000 C 
ATOM     15  C   UNL     1      -8.295  -1.268 123.432  0.00  0.00    +0.000 C 
ATOM     16  C   UNL     1      -7.159  -1.495 126.000  0.00  0.00    +0.000 C 
ATOM     17  C   UNL     1      -6.783  -2.095 127.515  0.00  0.00    +0.000 C 
ATOM     18  C   UNL     1      -7.422  -1.392 128.810  0.00  0.00    +0.000 C 
ATOM     19  C   UNL     1      -7.711   0.034 128.616  0.00  0.00    +0.000 C 
ATOM     20  O   UNL     1      -7.871   0.870 129.489  0.00  0.00    +0.000 OA
ENDROOT
BRANCH   4  21
ATOM     21  O   UNL     1      -8.926   4.058 125.138  0.00  0.00    +0.000 OA
ATOM     22  H   UNL     1      -8.172   4.584 124.830  0.00  0.00    +0.000 HD
ENDBRANCH   4  21
BRANCH  16  23
ATOM     23  O   UNL     1      -6.073  -0.676 125.573  0.00  0.00    +0.000 OA
ATOM     24  H   UNL     1      -5.739  -0.193 126.349  0.00  0.00    +0.000 HD
ENDBRANCH  16  23
TORSDOF 2
ENDMDL
MODEL 6
REMARK VINA RESULT:      -7.1      4.526      7.546
REMARK  Name = Oxymorphone
REMARK  3 active torsions:
REMARK  status: ('A' for Active; 'I' for Inactive)
REMARK    1  A    between atoms: C_5  and  O_6
REMARK    2  A    between atoms: N_14  and  C_15
REMARK    3  A    between atoms: C_19  and  O_20
REMARK                            x       y       z     vdW  Elec       q    Type
REMARK                         _______ _______ _______ _____ _____    ______ ____
ROOT
ATOM      1  C   UNL     1      -6.480  -0.313 127.297  0.00  0.00    +0.000 C 
ATOM      2  O   UNL     1      -6.477  -0.979 128.592  0.00  0.00    +0.000 OA
ATOM      3  C   UNL     1      -7.267  -2.050 128.360  0.00  0.00    +0.000 A 
ATOM      4  C   UNL     1      -7.986  -2.810 129.343  0.00  0.00    +0.000 A 
ATOM      5  C   UNL     1      -8.806  -3.833 128.880  0.00  0.00    +0.000 A 
ATOM      6  C   UNL     1      -9.005  -3.963 127.499  0.00  0.00    +0.000 A 
ATOM      7  C   UNL     1      -8.347  -3.130 126.576  0.00  0.00    +0.000 A 
ATOM      8  C   UNL     1      -7.306  -2.321 126.963  0.00  0.00    +0.000 A 
ATOM      9  C   UNL     1      -6.379  -1.334 125.815  0.00  0.00    +0.000 C 
ATOM     10  C   UNL     1      -5.967  -1.736 123.763  0.00  0.00    +0.000 C 
ATOM     11  C   UNL     1      -7.387  -1.926 122.564  0.00  0.00    +0.000 C 
ATOM     12  N   UNL     1      -8.041  -1.092 123.426  0.00  0.00    +0.000 NA
ATOM     13  C   UNL     1      -9.292  -0.497 123.192  0.00  0.00    +0.000 C 
ATOM     14  C   UNL     1      -7.882  -1.809 124.650  0.00  0.00    +0.000 C 
ATOM     15  C   UNL     1      -8.672  -3.003 125.141  0.00  0.00    +0.000 C 
ATOM     16  C   UNL     1      -7.475  -0.458 125.309  0.00  0.00    +0.000 C 
ATOM     17  C   UNL     1      -6.493   0.853 124.972  0.00  0.00    +0.000 C 
ATOM     18  C   UNL     1      -5.250   1.162 125.941  0.00  0.00    +0.000 C 
ATOM     19  C   UNL     1      -5.465   0.719 127.323  0.00  0.00    +0.000 C 
ATOM     20  O   UNL     1      -4.869   1.108 128.313  0.00  0.00    +0.000 OA
ENDROOT
BRANCH   4  21
ATOM     21  O   UNL     1      -7.971  -2.739 130.718  0.00  0.00    +0.000 OA
ATOM     22  H   UNL     1      -7.531  -3.475 131.170  0.00  0.00    +0.000 HD
ENDBRANCH   4  21
BRANCH  16  23
ATOM     23  O   UNL     1      -8.646   0.030 125.962  0.00  0.00    +0.000 OA
ATOM     24  H   UNL     1      -8.979   0.788 125.451  0.00  0.00    +0.000 HD
ENDBRANCH  16  23
TORSDOF 2
ENDMDL
MODEL 7
REMARK VINA RESULT:      -6.9      2.724      3.762
REMARK  Name = Oxymorphone
REMARK  3 active torsions:
REMARK  status: ('A' for Active; 'I' for Inactive)
REMARK    1  A    between atoms: C_5  and  O_6
REMARK    2  A    between atoms: N_14  and  C_15
REMARK    3  A    between atoms: C_19  and  O_20
REMARK                            x       y       z     vdW  Elec       q    Type
REMARK                         _______ _______ _______ _____ _____    ______ ____
ROOT
ATOM      1  C   UNL     1      -8.567  -0.353 124.099  0.00  0.00    +0.000 C 
ATOM      2  O   UNL     1      -8.521   0.746 123.145  0.00  0.00    +0.000 OA
ATOM      3  C   UNL     1      -7.594   1.560 123.696  0.00  0.00    +0.000 A 
ATOM      4  C   UNL     1      -7.448   2.969 123.464  0.00  0.00    +0.000 A 
ATOM      5  C   UNL     1      -6.471   3.635 124.195  0.00  0.00    +0.000 A 
ATOM      6  C   UNL     1      -5.801   2.942 125.212  0.00  0.00    +0.000 A 
ATOM      7  C   UNL     1      -6.048   1.581 125.464  0.00  0.00    +0.000 A 
ATOM      8  C   UNL     1      -6.767   0.812 124.580  0.00  0.00    +0.000 A 
ATOM      9  C   UNL     1      -7.012  -0.932 124.804  0.00  0.00    +0.000 C 
ATOM     10  C   UNL     1      -5.719  -2.335 125.753  0.00  0.00    +0.000 C 
ATOM     11  C   UNL     1      -5.268  -2.094 127.551  0.00  0.00    +0.000 C 
ATOM     12  N   UNL     1      -6.481  -1.471 127.624  0.00  0.00    +0.000 NA
ATOM     13  C   UNL     1      -7.113  -1.056 128.809  0.00  0.00    +0.000 C 
ATOM     14  C   UNL     1      -6.335  -0.498 126.591  0.00  0.00    +0.000 C 
ATOM     15  C   UNL     1      -5.605   0.827 126.655  0.00  0.00    +0.000 C 
ATOM     16  C   UNL     1      -7.754  -0.908 126.098  0.00  0.00    +0.000 C 
ATOM     17  C   UNL     1      -8.622  -2.308 125.813  0.00  0.00    +0.000 C 
ATOM     18  C   UNL     1      -9.111  -2.630 124.317  0.00  0.00    +0.000 C 
ATOM     19  C   UNL     1      -9.335  -1.427 123.507  0.00  0.00    +0.000 C 
ATOM     20  O   UNL     1     -10.007  -1.348 122.492  0.00  0.00    +0.000 OA
ENDROOT
BRANCH   4  21
ATOM     21  O   UNL     1      -8.091   3.803 122.577  0.00  0.00    +0.000 OA
ATOM     22  H   UNL     1      -7.735   4.702 122.516  0.00  0.00    +0.000 HD
ENDBRANCH   4  21
BRANCH  16  23
ATOM     23  O   UNL     1      -8.652   0.063 126.631  0.00  0.00    +0.000 OA
ATOM     24  H   UNL     1      -9.080  -0.324 127.415  0.00  0.00    +0.000 HD
ENDBRANCH  16  23
TORSDOF 2
ENDMDL
MODEL 8
REMARK VINA RESULT:      -6.7      2.957      5.326
REMARK  Name = Oxymorphone
REMARK  3 active torsions:
REMARK  status: ('A' for Active; 'I' for Inactive)
REMARK    1  A    between atoms: C_5  and  O_6
REMARK    2  A    between atoms: N_14  and  C_15
REMARK    3  A    between atoms: C_19  and  O_20
REMARK                            x       y       z     vdW  Elec       q    Type
REMARK                         _______ _______ _______ _____ _____    ______ ____
ROOT
ATOM      1  C   UNL     1      -8.612   0.773 124.597  0.00  0.00    +0.000 C 
ATOM      2  O   UNL     1      -9.305  -0.328 123.942  0.00  0.00    +0.000 OA
ATOM      3  C   UNL     1      -9.067  -1.354 124.787  0.00  0.00    +0.000 A 
ATOM      4  C   UNL     1      -9.106  -2.752 124.465  0.00  0.00    +0.000 A 
ATOM      5  C   UNL     1      -8.753  -3.645 125.471  0.00  0.00    +0.000 A 
ATOM      6  C   UNL     1      -8.237  -3.139 126.671  0.00  0.00    +0.000 A 
ATOM      7  C   UNL     1      -8.131  -1.756 126.903  0.00  0.00    +0.000 A 
ATOM      8  C   UNL     1      -8.745  -0.846 126.077  0.00  0.00    +0.000 A 
ATOM      9  C   UNL     1      -8.728   0.902 126.391  0.00  0.00    +0.000 C 
ATOM     10  C   UNL     1      -8.649   1.902 128.271  0.00  0.00    +0.000 C 
ATOM     11  C   UNL     1      -7.193   1.611 129.404  0.00  0.00    +0.000 C 
ATOM     12  N   UNL     1      -6.518   1.371 128.241  0.00  0.00    +0.000 NA
ATOM     13  C   UNL     1      -5.127   1.204 128.127  0.00  0.00    +0.000 C 
ATOM     14  C   UNL     1      -7.343   0.358 127.667  0.00  0.00    +0.000 C 
ATOM     15  C   UNL     1      -7.375  -1.118 128.001  0.00  0.00    +0.000 C 
ATOM     16  C   UNL     1      -7.257   1.144 126.326  0.00  0.00    +0.000 C 
ATOM     17  C   UNL     1      -7.377   2.725 125.793  0.00  0.00    +0.000 C 
ATOM     18  C   UNL     1      -8.562   3.116 124.782  0.00  0.00    +0.000 C 
ATOM     19  C   UNL     1      -8.995   2.001 123.933  0.00  0.00    +0.000 C 
ATOM     20  O   UNL     1      -9.609   2.082 122.882  0.00  0.00    +0.000 OA
ENDROOT
BRANCH   4  21
ATOM     21  O   UNL     1      -9.493  -3.396 123.311  0.00  0.00    +0.000 OA
ATOM     22  H   UNL     1     -10.307  -3.066 122.902  0.00  0.00    +0.000 HD
ENDBRANCH   4  21
BRANCH  16  23
ATOM     23  O   UNL     1      -6.246   0.498 125.555  0.00  0.00    +0.000 OA
ATOM     24  H   UNL     1      -5.382   0.815 125.869  0.00  0.00    +0.000 HD
ENDBRANCH  16  23
TORSDOF 2
ENDMDL
MODEL 9
REMARK VINA RESULT:      -6.6      4.602      6.800
REMARK  Name = Oxymorphone
REMARK  3 active torsions:
REMARK  status: ('A' for Active; 'I' for Inactive)
REMARK    1  A    between atoms: C_5  and  O_6
REMARK    2  A    between atoms: N_14  and  C_15
REMARK    3  A    between atoms: C_19  and  O_20
REMARK                            x       y       z     vdW  Elec       q    Type
REMARK                         _______ _______ _______ _____ _____    ______ ____
ROOT
ATOM      1  C   UNL     1      -6.387  -0.139 126.530  0.00  0.00    +0.000 C 
ATOM      2  O   UNL     1      -7.063  -0.045 125.245  0.00  0.00    +0.000 OA
ATOM      3  C   UNL     1      -7.887  -1.116 125.280  0.00  0.00    +0.000 A 
ATOM      4  C   UNL     1      -8.459  -1.790 124.150  0.00  0.00    +0.000 A 
ATOM      5  C   UNL     1      -9.222  -2.924 124.407  0.00  0.00    +0.000 A 
ATOM      6  C   UNL     1      -9.261  -3.428 125.714  0.00  0.00    +0.000 A 
ATOM      7  C   UNL     1      -8.604  -2.779 126.775  0.00  0.00    +0.000 A 
ATOM      8  C   UNL     1      -8.103  -1.508 126.631  0.00  0.00    +0.000 A 
ATOM      9  C   UNL     1      -7.361  -0.610 127.971  0.00  0.00    +0.000 C 
ATOM     10  C   UNL     1      -7.804  -0.744 130.052  0.00  0.00    +0.000 C 
ATOM     11  C   UNL     1      -7.589  -2.379 130.931  0.00  0.00    +0.000 C 
ATOM     12  N   UNL     1      -6.636  -2.604 129.979  0.00  0.00    +0.000 NA
ATOM     13  C   UNL     1      -5.731  -3.679 129.970  0.00  0.00    +0.000 C 
ATOM     14  C   UNL     1      -7.401  -2.390 128.793  0.00  0.00    +0.000 C 
ATOM     15  C   UNL     1      -8.361  -3.345 128.117  0.00  0.00    +0.000 C 
ATOM     16  C   UNL     1      -6.219  -1.522 128.269  0.00  0.00    +0.000 C 
ATOM     17  C   UNL     1      -5.199  -0.324 128.837  0.00  0.00    +0.000 C 
ATOM     18  C   UNL     1      -5.247   1.127 128.150  0.00  0.00    +0.000 C 
ATOM     19  C   UNL     1      -5.654   1.091 126.741  0.00  0.00    +0.000 C 
ATOM     20  O   UNL     1      -5.458   1.957 125.905  0.00  0.00    +0.000 OA
ENDROOT
BRANCH   4  21
ATOM     21  O   UNL     1      -8.429  -1.478 122.809  0.00  0.00    +0.000 OA
ATOM     22  H   UNL     1      -7.580  -1.148 122.476  0.00  0.00    +0.000 HD
ENDBRANCH   4  21
BRANCH  16  23
ATOM     23  O   UNL     1      -5.461  -2.368 127.407  0.00  0.00    +0.000 OA
ATOM     24  H   UNL     1      -5.335  -3.220 127.858  0.00  0.00    +0.000 HD
ENDBRANCH  16  23
TORSDOF 2
ENDMDL
