MODEL 1
REMARK VINA RESULT:      -9.6      0.000      0.000
REMARK  Name = Oxyphenisatin acetate
REMARK  8 active torsions:
REMARK  status: ('A' for Active; 'I' for Inactive)
REMARK    1  A    between atoms: C_1  and  C_2
REMARK    2  A    between atoms: C_2  and  O_4
REMARK    3  A    between atoms: O_4  and  C_5
REMARK    4  A    between atoms: C_8  and  C_11
REMARK    5  A    between atoms: C_11  and  C_21
REMARK    6  A    between atoms: C_24  and  O_25
REMARK    7  A    between atoms: O_25  and  C_26
REMARK    8  A    between atoms: C_26  and  C_27
REMARK                            x       y       z     vdW  Elec       q    Type
REMARK                         _______ _______ _______ _____ _____    ______ ____
ROOT
ATOM      1  C   UNL     1      -7.446   1.054 123.833  0.00  0.00    +0.000 C 
ATOM      2  C   UNL     1      -8.824   0.900 124.452  0.00  0.00    +0.000 C 
ATOM      3  O   UNL     1      -9.859   0.906 123.880  0.00  0.00    +0.000 OA
ATOM      4  N   UNL     1      -8.382   0.030 125.544  0.00  0.00    +0.000 N 
ATOM      5  C   UNL     1      -8.118  -1.172 124.997  0.00  0.00    +0.000 A 
ATOM      6  C   UNL     1      -8.663  -2.171 125.912  0.00  0.00    +0.000 A 
ATOM      7  C   UNL     1      -9.248  -3.314 125.505  0.00  0.00    +0.000 A 
ATOM      8  C   UNL     1      -9.395  -3.254 124.140  0.00  0.00    +0.000 A 
ATOM      9  C   UNL     1      -8.744  -2.037 123.231  0.00  0.00    +0.000 A 
ATOM     10  C   UNL     1      -7.785  -0.881 123.672  0.00  0.00    +0.000 A 
ATOM     11  H   UNL     1      -7.390   0.098 125.733  0.00  0.00    +0.000 HD
ENDROOT
BRANCH   1  15
ATOM     12  C   UNL     1      -5.498   4.242 126.824  0.00  0.00    +0.000 A 
ATOM     13  C   UNL     1      -6.779   4.388 126.295  0.00  0.00    +0.000 A 
ATOM     14  C   UNL     1      -7.524   3.292 125.730  0.00  0.00    +0.000 A 
ATOM     15  C   UNL     1      -6.915   2.080 125.327  0.00  0.00    +0.000 A 
ATOM     16  C   UNL     1      -5.591   1.959 125.963  0.00  0.00    +0.000 A 
ATOM     17  C   UNL     1      -4.946   2.981 126.756  0.00  0.00    +0.000 A 
BRANCH  12  18
ATOM     18  O   UNL     1      -4.891   5.349 127.495  0.00  0.00    +0.000 OA
BRANCH  18  20
ATOM     19  C   UNL     1      -3.905   4.901 129.676  0.00  0.00    +0.000 C 
ATOM     20  C   UNL     1      -3.688   5.192 128.205  0.00  0.00    +0.000 C 
ATOM     21  O   UNL     1      -2.566   5.284 127.722  0.00  0.00    +0.000 OA
ENDBRANCH  18  20
ENDBRANCH  12  18
ENDBRANCH   1  15
BRANCH   1  22
ATOM     22  C   UNL     1      -7.380   2.341 122.721  0.00  0.00    +0.000 A 
ATOM     23  C   UNL     1      -6.181   2.670 122.094  0.00  0.00    +0.000 A 
ATOM     24  C   UNL     1      -6.045   3.552 120.980  0.00  0.00    +0.000 A 
ATOM     25  C   UNL     1      -7.143   4.061 120.302  0.00  0.00    +0.000 A 
ATOM     26  C   UNL     1      -8.384   3.741 120.807  0.00  0.00    +0.000 A 
ATOM     27  C   UNL     1      -8.515   2.900 121.971  0.00  0.00    +0.000 A 
BRANCH  25  28
ATOM     28  O   UNL     1      -6.868   4.860 119.139  0.00  0.00    +0.000 OA
BRANCH  28  29
ATOM     29  C   UNL     1      -5.949   5.840 118.709  0.00  0.00    +0.000 C 
ATOM     30  C   UNL     1      -5.906   6.127 117.243  0.00  0.00    +0.000 C 
ATOM     31  O   UNL     1      -5.233   6.453 119.499  0.00  0.00    +0.000 OA
ENDBRANCH  28  29
ENDBRANCH  25  28
ENDBRANCH   1  22
TORSDOF 6
ENDMDL
MODEL 2
REMARK VINA RESULT:      -9.1      5.927      9.653
REMARK  Name = Oxyphenisatin acetate
REMARK  8 active torsions:
REMARK  status: ('A' for Active; 'I' for Inactive)
REMARK    1  A    between atoms: C_1  and  C_2
REMARK    2  A    between atoms: C_2  and  O_4
REMARK    3  A    between atoms: O_4  and  C_5
REMARK    4  A    between atoms: C_8  and  C_11
REMARK    5  A    between atoms: C_11  and  C_21
REMARK    6  A    between atoms: C_24  and  O_25
REMARK    7  A    between atoms: O_25  and  C_26
REMARK    8  A    between atoms: C_26  and  C_27
REMARK                            x       y       z     vdW  Elec       q    Type
REMARK                         _______ _______ _______ _____ _____    ______ ____
ROOT
ATOM      1  C   UNL     1      -7.506  -1.963 131.001  0.00  0.00    +0.000 C 
ATOM      2  C   UNL     1      -6.001  -2.015 130.807  0.00  0.00    +0.000 C 
ATOM      3  O   UNL     1      -5.204  -1.276 131.275  0.00  0.00    +0.000 OA
ATOM      4  N   UNL     1      -5.934  -3.471 130.669  0.00  0.00    +0.000 N 
ATOM      5  C   UNL     1      -6.138  -3.984 131.897  0.00  0.00    +0.000 A 
ATOM      6  C   UNL     1      -5.178  -5.074 132.054  0.00  0.00    +0.000 A 
ATOM      7  C   UNL     1      -4.554  -5.355 133.214  0.00  0.00    +0.000 A 
ATOM      8  C   UNL     1      -4.838  -4.349 134.105  0.00  0.00    +0.000 A 
ATOM      9  C   UNL     1      -5.934  -3.156 133.776  0.00  0.00    +0.000 A 
ATOM     10  C   UNL     1      -6.900  -3.016 132.553  0.00  0.00    +0.000 A 
ATOM     11  H   UNL     1      -6.819  -3.889 130.410  0.00  0.00    +0.000 HD
ENDROOT
BRANCH   1  15
ATOM     12  C   UNL     1      -9.125  -2.782 126.572  0.00  0.00    +0.000 A 
ATOM     13  C   UNL     1      -8.337  -1.679 126.895  0.00  0.00    +0.000 A 
ATOM     14  C   UNL     1      -7.529  -1.615 128.086  0.00  0.00    +0.000 A 
ATOM     15  C   UNL     1      -7.731  -2.470 129.195  0.00  0.00    +0.000 A 
ATOM     16  C   UNL     1      -8.521  -3.642 128.776  0.00  0.00    +0.000 A 
ATOM     17  C   UNL     1      -9.126  -3.823 127.475  0.00  0.00    +0.000 A 
BRANCH  12  18
ATOM     18  O   UNL     1      -9.780  -2.821 125.301  0.00  0.00    +0.000 OA
BRANCH  18  20
ATOM     19  C   UNL     1      -7.819  -3.380 123.971  0.00  0.00    +0.000 C 
ATOM     20  C   UNL     1      -9.076  -2.548 124.116  0.00  0.00    +0.000 C 
ATOM     21  O   UNL     1      -9.409  -1.725 123.271  0.00  0.00    +0.000 OA
ENDBRANCH  18  20
ENDBRANCH  12  18
ENDBRANCH   1  15
BRANCH   1  22
ATOM     22  C   UNL     1      -8.127  -0.391 130.805  0.00  0.00    +0.000 A 
ATOM     23  C   UNL     1      -9.138   0.078 131.641  0.00  0.00    +0.000 A 
ATOM     24  C   UNL     1      -9.567   1.435 131.740  0.00  0.00    +0.000 A 
ATOM     25  C   UNL     1      -8.897   2.470 131.105  0.00  0.00    +0.000 A 
ATOM     26  C   UNL     1      -7.835   2.118 130.300  0.00  0.00    +0.000 A 
ATOM     27  C   UNL     1      -7.444   0.738 130.153  0.00  0.00    +0.000 A 
BRANCH  25  28
ATOM     28  O   UNL     1      -9.374   3.802 131.363  0.00  0.00    +0.000 OA
BRANCH  28  29
ATOM     29  C   UNL     1     -10.419   4.659 130.958  0.00  0.00    +0.000 C 
ATOM     30  C   UNL     1     -10.541   5.961 131.681  0.00  0.00    +0.000 C 
ATOM     31  O   UNL     1     -11.180   4.367 130.038  0.00  0.00    +0.000 OA
ENDBRANCH  28  29
ENDBRANCH  25  28
ENDBRANCH   1  22
TORSDOF 6
ENDMDL
MODEL 3
REMARK VINA RESULT:      -8.9      2.449      6.675
REMARK  Name = Oxyphenisatin acetate
REMARK  8 active torsions:
REMARK  status: ('A' for Active; 'I' for Inactive)
REMARK    1  A    between atoms: C_1  and  C_2
REMARK    2  A    between atoms: C_2  and  O_4
REMARK    3  A    between atoms: O_4  and  C_5
REMARK    4  A    between atoms: C_8  and  C_11
REMARK    5  A    between atoms: C_11  and  C_21
REMARK    6  A    between atoms: C_24  and  O_25
REMARK    7  A    between atoms: O_25  and  C_26
REMARK    8  A    between atoms: C_26  and  C_27
REMARK                            x       y       z     vdW  Elec       q    Type
REMARK                         _______ _______ _______ _____ _____    ______ ____
ROOT
ATOM      1  C   UNL     1      -8.237   1.610 125.289  0.00  0.00    +0.000 C 
ATOM      2  C   UNL     1      -7.096   0.670 124.944  0.00  0.00    +0.000 C 
ATOM      3  O   UNL     1      -6.459   0.024 125.704  0.00  0.00    +0.000 OA
ATOM      4  N   UNL     1      -7.631   0.285 123.636  0.00  0.00    +0.000 N 
ATOM      5  C   UNL     1      -8.680  -0.524 123.871  0.00  0.00    +0.000 A 
ATOM      6  C   UNL     1      -8.584  -1.617 122.907  0.00  0.00    +0.000 A 
ATOM      7  C   UNL     1      -8.910  -2.892 123.191  0.00  0.00    +0.000 A 
ATOM      8  C   UNL     1      -9.145  -2.981 124.542  0.00  0.00    +0.000 A 
ATOM      9  C   UNL     1      -9.196  -1.650 125.522  0.00  0.00    +0.000 A 
ATOM     10  C   UNL     1      -9.140  -0.135 125.131  0.00  0.00    +0.000 A 
ATOM     11  H   UNL     1      -8.298   0.950 123.266  0.00  0.00    +0.000 HD
ENDROOT
BRANCH   1  15
ATOM     12  C   UNL     1      -6.277   3.646 121.426  0.00  0.00    +0.000 A 
ATOM     13  C   UNL     1      -7.624   3.297 121.493  0.00  0.00    +0.000 A 
ATOM     14  C   UNL     1      -8.312   3.058 122.736  0.00  0.00    +0.000 A 
ATOM     15  C   UNL     1      -7.631   2.796 123.949  0.00  0.00    +0.000 A 
ATOM     16  C   UNL     1      -6.230   3.238 123.833  0.00  0.00    +0.000 A 
ATOM     17  C   UNL     1      -5.603   3.727 122.625  0.00  0.00    +0.000 A 
BRANCH  12  18
ATOM     18  O   UNL     1      -5.713   4.006 120.163  0.00  0.00    +0.000 OA
BRANCH  18  20
ATOM     19  C   UNL     1      -5.951   5.841 118.580  0.00  0.00    +0.000 C 
ATOM     20  C   UNL     1      -5.361   5.338 119.881  0.00  0.00    +0.000 C 
ATOM     21  O   UNL     1      -4.648   6.044 120.584  0.00  0.00    +0.000 OA
ENDBRANCH  18  20
ENDBRANCH  12  18
ENDBRANCH   1  15
BRANCH   1  22
ATOM     22  C   UNL     1      -7.855   2.633 126.594  0.00  0.00    +0.000 A 
ATOM     23  C   UNL     1      -8.011   4.012 126.478  0.00  0.00    +0.000 A 
ATOM     24  C   UNL     1      -7.961   4.944 127.557  0.00  0.00    +0.000 A 
ATOM     25  C   UNL     1      -7.902   4.538 128.882  0.00  0.00    +0.000 A 
ATOM     26  C   UNL     1      -7.809   3.182 129.110  0.00  0.00    +0.000 A 
ATOM     27  C   UNL     1      -7.797   2.246 128.012  0.00  0.00    +0.000 A 
BRANCH  25  28
ATOM     28  O   UNL     1      -7.954   5.574 129.877  0.00  0.00    +0.000 OA
BRANCH  28  29
ATOM     29  C   UNL     1      -8.872   6.509 130.400  0.00  0.00    +0.000 C 
ATOM     30  C   UNL     1      -9.432   6.219 131.754  0.00  0.00    +0.000 C 
ATOM     31  O   UNL     1      -9.181   7.530 129.788  0.00  0.00    +0.000 OA
ENDBRANCH  28  29
ENDBRANCH  25  28
ENDBRANCH   1  22
TORSDOF 6
ENDMDL
MODEL 4
REMARK VINA RESULT:      -8.5      6.172      9.871
REMARK  Name = Oxyphenisatin acetate
REMARK  8 active torsions:
REMARK  status: ('A' for Active; 'I' for Inactive)
REMARK    1  A    between atoms: C_1  and  C_2
REMARK    2  A    between atoms: C_2  and  O_4
REMARK    3  A    between atoms: O_4  and  C_5
REMARK    4  A    between atoms: C_8  and  C_11
REMARK    5  A    between atoms: C_11  and  C_21
REMARK    6  A    between atoms: C_24  and  O_25
REMARK    7  A    between atoms: O_25  and  C_26
REMARK    8  A    between atoms: C_26  and  C_27
REMARK                            x       y       z     vdW  Elec       q    Type
REMARK                         _______ _______ _______ _____ _____    ______ ____
ROOT
ATOM      1  C   UNL     1      -7.620  -1.804 131.911  0.00  0.00    +0.000 C 
ATOM      2  C   UNL     1      -6.140  -1.993 132.198  0.00  0.00    +0.000 C 
ATOM      3  O   UNL     1      -5.457  -1.297 132.867  0.00  0.00    +0.000 OA
ATOM      4  N   UNL     1      -6.179  -3.456 132.135  0.00  0.00    +0.000 N 
ATOM      5  C   UNL     1      -6.800  -3.874 133.253  0.00  0.00    +0.000 A 
ATOM      6  C   UNL     1      -6.047  -5.029 133.737  0.00  0.00    +0.000 A 
ATOM      7  C   UNL     1      -5.841  -5.290 135.041  0.00  0.00    +0.000 A 
ATOM      8  C   UNL     1      -6.283  -4.211 135.768  0.00  0.00    +0.000 A 
ATOM      9  C   UNL     1      -7.102  -2.953 135.076  0.00  0.00    +0.000 A 
ATOM     10  C   UNL     1      -7.627  -2.806 133.608  0.00  0.00    +0.000 A 
ATOM     11  H   UNL     1      -6.978  -3.813 131.626  0.00  0.00    +0.000 HD
ENDROOT
BRANCH   1  15
ATOM     12  C   UNL     1      -7.660  -2.496 127.176  0.00  0.00    +0.000 A 
ATOM     13  C   UNL     1      -6.704  -1.710 127.815  0.00  0.00    +0.000 A 
ATOM     14  C   UNL     1      -6.432  -1.799 129.227  0.00  0.00    +0.000 A 
ATOM     15  C   UNL     1      -7.328  -2.399 130.143  0.00  0.00    +0.000 A 
ATOM     16  C   UNL     1      -8.276  -3.259 129.412  0.00  0.00    +0.000 A 
ATOM     17  C   UNL     1      -8.376  -3.363 127.973  0.00  0.00    +0.000 A 
BRANCH  12  18
ATOM     18  O   UNL     1      -7.763  -2.446 125.751  0.00  0.00    +0.000 OA
BRANCH  18  20
ATOM     19  C   UNL     1      -9.273  -3.282 124.033  0.00  0.00    +0.000 C 
ATOM     20  C   UNL     1      -9.007  -2.264 125.121  0.00  0.00    +0.000 C 
ATOM     21  O   UNL     1      -9.812  -1.380 125.392  0.00  0.00    +0.000 OA
ENDBRANCH  18  20
ENDBRANCH  12  18
ENDBRANCH   1  15
BRANCH   1  22
ATOM     22  C   UNL     1      -7.991  -0.199 131.481  0.00  0.00    +0.000 A 
ATOM     23  C   UNL     1      -9.251   0.329 131.752  0.00  0.00    +0.000 A 
ATOM     24  C   UNL     1      -9.605   1.709 131.666  0.00  0.00    +0.000 A 
ATOM     25  C   UNL     1      -8.661   2.702 131.448  0.00  0.00    +0.000 A 
ATOM     26  C   UNL     1      -7.365   2.287 131.232  0.00  0.00    +0.000 A 
ATOM     27  C   UNL     1      -7.023   0.886 131.256  0.00  0.00    +0.000 A 
BRANCH  25  28
ATOM     28  O   UNL     1      -9.134   4.060 131.480  0.00  0.00    +0.000 OA
BRANCH  28  29
ATOM     29  C   UNL     1      -9.344   5.139 130.596  0.00  0.00    +0.000 C 
ATOM     30  C   UNL     1      -8.841   6.476 131.033  0.00  0.00    +0.000 C 
ATOM     31  O   UNL     1      -9.889   4.989 129.504  0.00  0.00    +0.000 OA
ENDBRANCH  28  29
ENDBRANCH  25  28
ENDBRANCH   1  22
TORSDOF 6
ENDMDL
MODEL 5
REMARK VINA RESULT:      -8.5      6.896      9.744
REMARK  Name = Oxyphenisatin acetate
REMARK  8 active torsions:
REMARK  status: ('A' for Active; 'I' for Inactive)
REMARK    1  A    between atoms: C_1  and  C_2
REMARK    2  A    between atoms: C_2  and  O_4
REMARK    3  A    between atoms: O_4  and  C_5
REMARK    4  A    between atoms: C_8  and  C_11
REMARK    5  A    between atoms: C_11  and  C_21
REMARK    6  A    between atoms: C_24  and  O_25
REMARK    7  A    between atoms: O_25  and  C_26
REMARK    8  A    between atoms: C_26  and  C_27
REMARK                            x       y       z     vdW  Elec       q    Type
REMARK                         _______ _______ _______ _____ _____    ______ ____
ROOT
ATOM      1  C   UNL     1     -10.504   5.307 130.378  0.00  0.00    +0.000 C 
ATOM      2  C   UNL     1      -9.982   6.263 129.320  0.00  0.00    +0.000 C 
ATOM      3  O   UNL     1      -9.877   6.044 128.162  0.00  0.00    +0.000 OA
ATOM      4  N   UNL     1     -10.466   7.474 129.987  0.00  0.00    +0.000 N 
ATOM      5  C   UNL     1     -11.803   7.492 129.833  0.00  0.00    +0.000 A 
ATOM      6  C   UNL     1     -12.164   8.870 129.511  0.00  0.00    +0.000 A 
ATOM      7  C   UNL     1     -13.137   9.201 128.641  0.00  0.00    +0.000 A 
ATOM      8  C   UNL     1     -13.556   8.053 128.012  0.00  0.00    +0.000 A 
ATOM      9  C   UNL     1     -13.035   6.552 128.469  0.00  0.00    +0.000 A 
ATOM     10  C   UNL     1     -12.151   6.146 129.697  0.00  0.00    +0.000 A 
ATOM     11  H   UNL     1     -10.637   7.345 130.975  0.00  0.00    +0.000 HD
ENDROOT
BRANCH   1  15
ATOM     12  C   UNL     1      -6.906   5.863 133.484  0.00  0.00    +0.000 A 
ATOM     13  C   UNL     1      -6.757   6.067 132.114  0.00  0.00    +0.000 A 
ATOM     14  C   UNL     1      -7.872   6.290 131.230  0.00  0.00    +0.000 A 
ATOM     15  C   UNL     1      -9.205   5.966 131.580  0.00  0.00    +0.000 A 
ATOM     16  C   UNL     1      -9.307   5.820 133.043  0.00  0.00    +0.000 A 
ATOM     17  C   UNL     1      -8.196   5.853 133.968  0.00  0.00    +0.000 A 
BRANCH  12  18
ATOM     18  O   UNL     1      -5.740   5.795 134.309  0.00  0.00    +0.000 OA
BRANCH  18  20
ATOM     19  C   UNL     1      -5.671   3.567 135.288  0.00  0.00    +0.000 C 
ATOM     20  C   UNL     1      -4.998   4.606 134.416  0.00  0.00    +0.000 C 
ATOM     21  O   UNL     1      -3.914   4.400 133.882  0.00  0.00    +0.000 OA
ENDBRANCH  18  20
ENDBRANCH  12  18
ENDBRANCH   1  15
BRANCH   1  22
ATOM     22  C   UNL     1      -9.819   3.755 130.236  0.00  0.00    +0.000 A 
ATOM     23  C   UNL     1      -8.724   3.542 129.401  0.00  0.00    +0.000 A 
ATOM     24  C   UNL     1      -7.917   2.365 129.379  0.00  0.00    +0.000 A 
ATOM     25  C   UNL     1      -8.058   1.356 130.320  0.00  0.00    +0.000 A 
ATOM     26  C   UNL     1      -9.076   1.501 131.236  0.00  0.00    +0.000 A 
ATOM     27  C   UNL     1      -9.930   2.663 131.215  0.00  0.00    +0.000 A 
BRANCH  25  28
ATOM     28  O   UNL     1      -7.119   0.269 130.244  0.00  0.00    +0.000 OA
BRANCH  28  29
ATOM     29  C   UNL     1      -7.061  -1.114 130.517  0.00  0.00    +0.000 C 
ATOM     30  C   UNL     1      -7.868  -2.010 129.634  0.00  0.00    +0.000 C 
ATOM     31  O   UNL     1      -6.362  -1.571 131.419  0.00  0.00    +0.000 OA
ENDBRANCH  28  29
ENDBRANCH  25  28
ENDBRANCH   1  22
TORSDOF 6
ENDMDL
MODEL 6
REMARK VINA RESULT:      -8.5      7.469      9.782
REMARK  Name = Oxyphenisatin acetate
REMARK  8 active torsions:
REMARK  status: ('A' for Active; 'I' for Inactive)
REMARK    1  A    between atoms: C_1  and  C_2
REMARK    2  A    between atoms: C_2  and  O_4
REMARK    3  A    between atoms: O_4  and  C_5
REMARK    4  A    between atoms: C_8  and  C_11
REMARK    5  A    between atoms: C_11  and  C_21
REMARK    6  A    between atoms: C_24  and  O_25
REMARK    7  A    between atoms: O_25  and  C_26
REMARK    8  A    between atoms: C_26  and  C_27
REMARK                            x       y       z     vdW  Elec       q    Type
REMARK                         _______ _______ _______ _____ _____    ______ ____
ROOT
ATOM      1  C   UNL     1      -8.787   5.426 130.132  0.00  0.00    +0.000 C 
ATOM      2  C   UNL     1      -9.748   6.028 131.143  0.00  0.00    +0.000 C 
ATOM      3  O   UNL     1      -9.631   7.068 131.694  0.00  0.00    +0.000 OA
ATOM      4  N   UNL     1     -10.949   5.426 130.559  0.00  0.00    +0.000 N 
ATOM      5  C   UNL     1     -11.197   6.092 129.416  0.00  0.00    +0.000 A 
ATOM      6  C   UNL     1     -12.640   6.310 129.370  0.00  0.00    +0.000 A 
ATOM      7  C   UNL     1     -13.209   7.431 128.884  0.00  0.00    +0.000 A 
ATOM      8  C   UNL     1     -12.211   8.345 128.643  0.00  0.00    +0.000 A 
ATOM      9  C   UNL     1     -10.608   7.960 128.765  0.00  0.00    +0.000 A 
ATOM     10  C   UNL     1      -9.945   6.563 129.014  0.00  0.00    +0.000 A 
ATOM     11  H   UNL     1     -10.751   4.620 129.981  0.00  0.00    +0.000 HD
ENDROOT
BRANCH   1  15
ATOM     12  C   UNL     1      -8.441   1.032 131.995  0.00  0.00    +0.000 A 
ATOM     13  C   UNL     1      -8.575   2.175 132.780  0.00  0.00    +0.000 A 
ATOM     14  C   UNL     1      -9.065   3.427 132.264  0.00  0.00    +0.000 A 
ATOM     15  C   UNL     1      -9.106   3.722 130.880  0.00  0.00    +0.000 A 
ATOM     16  C   UNL     1      -9.018   2.470 130.108  0.00  0.00    +0.000 A 
ATOM     17  C   UNL     1      -8.777   1.157 130.664  0.00  0.00    +0.000 A 
BRANCH  12  18
ATOM     18  O   UNL     1      -8.086  -0.205 132.620  0.00  0.00    +0.000 OA
BRANCH  18  20
ATOM     19  C   UNL     1      -7.418  -2.286 131.548  0.00  0.00    +0.000 C 
ATOM     20  C   UNL     1      -6.998  -0.964 132.154  0.00  0.00    +0.000 C 
ATOM     21  O   UNL     1      -5.822  -0.627 132.223  0.00  0.00    +0.000 OA
ENDBRANCH  18  20
ENDBRANCH  12  18
ENDBRANCH   1  15
BRANCH   1  22
ATOM     22  C   UNL     1      -7.168   5.527 130.645  0.00  0.00    +0.000 A 
ATOM     23  C   UNL     1      -6.205   4.674 130.109  0.00  0.00    +0.000 A 
ATOM     24  C   UNL     1      -4.794   4.816 130.270  0.00  0.00    +0.000 A 
ATOM     25  C   UNL     1      -4.226   5.933 130.864  0.00  0.00    +0.000 A 
ATOM     26  C   UNL     1      -5.096   6.872 131.373  0.00  0.00    +0.000 A 
ATOM     27  C   UNL     1      -6.523   6.695 131.264  0.00  0.00    +0.000 A 
BRANCH  25  28
ATOM     28  O   UNL     1      -2.790   5.996 130.878  0.00  0.00    +0.000 OA
BRANCH  28  29
ATOM     29  C   UNL     1      -1.717   5.726 131.752  0.00  0.00    +0.000 C 
ATOM     30  C   UNL     1      -1.843   4.516 132.620  0.00  0.00    +0.000 C 
ATOM     31  O   UNL     1      -0.710   6.431 131.785  0.00  0.00    +0.000 OA
ENDBRANCH  28  29
ENDBRANCH  25  28
ENDBRANCH   1  22
TORSDOF 6
ENDMDL
MODEL 7
REMARK VINA RESULT:      -8.4      7.943     10.689
REMARK  Name = Oxyphenisatin acetate
REMARK  8 active torsions:
REMARK  status: ('A' for Active; 'I' for Inactive)
REMARK    1  A    between atoms: C_1  and  C_2
REMARK    2  A    between atoms: C_2  and  O_4
REMARK    3  A    between atoms: O_4  and  C_5
REMARK    4  A    between atoms: C_8  and  C_11
REMARK    5  A    between atoms: C_11  and  C_21
REMARK    6  A    between atoms: C_24  and  O_25
REMARK    7  A    between atoms: O_25  and  C_26
REMARK    8  A    between atoms: C_26  and  C_27
REMARK                            x       y       z     vdW  Elec       q    Type
REMARK                         _______ _______ _______ _____ _____    ______ ____
ROOT
ATOM      1  C   UNL     1      -5.715   5.665 132.509  0.00  0.00    +0.000 C 
ATOM      2  C   UNL     1      -4.920   5.605 131.216  0.00  0.00    +0.000 C 
ATOM      3  O   UNL     1      -4.874   6.438 130.377  0.00  0.00    +0.000 OA
ATOM      4  N   UNL     1      -3.831   4.795 131.768  0.00  0.00    +0.000 N 
ATOM      5  C   UNL     1      -3.116   5.605 132.570  0.00  0.00    +0.000 A 
ATOM      6  C   UNL     1      -1.710   5.308 132.312  0.00  0.00    +0.000 A 
ATOM      7  C   UNL     1      -0.741   6.243 132.300  0.00  0.00    +0.000 A 
ATOM      8  C   UNL     1      -1.339   7.477 132.379  0.00  0.00    +0.000 A 
ATOM      9  C   UNL     1      -2.959   7.662 132.648  0.00  0.00    +0.000 A 
ATOM     10  C   UNL     1      -4.033   6.574 132.987  0.00  0.00    +0.000 A 
ATOM     11  H   UNL     1      -4.093   4.290 132.604  0.00  0.00    +0.000 HD
ENDROOT
BRANCH   1  15
ATOM     12  C   UNL     1      -7.716   1.318 132.486  0.00  0.00    +0.000 A 
ATOM     13  C   UNL     1      -7.681   2.137 131.360  0.00  0.00    +0.000 A 
ATOM     14  C   UNL     1      -6.769   3.245 131.225  0.00  0.00    +0.000 A 
ATOM     15  C   UNL     1      -6.100   3.825 132.329  0.00  0.00    +0.000 A 
ATOM     16  C   UNL     1      -6.124   2.888 133.466  0.00  0.00    +0.000 A 
ATOM     17  C   UNL     1      -6.843   1.634 133.504  0.00  0.00    +0.000 A 
BRANCH  12  18
ATOM     18  O   UNL     1      -8.549   0.155 132.475  0.00  0.00    +0.000 OA
BRANCH  18  20
ATOM     19  C   UNL     1      -7.556  -1.655 131.185  0.00  0.00    +0.000 C 
ATOM     20  C   UNL     1      -7.993  -1.134 132.538  0.00  0.00    +0.000 C 
ATOM     21  O   UNL     1      -7.867  -1.799 133.560  0.00  0.00    +0.000 OA
ENDBRANCH  18  20
ENDBRANCH  12  18
ENDBRANCH   1  15
BRANCH   1  22
ATOM     22  C   UNL     1      -7.314   6.189 132.256  0.00  0.00    +0.000 A 
ATOM     23  C   UNL     1      -7.708   6.674 131.010  0.00  0.00    +0.000 A 
ATOM     24  C   UNL     1      -9.055   6.911 130.604  0.00  0.00    +0.000 A 
ATOM     25  C   UNL     1     -10.140   6.527 131.379  0.00  0.00    +0.000 A 
ATOM     26  C   UNL     1      -9.856   5.975 132.609  0.00  0.00    +0.000 A 
ATOM     27  C   UNL     1      -8.493   5.795 133.043  0.00  0.00    +0.000 A 
BRANCH  25  28
ATOM     28  O   UNL     1     -11.445   6.737 130.812  0.00  0.00    +0.000 OA
BRANCH  28  29
ATOM     29  C   UNL     1     -12.027   7.132 129.590  0.00  0.00    +0.000 C 
ATOM     30  C   UNL     1     -12.276   8.593 129.403  0.00  0.00    +0.000 C 
ATOM     31  O   UNL     1     -12.295   6.322 128.704  0.00  0.00    +0.000 OA
ENDBRANCH  28  29
ENDBRANCH  25  28
ENDBRANCH   1  22
TORSDOF 6
ENDMDL
MODEL 8
REMARK VINA RESULT:      -8.3      7.864     11.344
REMARK  Name = Oxyphenisatin acetate
REMARK  8 active torsions:
REMARK  status: ('A' for Active; 'I' for Inactive)
REMARK    1  A    between atoms: C_1  and  C_2
REMARK    2  A    between atoms: C_2  and  O_4
REMARK    3  A    between atoms: O_4  and  C_5
REMARK    4  A    between atoms: C_8  and  C_11
REMARK    5  A    between atoms: C_11  and  C_21
REMARK    6  A    between atoms: C_24  and  O_25
REMARK    7  A    between atoms: O_25  and  C_26
REMARK    8  A    between atoms: C_26  and  C_27
REMARK                            x       y       z     vdW  Elec       q    Type
REMARK                         _______ _______ _______ _____ _____    ______ ____
ROOT
ATOM      1  C   UNL     1      -4.156   5.927 132.604  0.00  0.00    +0.000 C 
ATOM      2  C   UNL     1      -3.372   6.589 131.485  0.00  0.00    +0.000 C 
ATOM      3  O   UNL     1      -3.645   7.600 130.934  0.00  0.00    +0.000 OA
ATOM      4  N   UNL     1      -2.063   6.116 131.942  0.00  0.00    +0.000 N 
ATOM      5  C   UNL     1      -1.758   6.830 133.042  0.00  0.00    +0.000 A 
ATOM      6  C   UNL     1      -0.345   7.182 132.927  0.00  0.00    +0.000 A 
ATOM      7  C   UNL     1       0.164   8.362 133.330  0.00  0.00    +0.000 A 
ATOM      8  C   UNL     1      -0.884   9.186 133.665  0.00  0.00    +0.000 A 
ATOM      9  C   UNL     1      -2.447   8.651 133.725  0.00  0.00    +0.000 A 
ATOM     10  C   UNL     1      -2.998   7.193 133.571  0.00  0.00    +0.000 A 
ATOM     11  H   UNL     1      -2.120   5.309 132.550  0.00  0.00    +0.000 HD
ENDROOT
BRANCH   1  15
ATOM     12  C   UNL     1      -4.274   1.459 130.891  0.00  0.00    +0.000 A 
ATOM     13  C   UNL     1      -4.376   2.583 130.074  0.00  0.00    +0.000 A 
ATOM     14  C   UNL     1      -3.959   3.897 130.492  0.00  0.00    +0.000 A 
ATOM     15  C   UNL     1      -3.759   4.241 131.850  0.00  0.00    +0.000 A 
ATOM     16  C   UNL     1      -3.603   3.013 132.651  0.00  0.00    +0.000 A 
ATOM     17  C   UNL     1      -3.774   1.664 132.159  0.00  0.00    +0.000 A 
BRANCH  12  18
ATOM     18  O   UNL     1      -4.576   0.172 130.346  0.00  0.00    +0.000 OA
BRANCH  18  20
ATOM     19  C   UNL     1      -6.936  -0.222 130.797  0.00  0.00    +0.000 C 
ATOM     20  C   UNL     1      -5.503  -0.680 130.972  0.00  0.00    +0.000 C 
ATOM     21  O   UNL     1      -5.218  -1.687 131.609  0.00  0.00    +0.000 OA
ENDBRANCH  18  20
ENDBRANCH  12  18
ENDBRANCH   1  15
BRANCH   1  22
ATOM     22  C   UNL     1      -5.824   5.864 132.269  0.00  0.00    +0.000 A 
ATOM     23  C   UNL     1      -6.729   5.498 133.264  0.00  0.00    +0.000 A 
ATOM     24  C   UNL     1      -8.146   5.639 133.184  0.00  0.00    +0.000 A 
ATOM     25  C   UNL     1      -8.764   6.315 132.142  0.00  0.00    +0.000 A 
ATOM     26  C   UNL     1      -7.947   6.776 131.133  0.00  0.00    +0.000 A 
ATOM     27  C   UNL     1      -6.520   6.575 131.186  0.00  0.00    +0.000 A 
BRANCH  25  28
ATOM     28  O   UNL     1     -10.191   6.470 132.231  0.00  0.00    +0.000 OA
BRANCH  28  29
ATOM     29  C   UNL     1     -11.349   6.139 131.497  0.00  0.00    +0.000 C 
ATOM     30  C   UNL     1     -11.195   5.118 130.417  0.00  0.00    +0.000 C 
ATOM     31  O   UNL     1     -12.444   6.641 131.747  0.00  0.00    +0.000 OA
ENDBRANCH  28  29
ENDBRANCH  25  28
ENDBRANCH   1  22
TORSDOF 6
ENDMDL
MODEL 9
REMARK VINA RESULT:      -8.3      6.453      8.971
REMARK  Name = Oxyphenisatin acetate
REMARK  8 active torsions:
REMARK  status: ('A' for Active; 'I' for Inactive)
REMARK    1  A    between atoms: C_1  and  C_2
REMARK    2  A    between atoms: C_2  and  O_4
REMARK    3  A    between atoms: O_4  and  C_5
REMARK    4  A    between atoms: C_8  and  C_11
REMARK    5  A    between atoms: C_11  and  C_21
REMARK    6  A    between atoms: C_24  and  O_25
REMARK    7  A    between atoms: O_25  and  C_26
REMARK    8  A    between atoms: C_26  and  C_27
REMARK                            x       y       z     vdW  Elec       q    Type
REMARK                         _______ _______ _______ _____ _____    ______ ____
ROOT
ATOM      1  C   UNL     1      -6.272  -1.851 131.114  0.00  0.00    +0.000 C 
ATOM      2  C   UNL     1      -6.683  -2.629 132.351  0.00  0.00    +0.000 C 
ATOM      3  O   UNL     1      -6.981  -3.774 132.398  0.00  0.00    +0.000 OA
ATOM      4  N   UNL     1      -5.848  -1.859 133.276  0.00  0.00    +0.000 N 
ATOM      5  C   UNL     1      -4.575  -2.230 133.047  0.00  0.00    +0.000 A 
ATOM      6  C   UNL     1      -3.943  -2.370 134.356  0.00  0.00    +0.000 A 
ATOM      7  C   UNL     1      -3.036  -3.322 134.647  0.00  0.00    +0.000 A 
ATOM      8  C   UNL     1      -2.982  -4.197 133.588  0.00  0.00    +0.000 A 
ATOM      9  C   UNL     1      -3.779  -3.919 132.167  0.00  0.00    +0.000 A 
ATOM     10  C   UNL     1      -4.573  -2.647 131.714  0.00  0.00    +0.000 A 
ATOM     11  H   UNL     1      -5.589  -0.949 132.917  0.00  0.00    +0.000 HD
ENDROOT
BRANCH   1  15
ATOM     12  C   UNL     1      -8.856   2.141 131.657  0.00  0.00    +0.000 A 
ATOM     13  C   UNL     1      -9.409   0.866 131.757  0.00  0.00    +0.000 A 
ATOM     14  C   UNL     1      -8.617  -0.315 131.988  0.00  0.00    +0.000 A 
ATOM     15  C   UNL     1      -7.219  -0.354 131.772  0.00  0.00    +0.000 A 
ATOM     16  C   UNL     1      -6.688   1.020 131.732  0.00  0.00    +0.000 A 
ATOM     17  C   UNL     1      -7.484   2.227 131.760  0.00  0.00    +0.000 A 
BRANCH  12  18
ATOM     18  O   UNL     1      -9.726   3.273 131.573  0.00  0.00    +0.000 OA
BRANCH  18  20
ATOM     19  C   UNL     1     -11.151   4.886 130.435  0.00  0.00    +0.000 C 
ATOM     20  C   UNL     1     -10.075   3.826 130.328  0.00  0.00    +0.000 C 
ATOM     21  O   UNL     1      -9.588   3.503 129.251  0.00  0.00    +0.000 OA
ENDBRANCH  18  20
ENDBRANCH  12  18
ENDBRANCH   1  15
BRANCH   1  22
ATOM     22  C   UNL     1      -7.316  -2.136 129.800  0.00  0.00    +0.000 A 
ATOM     23  C   UNL     1      -7.119  -1.477 128.588  0.00  0.00    +0.000 A 
ATOM     24  C   UNL     1      -7.761  -1.802 127.356  0.00  0.00    +0.000 A 
ATOM     25  C   UNL     1      -8.549  -2.934 127.210  0.00  0.00    +0.000 A 
ATOM     26  C   UNL     1      -8.755  -3.695 128.340  0.00  0.00    +0.000 A 
ATOM     27  C   UNL     1      -8.155  -3.327 129.599  0.00  0.00    +0.000 A 
BRANCH  25  28
ATOM     28  O   UNL     1      -9.060  -3.199 125.892  0.00  0.00    +0.000 OA
BRANCH  28  29
ATOM     29  C   UNL     1      -8.579  -3.509 124.603  0.00  0.00    +0.000 C 
ATOM     30  C   UNL     1      -9.497  -3.236 123.457  0.00  0.00    +0.000 C 
ATOM     31  O   UNL     1      -7.448  -3.958 124.420  0.00  0.00    +0.000 OA
ENDBRANCH  28  29
ENDBRANCH  25  28
ENDBRANCH   1  22
TORSDOF 6
ENDMDL
