MODEL 1
REMARK VINA RESULT:      -7.2      0.000      0.000
REMARK  Name = Oxyphenonium
REMARK  13 active torsions:
REMARK  status: ('A' for Active; 'I' for Inactive)
REMARK    1  A    between atoms: C_1  and  C_2
REMARK    2  A    between atoms: C_2  and  N_3
REMARK    3  A    between atoms: N_3  and  C_4
REMARK    4  A    between atoms: N_3  and  C_5
REMARK    5  A    between atoms: N_3  and  C_7
REMARK    6  A    between atoms: C_5  and  C_6
REMARK    7  A    between atoms: C_7  and  C_8
REMARK    8  A    between atoms: C_8  and  O_9
REMARK    9  A    between atoms: O_9  and  C_10
REMARK   10  A    between atoms: C_10  and  C_12
REMARK   11  A    between atoms: C_12  and  O_13
REMARK   12  A    between atoms: C_12  and  C_14
REMARK   13  A    between atoms: C_12  and  C_20
REMARK                            x       y       z     vdW  Elec       q    Type
REMARK                         _______ _______ _______ _____ _____    ______ ____
ROOT
ATOM      1  C   UNL     1      -8.563  -1.708 125.300  0.00  0.00    +0.000 C 
ENDROOT
BRANCH   1   2
ATOM      2  C   UNL     1      -7.220  -1.821 124.506  0.00  0.00    +0.000 C 
ATOM      3  C   UNL     1      -6.212  -2.778 125.149  0.00  0.00    +0.000 C 
ATOM      4  C   UNL     1      -4.885  -2.757 124.411  0.00  0.00    +0.000 C 
ATOM      5  C   UNL     1      -5.078  -3.080 122.938  0.00  0.00    +0.000 C 
ATOM      6  C   UNL     1      -6.058  -2.112 122.278  0.00  0.00    +0.000 C 
ATOM      7  C   UNL     1      -7.401  -2.111 123.000  0.00  0.00    +0.000 C 
ENDBRANCH   1   2
BRANCH   1   8
ATOM      8  C   UNL     1      -8.463  -2.261 126.721  0.00  0.00    +0.000 A 
ATOM      9  C   UNL     1      -7.849  -1.584 127.788  0.00  0.00    +0.000 A 
ATOM     10  C   UNL     1      -7.742  -2.175 129.043  0.00  0.00    +0.000 A 
ATOM     11  C   UNL     1      -8.358  -3.396 129.287  0.00  0.00    +0.000 A 
ATOM     12  C   UNL     1      -9.009  -4.067 128.258  0.00  0.00    +0.000 A 
ATOM     13  C   UNL     1      -9.036  -3.519 126.982  0.00  0.00    +0.000 A 
ENDBRANCH   1   8
BRANCH   1  14
ATOM     14  C   UNL     1      -9.095  -0.251 125.351  0.00  0.00    +0.000 C 
ATOM     15  O   UNL     1     -10.239   0.101 125.578  0.00  0.00    +0.000 OA
BRANCH  14  16
ATOM     16  O   UNL     1      -8.079   0.651 125.095  0.00  0.00    +0.000 OA
BRANCH  16  17
ATOM     17  C   UNL     1      -8.341   1.334 123.870  0.00  0.00    +0.000 C 
BRANCH  17  18
ATOM     18  C   UNL     1      -7.049   1.635 123.103  0.00  0.00    +0.000 C 
BRANCH  18  19
ATOM     19  N   UNL     1      -7.015   3.097 122.500  0.00  0.00    +0.000 N 
ATOM     20  C   UNL     1      -8.395   3.383 121.900  0.00  0.00    +0.000 C 
BRANCH  19  22
ATOM     21  C   UNL     1      -5.523   3.688 124.532  0.00  0.00    +0.000 C 
ATOM     22  C   UNL     1      -6.738   4.054 123.691  0.00  0.00    +0.000 C 
ENDBRANCH  19  22
BRANCH  19  23
ATOM     23  C   UNL     1      -5.891   3.140 121.438  0.00  0.00    +0.000 C 
ATOM     24  C   UNL     1      -6.077   4.147 120.322  0.00  0.00    +0.000 C 
ENDBRANCH  19  23
ENDBRANCH  18  19
ENDBRANCH  17  18
ENDBRANCH  16  17
ENDBRANCH  14  16
ENDBRANCH   1  14
BRANCH   1  25
ATOM     25  O   UNL     1      -9.580  -2.507 124.658  0.00  0.00    +0.000 OA
ATOM     26  H   UNL     1     -10.083  -1.941 124.049  0.00  0.00    +0.000 HD
ENDBRANCH   1  25
TORSDOF 10
ENDMDL
MODEL 2
REMARK VINA RESULT:      -7.2      2.046      6.969
REMARK  Name = Oxyphenonium
REMARK  13 active torsions:
REMARK  status: ('A' for Active; 'I' for Inactive)
REMARK    1  A    between atoms: C_1  and  C_2
REMARK    2  A    between atoms: C_2  and  N_3
REMARK    3  A    between atoms: N_3  and  C_4
REMARK    4  A    between atoms: N_3  and  C_5
REMARK    5  A    between atoms: N_3  and  C_7
REMARK    6  A    between atoms: C_5  and  C_6
REMARK    7  A    between atoms: C_7  and  C_8
REMARK    8  A    between atoms: C_8  and  O_9
REMARK    9  A    between atoms: O_9  and  C_10
REMARK   10  A    between atoms: C_10  and  C_12
REMARK   11  A    between atoms: C_12  and  O_13
REMARK   12  A    between atoms: C_12  and  C_14
REMARK   13  A    between atoms: C_12  and  C_20
REMARK                            x       y       z     vdW  Elec       q    Type
REMARK                         _______ _______ _______ _____ _____    ______ ____
ROOT
ATOM      1  C   UNL     1      -7.582   2.950 123.796  0.00  0.00    +0.000 C 
ENDROOT
BRANCH   1   2
ATOM      2  C   UNL     1      -6.253   2.683 124.575  0.00  0.00    +0.000 C 
ATOM      3  C   UNL     1      -5.659   3.942 125.214  0.00  0.00    +0.000 C 
ATOM      4  C   UNL     1      -4.311   3.653 125.850  0.00  0.00    +0.000 C 
ATOM      5  C   UNL     1      -4.421   2.527 126.867  0.00  0.00    +0.000 C 
ATOM      6  C   UNL     1      -4.981   1.256 126.232  0.00  0.00    +0.000 C 
ATOM      7  C   UNL     1      -6.336   1.516 125.584  0.00  0.00    +0.000 C 
ENDBRANCH   1   2
BRANCH   1   8
ATOM      8  C   UNL     1      -7.351   3.355 122.341  0.00  0.00    +0.000 A 
ATOM      9  C   UNL     1      -6.081   3.495 121.755  0.00  0.00    +0.000 A 
ATOM     10  C   UNL     1      -5.944   3.926 120.440  0.00  0.00    +0.000 A 
ATOM     11  C   UNL     1      -7.072   4.102 119.649  0.00  0.00    +0.000 A 
ATOM     12  C   UNL     1      -8.340   3.930 120.193  0.00  0.00    +0.000 A 
ATOM     13  C   UNL     1      -8.478   3.588 121.532  0.00  0.00    +0.000 A 
ENDBRANCH   1   8
BRANCH   1  14
ATOM     14  C   UNL     1      -8.546   1.735 123.845  0.00  0.00    +0.000 C 
ATOM     15  O   UNL     1      -9.632   1.686 124.395  0.00  0.00    +0.000 OA
BRANCH  14  16
ATOM     16  O   UNL     1      -8.012   0.657 123.163  0.00  0.00    +0.000 OA
BRANCH  16  17
ATOM     17  C   UNL     1      -8.784  -0.512 123.433  0.00  0.00    +0.000 C 
BRANCH  17  18
ATOM     18  C   UNL     1      -7.928  -1.781 123.369  0.00  0.00    +0.000 C 
BRANCH  18  19
ATOM     19  N   UNL     1      -7.684  -2.434 124.789  0.00  0.00    +0.000 N 
ATOM     20  C   UNL     1      -8.180  -3.882 124.724  0.00  0.00    +0.000 C 
BRANCH  19  22
ATOM     21  C   UNL     1      -5.307  -2.548 123.766  0.00  0.00    +0.000 C 
ATOM     22  C   UNL     1      -6.149  -2.402 125.026  0.00  0.00    +0.000 C 
ENDBRANCH  19  22
BRANCH  19  23
ATOM     23  C   UNL     1      -8.457  -1.594 125.832  0.00  0.00    +0.000 C 
ATOM     24  C   UNL     1      -7.948  -1.678 127.255  0.00  0.00    +0.000 C 
ENDBRANCH  19  23
ENDBRANCH  18  19
ENDBRANCH  17  18
ENDBRANCH  16  17
ENDBRANCH  14  16
ENDBRANCH   1  14
BRANCH   1  25
ATOM     25  O   UNL     1      -8.282   4.066 124.389  0.00  0.00    +0.000 OA
ATOM     26  H   UNL     1      -7.680   4.827 124.428  0.00  0.00    +0.000 HD
ENDBRANCH   1  25
TORSDOF 10
ENDMDL
MODEL 3
REMARK VINA RESULT:      -7.0      1.120      1.453
REMARK  Name = Oxyphenonium
REMARK  13 active torsions:
REMARK  status: ('A' for Active; 'I' for Inactive)
REMARK    1  A    between atoms: C_1  and  C_2
REMARK    2  A    between atoms: C_2  and  N_3
REMARK    3  A    between atoms: N_3  and  C_4
REMARK    4  A    between atoms: N_3  and  C_5
REMARK    5  A    between atoms: N_3  and  C_7
REMARK    6  A    between atoms: C_5  and  C_6
REMARK    7  A    between atoms: C_7  and  C_8
REMARK    8  A    between atoms: C_8  and  O_9
REMARK    9  A    between atoms: O_9  and  C_10
REMARK   10  A    between atoms: C_10  and  C_12
REMARK   11  A    between atoms: C_12  and  O_13
REMARK   12  A    between atoms: C_12  and  C_14
REMARK   13  A    between atoms: C_12  and  C_20
REMARK                            x       y       z     vdW  Elec       q    Type
REMARK                         _______ _______ _______ _____ _____    ______ ____
ROOT
ATOM      1  C   UNL     1      -8.562  -1.599 125.194  0.00  0.00    +0.000 C 
ENDROOT
BRANCH   1   2
ATOM      2  C   UNL     1      -7.230  -1.744 124.387  0.00  0.00    +0.000 C 
ATOM      3  C   UNL     1      -6.199  -2.646 125.074  0.00  0.00    +0.000 C 
ATOM      4  C   UNL     1      -4.884  -2.655 124.315  0.00  0.00    +0.000 C 
ATOM      5  C   UNL     1      -5.095  -3.073 122.868  0.00  0.00    +0.000 C 
ATOM      6  C   UNL     1      -6.097  -2.160 122.164  0.00  0.00    +0.000 C 
ATOM      7  C   UNL     1      -7.429  -2.131 122.905  0.00  0.00    +0.000 C 
ENDBRANCH   1   2
BRANCH   1   8
ATOM      8  C   UNL     1      -8.472  -2.178 126.605  0.00  0.00    +0.000 A 
ATOM      9  C   UNL     1      -7.885  -1.511 127.694  0.00  0.00    +0.000 A 
ATOM     10  C   UNL     1      -7.785  -2.125 128.938  0.00  0.00    +0.000 A 
ATOM     11  C   UNL     1      -8.379  -3.362 129.149  0.00  0.00    +0.000 A 
ATOM     12  C   UNL     1      -9.003  -4.025 128.098  0.00  0.00    +0.000 A 
ATOM     13  C   UNL     1      -9.023  -3.452 126.833  0.00  0.00    +0.000 A 
ENDBRANCH   1   8
BRANCH   1  14
ATOM     14  C   UNL     1      -9.043  -0.126 125.272  0.00  0.00    +0.000 C 
ATOM     15  O   UNL     1     -10.136   0.267 125.643  0.00  0.00    +0.000 OA
BRANCH  14  16
ATOM     16  O   UNL     1      -8.049   0.738 124.853  0.00  0.00    +0.000 OA
BRANCH  16  17
ATOM     17  C   UNL     1      -7.995   1.867 125.725  0.00  0.00    +0.000 C 
BRANCH  17  18
ATOM     18  C   UNL     1      -7.938   3.183 124.942  0.00  0.00    +0.000 C 
BRANCH  18  19
ATOM     19  N   UNL     1      -6.460   3.664 124.647  0.00  0.00    +0.000 N 
ATOM     20  C   UNL     1      -6.352   5.126 125.094  0.00  0.00    +0.000 C 
BRANCH  19  22
ATOM     21  C   UNL     1      -4.444   3.522 126.267  0.00  0.00    +0.000 C 
ATOM     22  C   UNL     1      -5.530   2.768 125.511  0.00  0.00    +0.000 C 
ENDBRANCH  19  22
BRANCH  19  23
ATOM     23  C   UNL     1      -6.203   3.491 123.133  0.00  0.00    +0.000 C 
ATOM     24  C   UNL     1      -5.262   4.497 122.504  0.00  0.00    +0.000 C 
ENDBRANCH  19  23
ENDBRANCH  18  19
ENDBRANCH  17  18
ENDBRANCH  16  17
ENDBRANCH  14  16
ENDBRANCH   1  14
BRANCH   1  25
ATOM     25  O   UNL     1      -9.611  -2.351 124.547  0.00  0.00    +0.000 OA
ATOM     26  H   UNL     1      -9.212  -2.941 123.887  0.00  0.00    +0.000 HD
ENDBRANCH   1  25
TORSDOF 10
ENDMDL
MODEL 4
REMARK VINA RESULT:      -6.8      7.041      9.406
REMARK  Name = Oxyphenonium
REMARK  13 active torsions:
REMARK  status: ('A' for Active; 'I' for Inactive)
REMARK    1  A    between atoms: C_1  and  C_2
REMARK    2  A    between atoms: C_2  and  N_3
REMARK    3  A    between atoms: N_3  and  C_4
REMARK    4  A    between atoms: N_3  and  C_5
REMARK    5  A    between atoms: N_3  and  C_7
REMARK    6  A    between atoms: C_5  and  C_6
REMARK    7  A    between atoms: C_7  and  C_8
REMARK    8  A    between atoms: C_8  and  O_9
REMARK    9  A    between atoms: O_9  and  C_10
REMARK   10  A    between atoms: C_10  and  C_12
REMARK   11  A    between atoms: C_12  and  O_13
REMARK   12  A    between atoms: C_12  and  C_14
REMARK   13  A    between atoms: C_12  and  C_20
REMARK                            x       y       z     vdW  Elec       q    Type
REMARK                         _______ _______ _______ _____ _____    ______ ____
ROOT
ATOM      1  C   UNL     1      -8.861   6.001 130.448  0.00  0.00    +0.000 C 
ENDROOT
BRANCH   1   2
ATOM      2  C   UNL     1     -10.294   6.522 130.101  0.00  0.00    +0.000 C 
ATOM      3  C   UNL     1     -11.206   6.654 131.324  0.00  0.00    +0.000 C 
ATOM      4  C   UNL     1     -12.617   7.043 130.920  0.00  0.00    +0.000 C 
ATOM      5  C   UNL     1     -12.614   8.326 130.104  0.00  0.00    +0.000 C 
ATOM      6  C   UNL     1     -11.733   8.195 128.863  0.00  0.00    +0.000 C 
ATOM      7  C   UNL     1     -10.308   7.804 129.239  0.00  0.00    +0.000 C 
ENDBRANCH   1   2
BRANCH   1   8
ATOM      8  C   UNL     1      -8.808   5.237 131.770  0.00  0.00    +0.000 A 
ATOM      9  C   UNL     1      -9.260   3.916 131.934  0.00  0.00    +0.000 A 
ATOM     10  C   UNL     1      -9.236   3.303 133.183  0.00  0.00    +0.000 A 
ATOM     11  C   UNL     1      -8.645   3.950 134.260  0.00  0.00    +0.000 A 
ATOM     12  C   UNL     1      -8.152   5.242 134.113  0.00  0.00    +0.000 A 
ATOM     13  C   UNL     1      -8.259   5.889 132.889  0.00  0.00    +0.000 A 
ENDBRANCH   1   8
BRANCH   1  14
ATOM     14  C   UNL     1      -8.268   5.117 129.318  0.00  0.00    +0.000 C 
ATOM     15  O   UNL     1      -8.890   4.513 128.461  0.00  0.00    +0.000 OA
BRANCH  14  16
ATOM     16  O   UNL     1      -6.888   5.086 129.393  0.00  0.00    +0.000 OA
BRANCH  16  17
ATOM     17  C   UNL     1      -6.397   3.929 128.717  0.00  0.00    +0.000 C 
BRANCH  17  18
ATOM     18  C   UNL     1      -5.350   4.294 127.660  0.00  0.00    +0.000 C 
BRANCH  18  19
ATOM     19  N   UNL     1      -3.902   3.768 128.016  0.00  0.00    +0.000 N 
ATOM     20  C   UNL     1      -4.060   2.625 129.025  0.00  0.00    +0.000 C 
BRANCH  19  22
ATOM     21  C   UNL     1      -1.777   3.100 126.695  0.00  0.00    +0.000 C 
ATOM     22  C   UNL     1      -3.293   3.234 126.690  0.00  0.00    +0.000 C 
ENDBRANCH  19  22
BRANCH  19  23
ATOM     23  C   UNL     1      -3.100   4.956 128.595  0.00  0.00    +0.000 C 
ATOM     24  C   UNL     1      -3.394   6.310 127.983  0.00  0.00    +0.000 C 
ENDBRANCH  19  23
ENDBRANCH  18  19
ENDBRANCH  17  18
ENDBRANCH  16  17
ENDBRANCH  14  16
ENDBRANCH   1  14
BRANCH   1  25
ATOM     25  O   UNL     1      -7.963   7.118 130.625  0.00  0.00    +0.000 OA
ATOM     26  H   UNL     1      -7.110   6.785 130.948  0.00  0.00    +0.000 HD
ENDBRANCH   1  25
TORSDOF 10
ENDMDL
MODEL 5
REMARK VINA RESULT:      -6.8      1.795      2.326
REMARK  Name = Oxyphenonium
REMARK  13 active torsions:
REMARK  status: ('A' for Active; 'I' for Inactive)
REMARK    1  A    between atoms: C_1  and  C_2
REMARK    2  A    between atoms: C_2  and  N_3
REMARK    3  A    between atoms: N_3  and  C_4
REMARK    4  A    between atoms: N_3  and  C_5
REMARK    5  A    between atoms: N_3  and  C_7
REMARK    6  A    between atoms: C_5  and  C_6
REMARK    7  A    between atoms: C_7  and  C_8
REMARK    8  A    between atoms: C_8  and  O_9
REMARK    9  A    between atoms: O_9  and  C_10
REMARK   10  A    between atoms: C_10  and  C_12
REMARK   11  A    between atoms: C_12  and  O_13
REMARK   12  A    between atoms: C_12  and  C_14
REMARK   13  A    between atoms: C_12  and  C_20
REMARK                            x       y       z     vdW  Elec       q    Type
REMARK                         _______ _______ _______ _____ _____    ______ ____
ROOT
ATOM      1  C   UNL     1      -8.527  -1.536 125.242  0.00  0.00    +0.000 C 
ENDROOT
BRANCH   1   2
ATOM      2  C   UNL     1      -7.195  -1.681 124.436  0.00  0.00    +0.000 C 
ATOM      3  C   UNL     1      -6.188  -2.632 125.092  0.00  0.00    +0.000 C 
ATOM      4  C   UNL     1      -4.870  -2.642 124.340  0.00  0.00    +0.000 C 
ATOM      5  C   UNL     1      -5.082  -3.001 122.877  0.00  0.00    +0.000 C 
ATOM      6  C   UNL     1      -6.059  -2.039 122.204  0.00  0.00    +0.000 C 
ATOM      7  C   UNL     1      -7.395  -2.007 122.940  0.00  0.00    +0.000 C 
ENDBRANCH   1   2
BRANCH   1   8
ATOM      8  C   UNL     1      -8.446  -2.139 126.643  0.00  0.00    +0.000 A 
ATOM      9  C   UNL     1      -7.837  -1.505 127.739  0.00  0.00    +0.000 A 
ATOM     10  C   UNL     1      -7.748  -2.140 128.974  0.00  0.00    +0.000 A 
ATOM     11  C   UNL     1      -8.375  -3.363 129.169  0.00  0.00    +0.000 A 
ATOM     12  C   UNL     1      -9.021  -3.993 128.111  0.00  0.00    +0.000 A 
ATOM     13  C   UNL     1      -9.032  -3.400 126.854  0.00  0.00    +0.000 A 
ENDBRANCH   1   8
BRANCH   1  14
ATOM     14  C   UNL     1      -8.994  -0.059 125.343  0.00  0.00    +0.000 C 
ATOM     15  O   UNL     1     -10.074   0.340 125.743  0.00  0.00    +0.000 OA
BRANCH  14  16
ATOM     16  O   UNL     1      -8.002   0.800 124.906  0.00  0.00    +0.000 OA
BRANCH  16  17
ATOM     17  C   UNL     1      -7.498   1.552 126.010  0.00  0.00    +0.000 C 
BRANCH  17  18
ATOM     18  C   UNL     1      -5.968   1.618 125.997  0.00  0.00    +0.000 C 
BRANCH  18  19
ATOM     19  N   UNL     1      -5.406   3.018 126.473  0.00  0.00    +0.000 N 
ATOM     20  C   UNL     1      -6.517   3.719 127.261  0.00  0.00    +0.000 C 
BRANCH  19  22
ATOM     21  C   UNL     1      -2.835   2.976 126.783  0.00  0.00    +0.000 C 
ATOM     22  C   UNL     1      -4.200   2.711 127.403  0.00  0.00    +0.000 C 
ENDBRANCH  19  22
BRANCH  19  23
ATOM     23  C   UNL     1      -4.989   3.810 125.212  0.00  0.00    +0.000 C 
ATOM     24  C   UNL     1      -6.053   4.707 124.615  0.00  0.00    +0.000 C 
ENDBRANCH  19  23
ENDBRANCH  18  19
ENDBRANCH  17  18
ENDBRANCH  16  17
ENDBRANCH  14  16
ENDBRANCH   1  14
BRANCH   1  25
ATOM     25  O   UNL     1      -9.582  -2.266 124.579  0.00  0.00    +0.000 OA
ATOM     26  H   UNL     1     -10.229  -2.552 125.244  0.00  0.00    +0.000 HD
ENDBRANCH   1  25
TORSDOF 10
ENDMDL
MODEL 6
REMARK VINA RESULT:      -6.8      1.980      2.761
REMARK  Name = Oxyphenonium
REMARK  13 active torsions:
REMARK  status: ('A' for Active; 'I' for Inactive)
REMARK    1  A    between atoms: C_1  and  C_2
REMARK    2  A    between atoms: C_2  and  N_3
REMARK    3  A    between atoms: N_3  and  C_4
REMARK    4  A    between atoms: N_3  and  C_5
REMARK    5  A    between atoms: N_3  and  C_7
REMARK    6  A    between atoms: C_5  and  C_6
REMARK    7  A    between atoms: C_7  and  C_8
REMARK    8  A    between atoms: C_8  and  O_9
REMARK    9  A    between atoms: O_9  and  C_10
REMARK   10  A    between atoms: C_10  and  C_12
REMARK   11  A    between atoms: C_12  and  O_13
REMARK   12  A    between atoms: C_12  and  C_14
REMARK   13  A    between atoms: C_12  and  C_20
REMARK                            x       y       z     vdW  Elec       q    Type
REMARK                         _______ _______ _______ _____ _____    ______ ____
ROOT
ATOM      1  C   UNL     1      -8.607  -1.649 125.197  0.00  0.00    +0.000 C 
ENDROOT
BRANCH   1   2
ATOM      2  C   UNL     1      -7.267  -1.746 124.397  0.00  0.00    +0.000 C 
ATOM      3  C   UNL     1      -6.259  -2.719 125.016  0.00  0.00    +0.000 C 
ATOM      4  C   UNL     1      -4.933  -2.684 124.276  0.00  0.00    +0.000 C 
ATOM      5  C   UNL     1      -5.130  -2.972 122.796  0.00  0.00    +0.000 C 
ATOM      6  C   UNL     1      -6.108  -1.986 122.161  0.00  0.00    +0.000 C 
ATOM      7  C   UNL     1      -7.450  -2.000 122.885  0.00  0.00    +0.000 C 
ENDBRANCH   1   2
BRANCH   1   8
ATOM      8  C   UNL     1      -8.491  -2.182 126.624  0.00  0.00    +0.000 A 
ATOM      9  C   UNL     1      -7.872  -1.486 127.676  0.00  0.00    +0.000 A 
ATOM     10  C   UNL     1      -7.750  -2.059 128.938  0.00  0.00    +0.000 A 
ATOM     11  C   UNL     1      -8.354  -3.281 129.204  0.00  0.00    +0.000 A 
ATOM     12  C   UNL     1      -9.008  -3.971 128.190  0.00  0.00    +0.000 A 
ATOM     13  C   UNL     1      -9.052  -3.441 126.907  0.00  0.00    +0.000 A 
ENDBRANCH   1   8
BRANCH   1  14
ATOM     14  C   UNL     1      -9.167  -0.202 125.231  0.00  0.00    +0.000 C 
ATOM     15  O   UNL     1     -10.251   0.151 125.663  0.00  0.00    +0.000 OA
BRANCH  14  16
ATOM     16  O   UNL     1      -8.259   0.688 124.689  0.00  0.00    +0.000 OA
BRANCH  16  17
ATOM     17  C   UNL     1      -8.294   1.914 125.420  0.00  0.00    +0.000 C 
BRANCH  17  18
ATOM     18  C   UNL     1      -6.939   2.627 125.392  0.00  0.00    +0.000 C 
BRANCH  18  19
ATOM     19  N   UNL     1      -6.271   2.744 126.822  0.00  0.00    +0.000 N 
ATOM     20  C   UNL     1      -6.057   4.233 127.111  0.00  0.00    +0.000 C 
BRANCH  19  22
ATOM     21  C   UNL     1      -6.771   2.006 129.253  0.00  0.00    +0.000 C 
ATOM     22  C   UNL     1      -7.289   2.141 127.829  0.00  0.00    +0.000 C 
ENDBRANCH  19  22
BRANCH  19  23
ATOM     23  C   UNL     1      -4.942   1.954 126.785  0.00  0.00    +0.000 C 
ATOM     24  C   UNL     1      -5.037   0.527 126.287  0.00  0.00    +0.000 C 
ENDBRANCH  19  23
ENDBRANCH  18  19
ENDBRANCH  17  18
ENDBRANCH  16  17
ENDBRANCH  14  16
ENDBRANCH   1  14
BRANCH   1  25
ATOM     25  O   UNL     1      -9.612  -2.475 124.569  0.00  0.00    +0.000 OA
ATOM     26  H   UNL     1     -10.488  -2.113 124.776  0.00  0.00    +0.000 HD
ENDBRANCH   1  25
TORSDOF 10
ENDMDL
MODEL 7
REMARK VINA RESULT:      -6.4      8.341     10.099
REMARK  Name = Oxyphenonium
REMARK  13 active torsions:
REMARK  status: ('A' for Active; 'I' for Inactive)
REMARK    1  A    between atoms: C_1  and  C_2
REMARK    2  A    between atoms: C_2  and  N_3
REMARK    3  A    between atoms: N_3  and  C_4
REMARK    4  A    between atoms: N_3  and  C_5
REMARK    5  A    between atoms: N_3  and  C_7
REMARK    6  A    between atoms: C_5  and  C_6
REMARK    7  A    between atoms: C_7  and  C_8
REMARK    8  A    between atoms: C_8  and  O_9
REMARK    9  A    between atoms: O_9  and  C_10
REMARK   10  A    between atoms: C_10  and  C_12
REMARK   11  A    between atoms: C_12  and  O_13
REMARK   12  A    between atoms: C_12  and  C_14
REMARK   13  A    between atoms: C_12  and  C_20
REMARK                            x       y       z     vdW  Elec       q    Type
REMARK                         _______ _______ _______ _____ _____    ______ ____
ROOT
ATOM      1  C   UNL     1      -8.829   4.087 133.383  0.00  0.00    +0.000 C 
ENDROOT
BRANCH   1   2
ATOM      2  C   UNL     1      -8.452   2.772 132.625  0.00  0.00    +0.000 C 
ATOM      3  C   UNL     1      -9.650   1.850 132.375  0.00  0.00    +0.000 C 
ATOM      4  C   UNL     1      -9.213   0.537 131.750  0.00  0.00    +0.000 C 
ATOM      5  C   UNL     1      -8.436   0.780 130.465  0.00  0.00    +0.000 C 
ATOM      6  C   UNL     1      -7.220   1.672 130.709  0.00  0.00    +0.000 C 
ATOM      7  C   UNL     1      -7.629   2.999 131.338  0.00  0.00    +0.000 C 
ENDBRANCH   1   2
BRANCH   1   8
ATOM      8  C   UNL     1      -7.835   4.446 134.485  0.00  0.00    +0.000 A 
ATOM      9  C   UNL     1      -8.029   5.482 135.414  0.00  0.00    +0.000 A 
ATOM     10  C   UNL     1      -7.052   5.792 136.355  0.00  0.00    +0.000 A 
ATOM     11  C   UNL     1      -5.922   4.994 136.466  0.00  0.00    +0.000 A 
ATOM     12  C   UNL     1      -5.725   3.936 135.585  0.00  0.00    +0.000 A 
ATOM     13  C   UNL     1      -6.657   3.683 134.587  0.00  0.00    +0.000 A 
ENDBRANCH   1   8
BRANCH   1  14
ATOM     14  C   UNL     1      -8.990   5.294 132.420  0.00  0.00    +0.000 C 
ATOM     15  O   UNL     1      -8.183   6.187 132.229  0.00  0.00    +0.000 OA
BRANCH  14  16
ATOM     16  O   UNL     1     -10.210   5.245 131.772  0.00  0.00    +0.000 OA
BRANCH  16  17
ATOM     17  C   UNL     1     -10.433   6.472 131.078  0.00  0.00    +0.000 C 
BRANCH  17  18
ATOM     18  C   UNL     1     -11.927   6.793 130.965  0.00  0.00    +0.000 C 
BRANCH  18  19
ATOM     19  N   UNL     1     -12.262   7.763 129.760  0.00  0.00    +0.000 N 
ATOM     20  C   UNL     1     -10.949   8.059 129.027  0.00  0.00    +0.000 C 
BRANCH  19  22
ATOM     21  C   UNL     1     -12.880   7.041 127.351  0.00  0.00    +0.000 C 
ATOM     22  C   UNL     1     -13.233   6.984 128.830  0.00  0.00    +0.000 C 
ENDBRANCH  19  22
BRANCH  19  23
ATOM     23  C   UNL     1     -12.907   9.038 130.350  0.00  0.00    +0.000 C 
ATOM     24  C   UNL     1     -13.234  10.132 129.354  0.00  0.00    +0.000 C 
ENDBRANCH  19  23
ENDBRANCH  18  19
ENDBRANCH  17  18
ENDBRANCH  16  17
ENDBRANCH  14  16
ENDBRANCH   1  14
BRANCH   1  25
ATOM     25  O   UNL     1     -10.094   3.917 134.059  0.00  0.00    +0.000 OA
ATOM     26  H   UNL     1     -10.256   4.693 134.619  0.00  0.00    +0.000 HD
ENDBRANCH   1  25
TORSDOF 10
ENDMDL
MODEL 8
REMARK VINA RESULT:      -6.4      2.536      7.336
REMARK  Name = Oxyphenonium
REMARK  13 active torsions:
REMARK  status: ('A' for Active; 'I' for Inactive)
REMARK    1  A    between atoms: C_1  and  C_2
REMARK    2  A    between atoms: C_2  and  N_3
REMARK    3  A    between atoms: N_3  and  C_4
REMARK    4  A    between atoms: N_3  and  C_5
REMARK    5  A    between atoms: N_3  and  C_7
REMARK    6  A    between atoms: C_5  and  C_6
REMARK    7  A    between atoms: C_7  and  C_8
REMARK    8  A    between atoms: C_8  and  O_9
REMARK    9  A    between atoms: O_9  and  C_10
REMARK   10  A    between atoms: C_10  and  C_12
REMARK   11  A    between atoms: C_12  and  O_13
REMARK   12  A    between atoms: C_12  and  C_14
REMARK   13  A    between atoms: C_12  and  C_20
REMARK                            x       y       z     vdW  Elec       q    Type
REMARK                         _______ _______ _______ _____ _____    ______ ____
ROOT
ATOM      1  C   UNL     1      -6.338   4.050 124.934  0.00  0.00    +0.000 C 
ENDROOT
BRANCH   1   2
ATOM      2  C   UNL     1      -4.967   4.093 125.685  0.00  0.00    +0.000 C 
ATOM      3  C   UNL     1      -4.953   5.064 126.870  0.00  0.00    +0.000 C 
ATOM      4  C   UNL     1      -3.570   5.161 127.487  0.00  0.00    +0.000 C 
ATOM      5  C   UNL     1      -3.064   3.788 127.903  0.00  0.00    +0.000 C 
ATOM      6  C   UNL     1      -3.042   2.821 126.722  0.00  0.00    +0.000 C 
ATOM      7  C   UNL     1      -4.420   2.704 126.081  0.00  0.00    +0.000 C 
ENDBRANCH   1   2
BRANCH   1   8
ATOM      8  C   UNL     1      -6.184   4.026 123.414  0.00  0.00    +0.000 A 
ATOM      9  C   UNL     1      -7.179   3.578 122.529  0.00  0.00    +0.000 A 
ATOM     10  C   UNL     1      -6.948   3.529 121.158  0.00  0.00    +0.000 A 
ATOM     11  C   UNL     1      -5.768   4.044 120.637  0.00  0.00    +0.000 A 
ATOM     12  C   UNL     1      -4.783   4.532 121.489  0.00  0.00    +0.000 A 
ATOM     13  C   UNL     1      -4.978   4.497 122.864  0.00  0.00    +0.000 A 
ENDBRANCH   1   8
BRANCH   1  14
ATOM     14  C   UNL     1      -7.216   2.851 125.382  0.00  0.00    +0.000 C 
ATOM     15  O   UNL     1      -8.129   2.877 126.188  0.00  0.00    +0.000 OA
BRANCH  14  16
ATOM     16  O   UNL     1      -6.829   1.692 124.736  0.00  0.00    +0.000 OA
BRANCH  16  17
ATOM     17  C   UNL     1      -7.752   0.645 125.037  0.00  0.00    +0.000 C 
BRANCH  17  18
ATOM     18  C   UNL     1      -7.033  -0.619 125.521  0.00  0.00    +0.000 C 
BRANCH  18  19
ATOM     19  N   UNL     1      -7.117  -1.813 124.486  0.00  0.00    +0.000 N 
ATOM     20  C   UNL     1      -6.956  -1.220 123.083  0.00  0.00    +0.000 C 
BRANCH  19  22
ATOM     21  C   UNL     1      -5.103  -3.180 123.603  0.00  0.00    +0.000 C 
ATOM     22  C   UNL     1      -5.926  -2.756 124.811  0.00  0.00    +0.000 C 
ENDBRANCH  19  22
BRANCH  19  23
ATOM     23  C   UNL     1      -8.486  -2.505 124.680  0.00  0.00    +0.000 C 
ATOM     24  C   UNL     1      -9.146  -3.026 123.420  0.00  0.00    +0.000 C 
ENDBRANCH  19  23
ENDBRANCH  18  19
ENDBRANCH  17  18
ENDBRANCH  16  17
ENDBRANCH  14  16
ENDBRANCH   1  14
BRANCH   1  25
ATOM     25  O   UNL     1      -7.089   5.251 125.216  0.00  0.00    +0.000 OA
ATOM     26  H   UNL     1      -6.550   5.832 125.778  0.00  0.00    +0.000 HD
ENDBRANCH   1  25
TORSDOF 10
ENDMDL
MODEL 9
REMARK VINA RESULT:      -6.4      2.114      4.338
REMARK  Name = Oxyphenonium
REMARK  13 active torsions:
REMARK  status: ('A' for Active; 'I' for Inactive)
REMARK    1  A    between atoms: C_1  and  C_2
REMARK    2  A    between atoms: C_2  and  N_3
REMARK    3  A    between atoms: N_3  and  C_4
REMARK    4  A    between atoms: N_3  and  C_5
REMARK    5  A    between atoms: N_3  and  C_7
REMARK    6  A    between atoms: C_5  and  C_6
REMARK    7  A    between atoms: C_7  and  C_8
REMARK    8  A    between atoms: C_8  and  O_9
REMARK    9  A    between atoms: O_9  and  C_10
REMARK   10  A    between atoms: C_10  and  C_12
REMARK   11  A    between atoms: C_12  and  O_13
REMARK   12  A    between atoms: C_12  and  C_14
REMARK   13  A    between atoms: C_12  and  C_20
REMARK                            x       y       z     vdW  Elec       q    Type
REMARK                         _______ _______ _______ _____ _____    ______ ____
ROOT
ATOM      1  C   UNL     1      -6.398  -1.203 127.383  0.00  0.00    +0.000 C 
ENDROOT
BRANCH   1   2
ATOM      2  C   UNL     1      -6.052  -2.019 128.670  0.00  0.00    +0.000 C 
ATOM      3  C   UNL     1      -7.170  -2.971 129.106  0.00  0.00    +0.000 C 
ATOM      4  C   UNL     1      -6.837  -3.646 130.425  0.00  0.00    +0.000 C 
ATOM      5  C   UNL     1      -5.505  -4.375 130.340  0.00  0.00    +0.000 C 
ATOM      6  C   UNL     1      -4.376  -3.428 129.938  0.00  0.00    +0.000 C 
ATOM      7  C   UNL     1      -4.684  -2.735 128.615  0.00  0.00    +0.000 C 
ENDBRANCH   1   2
BRANCH   1   8
ATOM      8  C   UNL     1      -7.204  -2.008 126.364  0.00  0.00    +0.000 A 
ATOM      9  C   UNL     1      -8.604  -2.124 126.382  0.00  0.00    +0.000 A 
ATOM     10  C   UNL     1      -9.267  -2.923 125.456  0.00  0.00    +0.000 A 
ATOM     11  C   UNL     1      -8.557  -3.519 124.423  0.00  0.00    +0.000 A 
ATOM     12  C   UNL     1      -7.174  -3.386 124.358  0.00  0.00    +0.000 A 
ATOM     13  C   UNL     1      -6.502  -2.662 125.335  0.00  0.00    +0.000 A 
ENDBRANCH   1   8
BRANCH   1  14
ATOM     14  C   UNL     1      -7.150   0.115 127.708  0.00  0.00    +0.000 C 
ATOM     15  O   UNL     1      -7.856   0.333 128.678  0.00  0.00    +0.000 OA
BRANCH  14  16
ATOM     16  O   UNL     1      -6.924   1.064 126.728  0.00  0.00    +0.000 OA
BRANCH  16  17
ATOM     17  C   UNL     1      -8.123   1.799 126.486  0.00  0.00    +0.000 C 
BRANCH  17  18
ATOM     18  C   UNL     1      -8.850   1.299 125.234  0.00  0.00    +0.000 C 
BRANCH  18  19
ATOM     19  N   UNL     1      -8.207   1.834 123.891  0.00  0.00    +0.000 N 
ATOM     20  C   UNL     1      -7.176   0.799 123.428  0.00  0.00    +0.000 C 
BRANCH  19  22
ATOM     21  C   UNL     1     -10.125   0.634 122.629  0.00  0.00    +0.000 C 
ATOM     22  C   UNL     1      -9.367   1.933 122.862  0.00  0.00    +0.000 C 
ENDBRANCH  19  22
BRANCH  19  23
ATOM     23  C   UNL     1      -7.568   3.209 124.192  0.00  0.00    +0.000 C 
ATOM     24  C   UNL     1      -6.252   3.490 123.497  0.00  0.00    +0.000 C 
ENDBRANCH  19  23
ENDBRANCH  18  19
ENDBRANCH  17  18
ENDBRANCH  16  17
ENDBRANCH  14  16
ENDBRANCH   1  14
BRANCH   1  25
ATOM     25  O   UNL     1      -5.183  -0.836 126.694  0.00  0.00    +0.000 OA
ATOM     26  H   UNL     1      -4.653  -1.636 126.548  0.00  0.00    +0.000 HD
ENDBRANCH   1  25
TORSDOF 10
ENDMDL
