MODEL 1
REMARK VINA RESULT:      -8.1      0.000      0.000
REMARK  Name = Oxyphenbutazone
REMARK  7 active torsions:
REMARK  status: ('A' for Active; 'I' for Inactive)
REMARK    1  A    between atoms: C_1  and  C_2
REMARK    2  A    between atoms: C_2  and  C_3
REMARK    3  A    between atoms: C_3  and  C_4
REMARK    4  A    between atoms: C_4  and  C_5
REMARK    5  A    between atoms: N_8  and  C_19
REMARK    6  A    between atoms: N_9  and  C_12
REMARK    7  A    between atoms: C_15  and  O_16
REMARK                            x       y       z     vdW  Elec       q    Type
REMARK                         _______ _______ _______ _____ _____    ______ ____
ROOT
ATOM      1  C   UNL     1      -6.404   3.968 125.033  0.00  0.00    +0.000 C 
ATOM      2  C   UNL     1      -5.958   4.063 123.584  0.00  0.00    +0.000 C 
ATOM      3  O   UNL     1      -5.199   4.911 123.125  0.00  0.00    +0.000 OA
ATOM      4  N   UNL     1      -6.681   3.088 122.866  0.00  0.00    +0.000 N 
ATOM      5  N   UNL     1      -7.400   2.268 123.770  0.00  0.00    +0.000 N 
ATOM      6  C   UNL     1      -7.069   2.610 125.098  0.00  0.00    +0.000 C 
ATOM      7  O   UNL     1      -7.275   1.975 126.127  0.00  0.00    +0.000 OA
ENDROOT
BRANCH   5   8
ATOM      8  C   UNL     1      -7.767   0.934 123.425  0.00  0.00    +0.000 A 
ATOM      9  C   UNL     1      -6.757  -0.033 123.338  0.00  0.00    +0.000 A 
ATOM     10  C   UNL     1      -7.066  -1.392 123.170  0.00  0.00    +0.000 A 
ATOM     11  C   UNL     1      -8.393  -1.783 123.036  0.00  0.00    +0.000 A 
ATOM     12  C   UNL     1      -9.407  -0.833 123.059  0.00  0.00    +0.000 A 
ATOM     13  C   UNL     1      -9.101   0.522 123.271  0.00  0.00    +0.000 A 
BRANCH  11  14
ATOM     14  O   UNL     1      -8.754  -3.090 122.889  0.00  0.00    +0.000 OA
ATOM     15  H   UNL     1      -8.227  -3.646 123.487  0.00  0.00    +0.000 HD
ENDBRANCH  11  14
ENDBRANCH   5   8
BRANCH   4  16
ATOM     16  C   UNL     1      -7.216   3.467 121.594  0.00  0.00    +0.000 A 
ATOM     17  C   UNL     1      -6.327   3.797 120.564  0.00  0.00    +0.000 A 
ATOM     18  C   UNL     1      -6.793   4.230 119.316  0.00  0.00    +0.000 A 
ATOM     19  C   UNL     1      -8.160   4.300 119.067  0.00  0.00    +0.000 A 
ATOM     20  C   UNL     1      -9.060   3.982 120.083  0.00  0.00    +0.000 A 
ATOM     21  C   UNL     1      -8.594   3.564 121.342  0.00  0.00    +0.000 A 
ENDBRANCH   4  16
BRANCH   1  22
ATOM     22  C   UNL     1      -5.361   4.265 126.120  0.00  0.00    +0.000 C 
BRANCH  22  23
ATOM     23  C   UNL     1      -4.174   3.316 126.050  0.00  0.00    +0.000 C 
BRANCH  23  25
ATOM     24  C   UNL     1      -1.757   3.042 126.464  0.00  0.00    +0.000 C 
ATOM     25  C   UNL     1      -3.026   3.714 126.962  0.00  0.00    +0.000 C 
ENDBRANCH  23  25
ENDBRANCH  22  23
ENDBRANCH   1  22
TORSDOF 6
ENDMDL
MODEL 2
REMARK VINA RESULT:      -7.8      1.473      4.506
REMARK  Name = Oxyphenbutazone
REMARK  7 active torsions:
REMARK  status: ('A' for Active; 'I' for Inactive)
REMARK    1  A    between atoms: C_1  and  C_2
REMARK    2  A    between atoms: C_2  and  C_3
REMARK    3  A    between atoms: C_3  and  C_4
REMARK    4  A    between atoms: C_4  and  C_5
REMARK    5  A    between atoms: N_8  and  C_19
REMARK    6  A    between atoms: N_9  and  C_12
REMARK    7  A    between atoms: C_15  and  O_16
REMARK                            x       y       z     vdW  Elec       q    Type
REMARK                         _______ _______ _______ _____ _____    ______ ____
ROOT
ATOM      1  C   UNL     1      -5.707   2.501 125.840  0.00  0.00    +0.000 C 
ATOM      2  C   UNL     1      -6.926   1.605 125.693  0.00  0.00    +0.000 C 
ATOM      3  O   UNL     1      -7.424   0.927 126.586  0.00  0.00    +0.000 OA
ATOM      4  N   UNL     1      -7.275   1.605 124.327  0.00  0.00    +0.000 N 
ATOM      5  N   UNL     1      -6.499   2.569 123.639  0.00  0.00    +0.000 N 
ATOM      6  C   UNL     1      -5.715   3.300 124.556  0.00  0.00    +0.000 C 
ATOM      7  O   UNL     1      -5.127   4.363 124.383  0.00  0.00    +0.000 OA
ENDROOT
BRANCH   5   8
ATOM      8  C   UNL     1      -6.964   3.166 122.430  0.00  0.00    +0.000 A 
ATOM      9  C   UNL     1      -6.017   3.570 121.480  0.00  0.00    +0.000 A 
ATOM     10  C   UNL     1      -6.410   4.007 120.205  0.00  0.00    +0.000 A 
ATOM     11  C   UNL     1      -7.762   4.091 119.894  0.00  0.00    +0.000 A 
ATOM     12  C   UNL     1      -8.720   3.753 120.843  0.00  0.00    +0.000 A 
ATOM     13  C   UNL     1      -8.326   3.273 122.104  0.00  0.00    +0.000 A 
BRANCH  11  14
ATOM     14  O   UNL     1      -8.202   4.491 118.666  0.00  0.00    +0.000 OA
ATOM     15  H   UNL     1      -8.917   5.140 118.768  0.00  0.00    +0.000 HD
ENDBRANCH  11  14
ENDBRANCH   5   8
BRANCH   4  16
ATOM     16  C   UNL     1      -7.628   0.350 123.736  0.00  0.00    +0.000 A 
ATOM     17  C   UNL     1      -6.604  -0.537 123.383  0.00  0.00    +0.000 A 
ATOM     18  C   UNL     1      -6.887  -1.754 122.751  0.00  0.00    +0.000 A 
ATOM     19  C   UNL     1      -8.205  -2.120 122.499  0.00  0.00    +0.000 A 
ATOM     20  C   UNL     1      -9.237  -1.247 122.838  0.00  0.00    +0.000 A 
ATOM     21  C   UNL     1      -8.954  -0.017 123.457  0.00  0.00    +0.000 A 
ENDBRANCH   4  16
BRANCH   1  22
ATOM     22  C   UNL     1      -5.568   3.307 127.139  0.00  0.00    +0.000 C 
BRANCH  22  23
ATOM     23  C   UNL     1      -4.241   3.047 127.836  0.00  0.00    +0.000 C 
BRANCH  23  25
ATOM     24  C   UNL     1      -2.081   3.113 126.644  0.00  0.00    +0.000 C 
ATOM     25  C   UNL     1      -3.120   3.958 127.363  0.00  0.00    +0.000 C 
ENDBRANCH  23  25
ENDBRANCH  22  23
ENDBRANCH   1  22
TORSDOF 6
ENDMDL
MODEL 3
REMARK VINA RESULT:      -7.5      2.191      5.275
REMARK  Name = Oxyphenbutazone
REMARK  7 active torsions:
REMARK  status: ('A' for Active; 'I' for Inactive)
REMARK    1  A    between atoms: C_1  and  C_2
REMARK    2  A    between atoms: C_2  and  C_3
REMARK    3  A    between atoms: C_3  and  C_4
REMARK    4  A    between atoms: C_4  and  C_5
REMARK    5  A    between atoms: N_8  and  C_19
REMARK    6  A    between atoms: N_9  and  C_12
REMARK    7  A    between atoms: C_15  and  O_16
REMARK                            x       y       z     vdW  Elec       q    Type
REMARK                         _______ _______ _______ _____ _____    ______ ____
ROOT
ATOM      1  C   UNL     1      -7.400   3.136 126.076  0.00  0.00    +0.000 C 
ATOM      2  C   UNL     1      -8.360   2.056 125.604  0.00  0.00    +0.000 C 
ATOM      3  O   UNL     1      -9.131   1.425 126.320  0.00  0.00    +0.000 OA
ATOM      4  N   UNL     1      -8.093   1.838 124.237  0.00  0.00    +0.000 N 
ATOM      5  N   UNL     1      -7.182   2.815 123.768  0.00  0.00    +0.000 N 
ATOM      6  C   UNL     1      -6.929   3.763 124.783  0.00  0.00    +0.000 C 
ATOM      7  O   UNL     1      -6.415   4.873 124.683  0.00  0.00    +0.000 OA
ENDROOT
BRANCH   5   8
ATOM      8  C   UNL     1      -7.138   3.184 122.392  0.00  0.00    +0.000 A 
ATOM      9  C   UNL     1      -8.350   3.386 121.718  0.00  0.00    +0.000 A 
ATOM     10  C   UNL     1      -8.377   3.911 120.416  0.00  0.00    +0.000 A 
ATOM     11  C   UNL     1      -7.183   4.189 119.763  0.00  0.00    +0.000 A 
ATOM     12  C   UNL     1      -5.968   3.939 120.390  0.00  0.00    +0.000 A 
ATOM     13  C   UNL     1      -5.941   3.455 121.709  0.00  0.00    +0.000 A 
BRANCH  11  14
ATOM     14  O   UNL     1      -7.149   4.718 118.505  0.00  0.00    +0.000 OA
ATOM     15  H   UNL     1      -7.821   5.414 118.423  0.00  0.00    +0.000 HD
ENDBRANCH  11  14
ENDBRANCH   5   8
BRANCH   4  16
ATOM     16  C   UNL     1      -8.053   0.481 123.781  0.00  0.00    +0.000 A 
ATOM     17  C   UNL     1      -9.226  -0.090 123.271  0.00  0.00    +0.000 A 
ATOM     18  C   UNL     1      -9.260  -1.429 122.864  0.00  0.00    +0.000 A 
ATOM     19  C   UNL     1      -8.109  -2.207 122.923  0.00  0.00    +0.000 A 
ATOM     20  C   UNL     1      -6.934  -1.657 123.434  0.00  0.00    +0.000 A 
ATOM     21  C   UNL     1      -6.901  -0.318 123.860  0.00  0.00    +0.000 A 
ENDBRANCH   4  16
BRANCH   1  22
ATOM     22  C   UNL     1      -7.897   4.105 127.158  0.00  0.00    +0.000 C 
BRANCH  22  23
ATOM     23  C   UNL     1      -7.337   3.766 128.532  0.00  0.00    +0.000 C 
BRANCH  23  25
ATOM     24  C   UNL     1      -8.410   1.871 129.692  0.00  0.00    +0.000 C 
ATOM     25  C   UNL     1      -8.405   3.383 129.543  0.00  0.00    +0.000 C 
ENDBRANCH  23  25
ENDBRANCH  22  23
ENDBRANCH   1  22
TORSDOF 6
ENDMDL
MODEL 4
REMARK VINA RESULT:      -7.5      7.180     10.039
REMARK  Name = Oxyphenbutazone
REMARK  7 active torsions:
REMARK  status: ('A' for Active; 'I' for Inactive)
REMARK    1  A    between atoms: C_1  and  C_2
REMARK    2  A    between atoms: C_2  and  C_3
REMARK    3  A    between atoms: C_3  and  C_4
REMARK    4  A    between atoms: C_4  and  C_5
REMARK    5  A    between atoms: N_8  and  C_19
REMARK    6  A    between atoms: N_9  and  C_12
REMARK    7  A    between atoms: C_15  and  O_16
REMARK                            x       y       z     vdW  Elec       q    Type
REMARK                         _______ _______ _______ _____ _____    ______ ____
ROOT
ATOM      1  C   UNL     1     -10.936   7.043 129.786  0.00  0.00    +0.000 C 
ATOM      2  C   UNL     1     -11.117   6.150 131.002  0.00  0.00    +0.000 C 
ATOM      3  O   UNL     1     -11.982   6.282 131.862  0.00  0.00    +0.000 OA
ATOM      4  N   UNL     1     -10.034   5.246 131.013  0.00  0.00    +0.000 N 
ATOM      5  N   UNL     1      -9.297   5.373 129.810  0.00  0.00    +0.000 N 
ATOM      6  C   UNL     1      -9.948   6.272 128.939  0.00  0.00    +0.000 C 
ATOM      7  O   UNL     1      -9.768   6.439 127.737  0.00  0.00    +0.000 OA
ENDROOT
BRANCH   5   8
ATOM      8  C   UNL     1      -8.521   4.290 129.302  0.00  0.00    +0.000 A 
ATOM      9  C   UNL     1      -7.174   4.524 128.996  0.00  0.00    +0.000 A 
ATOM     10  C   UNL     1      -6.314   3.469 128.654  0.00  0.00    +0.000 A 
ATOM     11  C   UNL     1      -6.815   2.175 128.567  0.00  0.00    +0.000 A 
ATOM     12  C   UNL     1      -8.161   1.929 128.808  0.00  0.00    +0.000 A 
ATOM     13  C   UNL     1      -9.013   2.979 129.193  0.00  0.00    +0.000 A 
BRANCH  11  14
ATOM     14  O   UNL     1      -6.022   1.109 128.258  0.00  0.00    +0.000 OA
ATOM     15  H   UNL     1      -5.113   1.277 128.556  0.00  0.00    +0.000 HD
ENDBRANCH  11  14
ENDBRANCH   5   8
BRANCH   4  16
ATOM     16  C   UNL     1      -9.400   4.992 132.271  0.00  0.00    +0.000 A 
ATOM     17  C   UNL     1      -8.722   6.042 132.904  0.00  0.00    +0.000 A 
ATOM     18  C   UNL     1      -8.036   5.838 134.107  0.00  0.00    +0.000 A 
ATOM     19  C   UNL     1      -8.051   4.588 134.717  0.00  0.00    +0.000 A 
ATOM     20  C   UNL     1      -8.714   3.530 134.097  0.00  0.00    +0.000 A 
ATOM     21  C   UNL     1      -9.390   3.728 132.880  0.00  0.00    +0.000 A 
ENDBRANCH   4  16
BRANCH   1  22
ATOM     22  C   UNL     1     -12.203   7.536 129.071  0.00  0.00    +0.000 C 
BRANCH  22  23
ATOM     23  C   UNL     1     -12.320   9.053 129.093  0.00  0.00    +0.000 C 
BRANCH  23  25
ATOM     24  C   UNL     1     -13.513  11.026 129.973  0.00  0.00    +0.000 C 
ATOM     25  C   UNL     1     -13.138   9.581 130.260  0.00  0.00    +0.000 C 
ENDBRANCH  23  25
ENDBRANCH  22  23
ENDBRANCH   1  22
TORSDOF 6
ENDMDL
MODEL 5
REMARK VINA RESULT:      -7.4      4.436      6.966
REMARK  Name = Oxyphenbutazone
REMARK  7 active torsions:
REMARK  status: ('A' for Active; 'I' for Inactive)
REMARK    1  A    between atoms: C_1  and  C_2
REMARK    2  A    between atoms: C_2  and  C_3
REMARK    3  A    between atoms: C_3  and  C_4
REMARK    4  A    between atoms: C_4  and  C_5
REMARK    5  A    between atoms: N_8  and  C_19
REMARK    6  A    between atoms: N_9  and  C_12
REMARK    7  A    between atoms: C_15  and  O_16
REMARK                            x       y       z     vdW  Elec       q    Type
REMARK                         _______ _______ _______ _____ _____    ______ ____
ROOT
ATOM      1  C   UNL     1      -5.093   1.001 127.234  0.00  0.00    +0.000 C 
ATOM      2  C   UNL     1      -5.568   0.256 128.471  0.00  0.00    +0.000 C 
ATOM      3  O   UNL     1      -5.390   0.614 129.631  0.00  0.00    +0.000 OA
ATOM      4  N   UNL     1      -6.119  -0.964 128.030  0.00  0.00    +0.000 N 
ATOM      5  N   UNL     1      -6.201  -0.966 126.616  0.00  0.00    +0.000 N 
ATOM      6  C   UNL     1      -5.819   0.295 126.111  0.00  0.00    +0.000 C 
ATOM      7  O   UNL     1      -6.003   0.758 124.990  0.00  0.00    +0.000 OA
ENDROOT
BRANCH   5   8
ATOM      8  C   UNL     1      -7.157  -1.772 125.933  0.00  0.00    +0.000 A 
ATOM      9  C   UNL     1      -8.504  -1.666 126.304  0.00  0.00    +0.000 A 
ATOM     10  C   UNL     1      -9.513  -2.302 125.563  0.00  0.00    +0.000 A 
ATOM     11  C   UNL     1      -9.170  -3.092 124.473  0.00  0.00    +0.000 A 
ATOM     12  C   UNL     1      -7.835  -3.260 124.123  0.00  0.00    +0.000 A 
ATOM     13  C   UNL     1      -6.829  -2.589 124.838  0.00  0.00    +0.000 A 
BRANCH  11  14
ATOM     14  O   UNL     1     -10.109  -3.718 123.705  0.00  0.00    +0.000 OA
ATOM     15  H   UNL     1     -10.988  -3.355 123.901  0.00  0.00    +0.000 HD
ENDBRANCH  11  14
ENDBRANCH   5   8
BRANCH   4  16
ATOM     16  C   UNL     1      -5.792  -2.143 128.774  0.00  0.00    +0.000 A 
ATOM     17  C   UNL     1      -6.801  -2.770 129.515  0.00  0.00    +0.000 A 
ATOM     18  C   UNL     1      -6.526  -3.892 130.306  0.00  0.00    +0.000 A 
ATOM     19  C   UNL     1      -5.243  -4.429 130.335  0.00  0.00    +0.000 A 
ATOM     20  C   UNL     1      -4.225  -3.814 129.609  0.00  0.00    +0.000 A 
ATOM     21  C   UNL     1      -4.495  -2.676 128.828  0.00  0.00    +0.000 A 
ENDBRANCH   4  16
BRANCH   1  22
ATOM     22  C   UNL     1      -5.187   2.533 127.246  0.00  0.00    +0.000 C 
BRANCH  22  23
ATOM     23  C   UNL     1      -3.972   3.187 126.606  0.00  0.00    +0.000 C 
BRANCH  23  25
ATOM     24  C   UNL     1      -1.514   2.973 126.541  0.00  0.00    +0.000 C 
ATOM     25  C   UNL     1      -2.718   3.105 127.460  0.00  0.00    +0.000 C 
ENDBRANCH  23  25
ENDBRANCH  22  23
ENDBRANCH   1  22
TORSDOF 6
ENDMDL
MODEL 6
REMARK VINA RESULT:      -7.1      5.831      9.706
REMARK  Name = Oxyphenbutazone
REMARK  7 active torsions:
REMARK  status: ('A' for Active; 'I' for Inactive)
REMARK    1  A    between atoms: C_1  and  C_2
REMARK    2  A    between atoms: C_2  and  C_3
REMARK    3  A    between atoms: C_3  and  C_4
REMARK    4  A    between atoms: C_4  and  C_5
REMARK    5  A    between atoms: N_8  and  C_19
REMARK    6  A    between atoms: N_9  and  C_12
REMARK    7  A    between atoms: C_15  and  O_16
REMARK                            x       y       z     vdW  Elec       q    Type
REMARK                         _______ _______ _______ _____ _____    ______ ____
ROOT
ATOM      1  C   UNL     1      -4.297   4.794 128.083  0.00  0.00    +0.000 C 
ATOM      2  C   UNL     1      -3.638   6.061 128.602  0.00  0.00    +0.000 C 
ATOM      3  O   UNL     1      -2.772   6.705 128.020  0.00  0.00    +0.000 OA
ATOM      4  N   UNL     1      -4.114   6.264 129.914  0.00  0.00    +0.000 N 
ATOM      5  N   UNL     1      -5.153   5.342 130.191  0.00  0.00    +0.000 N 
ATOM      6  C   UNL     1      -5.460   4.600 129.031  0.00  0.00    +0.000 C 
ATOM      7  O   UNL     1      -6.449   3.911 128.802  0.00  0.00    +0.000 OA
ENDROOT
BRANCH   5   8
ATOM      8  C   UNL     1      -6.153   5.627 131.167  0.00  0.00    +0.000 A 
ATOM      9  C   UNL     1      -7.232   6.440 130.796  0.00  0.00    +0.000 A 
ATOM     10  C   UNL     1      -8.330   6.621 131.650  0.00  0.00    +0.000 A 
ATOM     11  C   UNL     1      -8.329   6.027 132.907  0.00  0.00    +0.000 A 
ATOM     12  C   UNL     1      -7.242   5.266 133.319  0.00  0.00    +0.000 A 
ATOM     13  C   UNL     1      -6.161   5.048 132.447  0.00  0.00    +0.000 A 
BRANCH  11  14
ATOM     14  O   UNL     1      -9.377   6.153 133.771  0.00  0.00    +0.000 OA
ATOM     15  H   UNL     1      -9.059   6.483 134.627  0.00  0.00    +0.000 HD
ENDBRANCH  11  14
ENDBRANCH   5   8
BRANCH   4  16
ATOM     16  C   UNL     1      -3.162   6.657 130.908  0.00  0.00    +0.000 A 
ATOM     17  C   UNL     1      -3.305   7.910 131.516  0.00  0.00    +0.000 A 
ATOM     18  C   UNL     1      -2.371   8.370 132.453  0.00  0.00    +0.000 A 
ATOM     19  C   UNL     1      -1.301   7.564 132.827  0.00  0.00    +0.000 A 
ATOM     20  C   UNL     1      -1.139   6.317 132.226  0.00  0.00    +0.000 A 
ATOM     21  C   UNL     1      -2.065   5.860 131.273  0.00  0.00    +0.000 A 
ENDBRANCH   4  16
BRANCH   1  22
ATOM     22  C   UNL     1      -4.625   4.726 126.584  0.00  0.00    +0.000 C 
BRANCH  22  23
ATOM     23  C   UNL     1      -3.941   3.551 125.901  0.00  0.00    +0.000 C 
BRANCH  23  25
ATOM     24  C   UNL     1      -1.576   3.072 126.419  0.00  0.00    +0.000 C 
ATOM     25  C   UNL     1      -3.012   2.773 126.819  0.00  0.00    +0.000 C 
ENDBRANCH  23  25
ENDBRANCH  22  23
ENDBRANCH   1  22
TORSDOF 6
ENDMDL
MODEL 7
REMARK VINA RESULT:      -7.1      4.196      6.784
REMARK  Name = Oxyphenbutazone
REMARK  7 active torsions:
REMARK  status: ('A' for Active; 'I' for Inactive)
REMARK    1  A    between atoms: C_1  and  C_2
REMARK    2  A    between atoms: C_2  and  C_3
REMARK    3  A    between atoms: C_3  and  C_4
REMARK    4  A    between atoms: C_4  and  C_5
REMARK    5  A    between atoms: N_8  and  C_19
REMARK    6  A    between atoms: N_9  and  C_12
REMARK    7  A    between atoms: C_15  and  O_16
REMARK                            x       y       z     vdW  Elec       q    Type
REMARK                         _______ _______ _______ _____ _____    ______ ____
ROOT
ATOM      1  C   UNL     1      -7.210  -1.969 128.604  0.00  0.00    +0.000 C 
ATOM      2  C   UNL     1      -7.743  -2.362 127.236  0.00  0.00    +0.000 C 
ATOM      3  O   UNL     1      -8.287  -3.426 126.962  0.00  0.00    +0.000 OA
ATOM      4  N   UNL     1      -7.373  -1.337 126.341  0.00  0.00    +0.000 N 
ATOM      5  N   UNL     1      -6.820  -0.252 127.063  0.00  0.00    +0.000 N 
ATOM      6  C   UNL     1      -6.928  -0.491 128.449  0.00  0.00    +0.000 C 
ATOM      7  O   UNL     1      -6.806   0.304 129.375  0.00  0.00    +0.000 OA
ENDROOT
BRANCH   5   8
ATOM      8  C   UNL     1      -6.853   1.076 126.542  0.00  0.00    +0.000 A 
ATOM      9  C   UNL     1      -5.642   1.677 126.178  0.00  0.00    +0.000 A 
ATOM     10  C   UNL     1      -5.618   2.910 125.506  0.00  0.00    +0.000 A 
ATOM     11  C   UNL     1      -6.811   3.571 125.240  0.00  0.00    +0.000 A 
ATOM     12  C   UNL     1      -8.021   3.021 125.648  0.00  0.00    +0.000 A 
ATOM     13  C   UNL     1      -8.048   1.767 126.281  0.00  0.00    +0.000 A 
BRANCH  11  14
ATOM     14  O   UNL     1      -6.849   4.761 124.574  0.00  0.00    +0.000 OA
ATOM     15  H   UNL     1      -6.094   4.822 123.967  0.00  0.00    +0.000 HD
ENDBRANCH  11  14
ENDBRANCH   5   8
BRANCH   4  16
ATOM     16  C   UNL     1      -6.873  -1.731 125.059  0.00  0.00    +0.000 A 
ATOM     17  C   UNL     1      -5.657  -2.422 124.997  0.00  0.00    +0.000 A 
ATOM     18  C   UNL     1      -5.092  -2.783 123.767  0.00  0.00    +0.000 A 
ATOM     19  C   UNL     1      -5.756  -2.492 122.580  0.00  0.00    +0.000 A 
ATOM     20  C   UNL     1      -6.965  -1.797 122.623  0.00  0.00    +0.000 A 
ATOM     21  C   UNL     1      -7.526  -1.419 123.856  0.00  0.00    +0.000 A 
ENDBRANCH   4  16
BRANCH   1  22
ATOM     22  C   UNL     1      -8.035  -2.377 129.833  0.00  0.00    +0.000 C 
BRANCH  22  23
ATOM     23  C   UNL     1      -7.220  -3.192 130.826  0.00  0.00    +0.000 C 
BRANCH  23  25
ATOM     24  C   UNL     1      -5.526  -4.937 131.246  0.00  0.00    +0.000 C 
ATOM     25  C   UNL     1      -6.193  -4.098 130.168  0.00  0.00    +0.000 C 
ENDBRANCH  23  25
ENDBRANCH  22  23
ENDBRANCH   1  22
TORSDOF 6
ENDMDL
MODEL 8
REMARK VINA RESULT:      -7.0      4.637      6.501
REMARK  Name = Oxyphenbutazone
REMARK  7 active torsions:
REMARK  status: ('A' for Active; 'I' for Inactive)
REMARK    1  A    between atoms: C_1  and  C_2
REMARK    2  A    between atoms: C_2  and  C_3
REMARK    3  A    between atoms: C_3  and  C_4
REMARK    4  A    between atoms: C_4  and  C_5
REMARK    5  A    between atoms: N_8  and  C_19
REMARK    6  A    between atoms: N_9  and  C_12
REMARK    7  A    between atoms: C_15  and  O_16
REMARK                            x       y       z     vdW  Elec       q    Type
REMARK                         _______ _______ _______ _____ _____    ______ ____
ROOT
ATOM      1  C   UNL     1      -6.386   1.386 127.220  0.00  0.00    +0.000 C 
ATOM      2  C   UNL     1      -6.226   0.382 126.090  0.00  0.00    +0.000 C 
ATOM      3  O   UNL     1      -6.074   0.660 124.905  0.00  0.00    +0.000 OA
ATOM      4  N   UNL     1      -6.420  -0.899 126.648  0.00  0.00    +0.000 N 
ATOM      5  N   UNL     1      -6.501  -0.796 128.057  0.00  0.00    +0.000 N 
ATOM      6  C   UNL     1      -6.242   0.531 128.459  0.00  0.00    +0.000 C 
ATOM      7  O   UNL     1      -5.969   0.953 129.578  0.00  0.00    +0.000 OA
ENDROOT
BRANCH   5   8
ATOM      8  C   UNL     1      -6.165  -1.897 128.899  0.00  0.00    +0.000 A 
ATOM      9  C   UNL     1      -7.177  -2.470 129.680  0.00  0.00    +0.000 A 
ATOM     10  C   UNL     1      -6.954  -3.656 130.399  0.00  0.00    +0.000 A 
ATOM     11  C   UNL     1      -5.696  -4.246 130.378  0.00  0.00    +0.000 A 
ATOM     12  C   UNL     1      -4.661  -3.660 129.658  0.00  0.00    +0.000 A 
ATOM     13  C   UNL     1      -4.896  -2.498 128.903  0.00  0.00    +0.000 A 
BRANCH  11  14
ATOM     14  O   UNL     1      -5.427  -5.407 131.041  0.00  0.00    +0.000 OA
ATOM     15  H   UNL     1      -6.248  -5.912 131.165  0.00  0.00    +0.000 HD
ENDBRANCH  11  14
ENDBRANCH   5   8
BRANCH   4  16
ATOM     16  C   UNL     1      -7.219  -1.827 125.905  0.00  0.00    +0.000 A 
ATOM     17  C   UNL     1      -8.605  -1.829 126.106  0.00  0.00    +0.000 A 
ATOM     18  C   UNL     1      -9.429  -2.751 125.450  0.00  0.00    +0.000 A 
ATOM     19  C   UNL     1      -8.882  -3.661 124.551  0.00  0.00    +0.000 A 
ATOM     20  C   UNL     1      -7.504  -3.678 124.345  0.00  0.00    +0.000 A 
ATOM     21  C   UNL     1      -6.672  -2.764 125.015  0.00  0.00    +0.000 A 
ENDBRANCH   4  16
BRANCH   1  22
ATOM     22  C   UNL     1      -5.527   2.657 127.168  0.00  0.00    +0.000 C 
BRANCH  22  23
ATOM     23  C   UNL     1      -4.040   2.343 127.113  0.00  0.00    +0.000 C 
BRANCH  23  25
ATOM     24  C   UNL     1      -1.744   3.088 126.598  0.00  0.00    +0.000 C 
ATOM     25  C   UNL     1      -3.217   3.422 126.429  0.00  0.00    +0.000 C 
ENDBRANCH  23  25
ENDBRANCH  22  23
ENDBRANCH   1  22
TORSDOF 6
ENDMDL
MODEL 9
REMARK VINA RESULT:      -6.9      3.890      6.927
REMARK  Name = Oxyphenbutazone
REMARK  7 active torsions:
REMARK  status: ('A' for Active; 'I' for Inactive)
REMARK    1  A    between atoms: C_1  and  C_2
REMARK    2  A    between atoms: C_2  and  C_3
REMARK    3  A    between atoms: C_3  and  C_4
REMARK    4  A    between atoms: C_4  and  C_5
REMARK    5  A    between atoms: N_8  and  C_19
REMARK    6  A    between atoms: N_9  and  C_12
REMARK    7  A    between atoms: C_15  and  O_16
REMARK                            x       y       z     vdW  Elec       q    Type
REMARK                         _______ _______ _______ _____ _____    ______ ____
ROOT
ATOM      1  C   UNL     1      -6.383  -1.223 123.808  0.00  0.00    +0.000 C 
ATOM      2  C   UNL     1      -6.968  -0.022 124.534  0.00  0.00    +0.000 C 
ATOM      3  O   UNL     1      -7.540   0.923 124.002  0.00  0.00    +0.000 OA
ATOM      4  N   UNL     1      -6.608  -0.147 125.892  0.00  0.00    +0.000 N 
ATOM      5  N   UNL     1      -6.011  -1.412 126.111  0.00  0.00    +0.000 N 
ATOM      6  C   UNL     1      -6.078  -2.187 124.933  0.00  0.00    +0.000 C 
ATOM      7  O   UNL     1      -5.911  -3.395 124.801  0.00  0.00    +0.000 OA
ENDROOT
BRANCH   5   8
ATOM      8  C   UNL     1      -6.037  -2.028 127.397  0.00  0.00    +0.000 A 
ATOM      9  C   UNL     1      -7.275  -2.416 127.924  0.00  0.00    +0.000 A 
ATOM     10  C   UNL     1      -7.356  -3.174 129.103  0.00  0.00    +0.000 A 
ATOM     11  C   UNL     1      -6.193  -3.505 129.788  0.00  0.00    +0.000 A 
ATOM     12  C   UNL     1      -4.958  -3.079 129.315  0.00  0.00    +0.000 A 
ATOM     13  C   UNL     1      -4.873  -2.357 128.112  0.00  0.00    +0.000 A 
BRANCH  11  14
ATOM     14  O   UNL     1      -6.210  -4.256 130.927  0.00  0.00    +0.000 OA
ATOM     15  H   UNL     1      -6.122  -3.678 131.703  0.00  0.00    +0.000 HD
ENDBRANCH  11  14
ENDBRANCH   5   8
BRANCH   4  16
ATOM     16  C   UNL     1      -6.157   1.033 126.565  0.00  0.00    +0.000 A 
ATOM     17  C   UNL     1      -4.846   1.472 126.344  0.00  0.00    +0.000 A 
ATOM     18  C   UNL     1      -4.333   2.587 127.019  0.00  0.00    +0.000 A 
ATOM     19  C   UNL     1      -5.140   3.305 127.896  0.00  0.00    +0.000 A 
ATOM     20  C   UNL     1      -6.445   2.878 128.134  0.00  0.00    +0.000 A 
ATOM     21  C   UNL     1      -6.957   1.748 127.470  0.00  0.00    +0.000 A 
ENDBRANCH   4  16
BRANCH   1  22
ATOM     22  C   UNL     1      -7.174  -1.792 122.622  0.00  0.00    +0.000 C 
BRANCH  22  23
ATOM     23  C   UNL     1      -8.672  -1.810 122.888  0.00  0.00    +0.000 C 
BRANCH  23  25
ATOM     24  C   UNL     1      -9.436  -3.159 124.809  0.00  0.00    +0.000 C 
ATOM     25  C   UNL     1      -9.197  -3.173 123.308  0.00  0.00    +0.000 C 
ENDBRANCH  23  25
ENDBRANCH  22  23
ENDBRANCH   1  22
TORSDOF 6
ENDMDL
