MODEL 1
REMARK VINA RESULT:      -7.9      0.000      0.000
REMARK  Name = Oxyphencyclimine
REMARK  8 active torsions:
REMARK  status: ('A' for Active; 'I' for Inactive)
REMARK    1  A    between atoms: C_1  and  N_2
REMARK    2  A    between atoms: C_7  and  C_8
REMARK    3  A    between atoms: C_8  and  O_9
REMARK    4  A    between atoms: O_9  and  C_10
REMARK    5  A    between atoms: C_10  and  C_12
REMARK    6  A    between atoms: C_12  and  O_13
REMARK    7  A    between atoms: C_12  and  C_14
REMARK    8  A    between atoms: C_12  and  C_20
REMARK                            x       y       z     vdW  Elec       q    Type
REMARK                         _______ _______ _______ _____ _____    ______ ____
ROOT
ATOM      1  C   UNL     1      -7.705   3.009 123.718  0.00  0.00    +0.000 C 
ENDROOT
BRANCH   1   2
ATOM      2  C   UNL     1      -6.278   2.745 124.405  0.00  0.00    +0.000 C 
ATOM      3  C   UNL     1      -5.662   4.026 124.999  0.00  0.00    +0.000 C 
ATOM      4  C   UNL     1      -4.360   3.820 125.751  0.00  0.00    +0.000 C 
ATOM      5  C   UNL     1      -4.504   2.769 126.833  0.00  0.00    +0.000 C 
ATOM      6  C   UNL     1      -4.971   1.463 126.226  0.00  0.00    +0.000 C 
ATOM      7  C   UNL     1      -6.291   1.650 125.503  0.00  0.00    +0.000 C 
ENDBRANCH   1   2
BRANCH   1   8
ATOM      8  C   UNL     1      -7.542   3.236 122.195  0.00  0.00    +0.000 A 
ATOM      9  C   UNL     1      -6.276   3.390 121.599  0.00  0.00    +0.000 A 
ATOM     10  C   UNL     1      -6.109   3.874 120.310  0.00  0.00    +0.000 A 
ATOM     11  C   UNL     1      -7.219   4.181 119.547  0.00  0.00    +0.000 A 
ATOM     12  C   UNL     1      -8.494   4.028 120.089  0.00  0.00    +0.000 A 
ATOM     13  C   UNL     1      -8.659   3.537 121.390  0.00  0.00    +0.000 A 
ENDBRANCH   1   8
BRANCH   1  14
ATOM     14  C   UNL     1      -8.767   1.879 124.044  0.00  0.00    +0.000 C 
ATOM     15  O   UNL     1      -9.615   1.876 124.935  0.00  0.00    +0.000 OA
BRANCH  14  16
ATOM     16  O   UNL     1      -8.717   0.852 123.153  0.00  0.00    +0.000 OA
BRANCH  16  17
ATOM     17  C   UNL     1      -8.989  -0.388 123.806  0.00  0.00    +0.000 C 
BRANCH  17  24
ATOM     18  C   UNL     1      -8.214  -1.442 126.403  0.00  0.00    +0.000 C 
ATOM     19  N   UNL     1      -7.434  -1.748 125.210  0.00  0.00    +0.000 N 
ATOM     20  C   UNL     1      -6.228  -2.499 125.454  0.00  0.00    +0.000 C 
ATOM     21  C   UNL     1      -5.406  -2.810 124.230  0.00  0.00    +0.000 C 
ATOM     22  C   UNL     1      -5.872  -2.278 122.895  0.00  0.00    +0.000 C 
ATOM     23  N   UNL     1      -7.092  -1.504 122.879  0.00  0.00    +0.000 NA
ATOM     24  C   UNL     1      -7.749  -1.274 123.956  0.00  0.00    +0.000 C 
ENDBRANCH  17  24
ENDBRANCH  16  17
ENDBRANCH  14  16
ENDBRANCH   1  14
BRANCH   1  25
ATOM     25  O   UNL     1      -8.207   4.247 124.270  0.00  0.00    +0.000 OA
ATOM     26  H   UNL     1      -7.773   4.971 123.779  0.00  0.00    +0.000 HD
ENDBRANCH   1  25
TORSDOF 7
ENDMDL
MODEL 2
REMARK VINA RESULT:      -7.7      2.307      6.679
REMARK  Name = Oxyphencyclimine
REMARK  8 active torsions:
REMARK  status: ('A' for Active; 'I' for Inactive)
REMARK    1  A    between atoms: C_1  and  N_2
REMARK    2  A    between atoms: C_7  and  C_8
REMARK    3  A    between atoms: C_8  and  O_9
REMARK    4  A    between atoms: O_9  and  C_10
REMARK    5  A    between atoms: C_10  and  C_12
REMARK    6  A    between atoms: C_12  and  O_13
REMARK    7  A    between atoms: C_12  and  C_14
REMARK    8  A    between atoms: C_12  and  C_20
REMARK                            x       y       z     vdW  Elec       q    Type
REMARK                         _______ _______ _______ _____ _____    ______ ____
ROOT
ATOM      1  C   UNL     1      -8.607  -1.302 125.170  0.00  0.00    +0.000 C 
ENDROOT
BRANCH   1   2
ATOM      2  C   UNL     1      -7.166  -1.468 124.480  0.00  0.00    +0.000 C 
ATOM      3  C   UNL     1      -6.301  -2.540 125.168  0.00  0.00    +0.000 C 
ATOM      4  C   UNL     1      -4.966  -2.812 124.498  0.00  0.00    +0.000 C 
ATOM      5  C   UNL     1      -5.142  -3.156 123.032  0.00  0.00    +0.000 C 
ATOM      6  C   UNL     1      -5.866  -2.032 122.322  0.00  0.00    +0.000 C 
ATOM      7  C   UNL     1      -7.217  -1.776 122.961  0.00  0.00    +0.000 C 
ENDBRANCH   1   2
BRANCH   1   8
ATOM      8  C   UNL     1      -8.631  -1.998 126.553  0.00  0.00    +0.000 A 
ATOM      9  C   UNL     1      -7.944  -1.469 127.661  0.00  0.00    +0.000 A 
ATOM     10  C   UNL     1      -7.709  -2.201 128.816  0.00  0.00    +0.000 A 
ATOM     11  C   UNL     1      -8.201  -3.487 128.920  0.00  0.00    +0.000 A 
ATOM     12  C   UNL     1      -8.903  -4.047 127.854  0.00  0.00    +0.000 A 
ATOM     13  C   UNL     1      -9.140  -3.305 126.690  0.00  0.00    +0.000 A 
ENDBRANCH   1   8
BRANCH   1  14
ATOM     14  C   UNL     1      -9.084   0.207 125.249  0.00  0.00    +0.000 C 
ATOM     15  O   UNL     1     -10.238   0.635 125.239  0.00  0.00    +0.000 OA
BRANCH  14  16
ATOM     16  O   UNL     1      -8.043   1.068 125.411  0.00  0.00    +0.000 OA
BRANCH  16  17
ATOM     17  C   UNL     1      -8.434   2.394 125.054  0.00  0.00    +0.000 C 
BRANCH  17  24
ATOM     18  C   UNL     1      -9.114   2.385 122.227  0.00  0.00    +0.000 C 
ATOM     19  N   UNL     1      -7.881   3.007 122.697  0.00  0.00    +0.000 N 
ATOM     20  C   UNL     1      -7.016   3.494 121.652  0.00  0.00    +0.000 C 
ATOM     21  C   UNL     1      -5.732   4.126 122.125  0.00  0.00    +0.000 C 
ATOM     22  C   UNL     1      -5.442   4.147 123.607  0.00  0.00    +0.000 C 
ATOM     23  N   UNL     1      -6.429   3.559 124.483  0.00  0.00    +0.000 NA
ATOM     24  C   UNL     1      -7.504   3.037 124.021  0.00  0.00    +0.000 C 
ENDBRANCH  17  24
ENDBRANCH  16  17
ENDBRANCH  14  16
ENDBRANCH   1  14
BRANCH   1  25
ATOM     25  O   UNL     1      -9.549  -2.011 124.333  0.00  0.00    +0.000 OA
ATOM     26  H   UNL     1      -9.768  -2.841 124.797  0.00  0.00    +0.000 HD
ENDBRANCH   1  25
TORSDOF 7
ENDMDL
MODEL 3
REMARK VINA RESULT:      -7.3      3.039      6.691
REMARK  Name = Oxyphencyclimine
REMARK  8 active torsions:
REMARK  status: ('A' for Active; 'I' for Inactive)
REMARK    1  A    between atoms: C_1  and  N_2
REMARK    2  A    between atoms: C_7  and  C_8
REMARK    3  A    between atoms: C_8  and  O_9
REMARK    4  A    between atoms: O_9  and  C_10
REMARK    5  A    between atoms: C_10  and  C_12
REMARK    6  A    between atoms: C_12  and  O_13
REMARK    7  A    between atoms: C_12  and  C_14
REMARK    8  A    between atoms: C_12  and  C_20
REMARK                            x       y       z     vdW  Elec       q    Type
REMARK                         _______ _______ _______ _____ _____    ______ ____
ROOT
ATOM      1  C   UNL     1      -8.673  -1.449 125.203  0.00  0.00    +0.000 C 
ENDROOT
BRANCH   1   2
ATOM      2  C   UNL     1      -7.227  -1.544 124.512  0.00  0.00    +0.000 C 
ATOM      3  C   UNL     1      -6.323  -2.600 125.175  0.00  0.00    +0.000 C 
ATOM      4  C   UNL     1      -4.979  -2.805 124.501  0.00  0.00    +0.000 C 
ATOM      5  C   UNL     1      -5.140  -3.120 123.027  0.00  0.00    +0.000 C 
ATOM      6  C   UNL     1      -5.906  -2.007 122.343  0.00  0.00    +0.000 C 
ATOM      7  C   UNL     1      -7.266  -1.817 122.986  0.00  0.00    +0.000 C 
ENDBRANCH   1   2
BRANCH   1   8
ATOM      8  C   UNL     1      -8.641  -2.074 126.620  0.00  0.00    +0.000 A 
ATOM      9  C   UNL     1      -7.922  -1.483 127.675  0.00  0.00    +0.000 A 
ATOM     10  C   UNL     1      -7.639  -2.152 128.856  0.00  0.00    +0.000 A 
ATOM     11  C   UNL     1      -8.112  -3.437 129.043  0.00  0.00    +0.000 A 
ATOM     12  C   UNL     1      -8.845  -4.057 128.032  0.00  0.00    +0.000 A 
ATOM     13  C   UNL     1      -9.130  -3.376 126.841  0.00  0.00    +0.000 A 
ENDBRANCH   1   8
BRANCH   1  14
ATOM     14  C   UNL     1      -9.259   0.023 125.210  0.00  0.00    +0.000 C 
ATOM     15  O   UNL     1     -10.409   0.376 125.470  0.00  0.00    +0.000 OA
BRANCH  14  16
ATOM     16  O   UNL     1      -8.305   0.958 124.954  0.00  0.00    +0.000 OA
BRANCH  16  17
ATOM     17  C   UNL     1      -8.112   1.798 126.093  0.00  0.00    +0.000 C 
BRANCH  17  24
ATOM     18  C   UNL     1      -7.801   4.643 125.576  0.00  0.00    +0.000 C 
ATOM     19  N   UNL     1      -6.644   3.808 125.880  0.00  0.00    +0.000 N 
ATOM     20  C   UNL     1      -5.374   4.483 125.790  0.00  0.00    +0.000 C 
ATOM     21  C   UNL     1      -4.170   3.626 126.088  0.00  0.00    +0.000 C 
ATOM     22  C   UNL     1      -4.384   2.162 126.395  0.00  0.00    +0.000 C 
ATOM     23  N   UNL     1      -5.745   1.677 126.388  0.00  0.00    +0.000 NA
ATOM     24  C   UNL     1      -6.730   2.456 126.128  0.00  0.00    +0.000 C 
ENDBRANCH  17  24
ENDBRANCH  16  17
ENDBRANCH  14  16
ENDBRANCH   1  14
BRANCH   1  25
ATOM     25  O   UNL     1      -9.564  -2.266 124.411  0.00  0.00    +0.000 OA
ATOM     26  H   UNL     1     -10.227  -2.637 125.024  0.00  0.00    +0.000 HD
ENDBRANCH   1  25
TORSDOF 7
ENDMDL
MODEL 4
REMARK VINA RESULT:      -7.3      7.387     10.033
REMARK  Name = Oxyphencyclimine
REMARK  8 active torsions:
REMARK  status: ('A' for Active; 'I' for Inactive)
REMARK    1  A    between atoms: C_1  and  N_2
REMARK    2  A    between atoms: C_7  and  C_8
REMARK    3  A    between atoms: C_8  and  O_9
REMARK    4  A    between atoms: O_9  and  C_10
REMARK    5  A    between atoms: C_10  and  C_12
REMARK    6  A    between atoms: C_12  and  O_13
REMARK    7  A    between atoms: C_12  and  C_14
REMARK    8  A    between atoms: C_12  and  C_20
REMARK                            x       y       z     vdW  Elec       q    Type
REMARK                         _______ _______ _______ _____ _____    ______ ____
ROOT
ATOM      1  C   UNL     1      -9.097   5.896 130.461  0.00  0.00    +0.000 C 
ENDROOT
BRANCH   1   2
ATOM      2  C   UNL     1     -10.565   6.435 130.096  0.00  0.00    +0.000 C 
ATOM      3  C   UNL     1     -11.434   6.677 131.345  0.00  0.00    +0.000 C 
ATOM      4  C   UNL     1     -12.798   7.282 131.067  0.00  0.00    +0.000 C 
ATOM      5  C   UNL     1     -12.683   8.563 130.264  0.00  0.00    +0.000 C 
ATOM      6  C   UNL     1     -11.955   8.294 128.965  0.00  0.00    +0.000 C 
ATOM      7  C   UNL     1     -10.576   7.722 129.231  0.00  0.00    +0.000 C 
ENDBRANCH   1   2
BRANCH   1   8
ATOM      8  C   UNL     1      -9.069   5.328 131.901  0.00  0.00    +0.000 A 
ATOM      9  C   UNL     1      -8.479   6.034 132.966  0.00  0.00    +0.000 A 
ATOM     10  C   UNL     1      -8.184   5.443 134.185  0.00  0.00    +0.000 A 
ATOM     11  C   UNL     1      -8.515   4.119 134.399  0.00  0.00    +0.000 A 
ATOM     12  C   UNL     1      -9.116   3.383 133.379  0.00  0.00    +0.000 A 
ATOM     13  C   UNL     1      -9.415   3.985 132.150  0.00  0.00    +0.000 A 
ENDBRANCH   1   8
BRANCH   1  14
ATOM     14  C   UNL     1      -8.536   4.864 129.398  0.00  0.00    +0.000 C 
ATOM     15  O   UNL     1      -9.117   3.898 128.905  0.00  0.00    +0.000 OA
BRANCH  14  16
ATOM     16  O   UNL     1      -7.281   5.184 128.982  0.00  0.00    +0.000 OA
BRANCH  16  17
ATOM     17  C   UNL     1      -6.336   4.230 129.466  0.00  0.00    +0.000 C 
BRANCH  17  24
ATOM     18  C   UNL     1      -5.985   2.305 131.617  0.00  0.00    +0.000 C 
ATOM     19  N   UNL     1      -5.545   3.686 131.771  0.00  0.00    +0.000 N 
ATOM     20  C   UNL     1      -5.044   4.016 133.082  0.00  0.00    +0.000 C 
ATOM     21  C   UNL     1      -4.599   5.445 133.258  0.00  0.00    +0.000 C 
ATOM     22  C   UNL     1      -4.760   6.399 132.098  0.00  0.00    +0.000 C 
ATOM     23  N   UNL     1      -5.331   5.870 130.881  0.00  0.00    +0.000 NA
ATOM     24  C   UNL     1      -5.690   4.642 130.791  0.00  0.00    +0.000 C 
ENDBRANCH  17  24
ENDBRANCH  16  17
ENDBRANCH  14  16
ENDBRANCH   1  14
BRANCH   1  25
ATOM     25  O   UNL     1      -8.221   7.046 130.453  0.00  0.00    +0.000 OA
ATOM     26  H   UNL     1      -7.507   6.852 129.817  0.00  0.00    +0.000 HD
ENDBRANCH   1  25
TORSDOF 7
ENDMDL
MODEL 5
REMARK VINA RESULT:      -7.2      7.406      9.354
REMARK  Name = Oxyphencyclimine
REMARK  8 active torsions:
REMARK  status: ('A' for Active; 'I' for Inactive)
REMARK    1  A    between atoms: C_1  and  N_2
REMARK    2  A    between atoms: C_7  and  C_8
REMARK    3  A    between atoms: C_8  and  O_9
REMARK    4  A    between atoms: O_9  and  C_10
REMARK    5  A    between atoms: C_10  and  C_12
REMARK    6  A    between atoms: C_12  and  O_13
REMARK    7  A    between atoms: C_12  and  C_14
REMARK    8  A    between atoms: C_12  and  C_20
REMARK                            x       y       z     vdW  Elec       q    Type
REMARK                         _______ _______ _______ _____ _____    ______ ____
ROOT
ATOM      1  C   UNL     1      -9.539   5.514 130.043  0.00  0.00    +0.000 C 
ENDROOT
BRANCH   1   2
ATOM      2  C   UNL     1      -9.849   4.477 131.229  0.00  0.00    +0.000 C 
ATOM      3  C   UNL     1      -9.675   3.010 130.793  0.00  0.00    +0.000 C 
ATOM      4  C   UNL     1      -9.857   1.988 131.899  0.00  0.00    +0.000 C 
ATOM      5  C   UNL     1      -8.955   2.283 133.081  0.00  0.00    +0.000 C 
ATOM      6  C   UNL     1      -9.230   3.677 133.604  0.00  0.00    +0.000 C 
ATOM      7  C   UNL     1      -9.016   4.711 132.516  0.00  0.00    +0.000 C 
ENDBRANCH   1   2
BRANCH   1   8
ATOM      8  C   UNL     1     -10.723   6.493 129.852  0.00  0.00    +0.000 A 
ATOM      9  C   UNL     1     -10.715   7.481 128.850  0.00  0.00    +0.000 A 
ATOM     10  C   UNL     1     -11.611   8.540 128.834  0.00  0.00    +0.000 A 
ATOM     11  C   UNL     1     -12.588   8.621 129.807  0.00  0.00    +0.000 A 
ATOM     12  C   UNL     1     -12.646   7.655 130.810  0.00  0.00    +0.000 A 
ATOM     13  C   UNL     1     -11.741   6.586 130.822  0.00  0.00    +0.000 A 
ENDBRANCH   1   8
BRANCH   1  14
ATOM     14  C   UNL     1      -8.160   6.272 130.230  0.00  0.00    +0.000 C 
ATOM     15  O   UNL     1      -7.963   7.356 130.779  0.00  0.00    +0.000 OA
BRANCH  14  16
ATOM     16  O   UNL     1      -7.107   5.548 129.763  0.00  0.00    +0.000 OA
BRANCH  16  17
ATOM     17  C   UNL     1      -5.997   5.650 130.656  0.00  0.00    +0.000 C 
BRANCH  17  24
ATOM     18  C   UNL     1      -3.527   5.965 132.156  0.00  0.00    +0.000 C 
ATOM     19  N   UNL     1      -3.531   6.041 130.700  0.00  0.00    +0.000 N 
ATOM     20  C   UNL     1      -2.261   6.387 130.111  0.00  0.00    +0.000 C 
ATOM     21  C   UNL     1      -2.257   6.483 128.607  0.00  0.00    +0.000 C 
ATOM     22  C   UNL     1      -3.556   6.269 127.867  0.00  0.00    +0.000 C 
ATOM     23  N   UNL     1      -4.729   5.976 128.659  0.00  0.00    +0.000 NA
ATOM     24  C   UNL     1      -4.669   5.906 129.937  0.00  0.00    +0.000 C 
ENDBRANCH  17  24
ENDBRANCH  16  17
ENDBRANCH  14  16
ENDBRANCH   1  14
BRANCH   1  25
ATOM     25  O   UNL     1      -9.444   4.736 128.828  0.00  0.00    +0.000 OA
ATOM     26  H   UNL     1      -9.835   3.863 129.022  0.00  0.00    +0.000 HD
ENDBRANCH   1  25
TORSDOF 7
ENDMDL
MODEL 6
REMARK VINA RESULT:      -7.2      2.418      6.198
REMARK  Name = Oxyphencyclimine
REMARK  8 active torsions:
REMARK  status: ('A' for Active; 'I' for Inactive)
REMARK    1  A    between atoms: C_1  and  N_2
REMARK    2  A    between atoms: C_7  and  C_8
REMARK    3  A    between atoms: C_8  and  O_9
REMARK    4  A    between atoms: O_9  and  C_10
REMARK    5  A    between atoms: C_10  and  C_12
REMARK    6  A    between atoms: C_12  and  O_13
REMARK    7  A    between atoms: C_12  and  C_14
REMARK    8  A    between atoms: C_12  and  C_20
REMARK                            x       y       z     vdW  Elec       q    Type
REMARK                         _______ _______ _______ _____ _____    ______ ____
ROOT
ATOM      1  C   UNL     1      -6.987  -0.311 125.781  0.00  0.00    +0.000 C 
ENDROOT
BRANCH   1   2
ATOM      2  C   UNL     1      -7.965  -1.226 126.667  0.00  0.00    +0.000 C 
ATOM      3  C   UNL     1      -8.622  -2.353 125.848  0.00  0.00    +0.000 C 
ATOM      4  C   UNL     1      -9.480  -3.312 126.653  0.00  0.00    +0.000 C 
ATOM      5  C   UNL     1      -8.708  -3.904 127.816  0.00  0.00    +0.000 C 
ATOM      6  C   UNL     1      -8.184  -2.796 128.704  0.00  0.00    +0.000 C 
ATOM      7  C   UNL     1      -7.296  -1.852 127.918  0.00  0.00    +0.000 C 
ENDBRANCH   1   2
BRANCH   1   8
ATOM      8  C   UNL     1      -6.224  -1.174 124.746  0.00  0.00    +0.000 A 
ATOM      9  C   UNL     1      -6.590  -1.198 123.387  0.00  0.00    +0.000 A 
ATOM     10  C   UNL     1      -6.123  -2.159 122.503  0.00  0.00    +0.000 A 
ATOM     11  C   UNL     1      -5.228  -3.114 122.943  0.00  0.00    +0.000 A 
ATOM     12  C   UNL     1      -4.823  -3.119 124.277  0.00  0.00    +0.000 A 
ATOM     13  C   UNL     1      -5.295  -2.145 125.167  0.00  0.00    +0.000 A 
ENDBRANCH   1   8
BRANCH   1  14
ATOM     14  C   UNL     1      -7.730   0.916 125.108  0.00  0.00    +0.000 C 
ATOM     15  O   UNL     1      -8.940   1.063 124.935  0.00  0.00    +0.000 OA
BRANCH  14  16
ATOM     16  O   UNL     1      -6.871   1.913 124.765  0.00  0.00    +0.000 OA
BRANCH  16  17
ATOM     17  C   UNL     1      -7.570   2.968 124.103  0.00  0.00    +0.000 C 
BRANCH  17  24
ATOM     18  C   UNL     1      -8.821   3.104 121.481  0.00  0.00    +0.000 C 
ATOM     19  N   UNL     1      -7.455   3.575 121.683  0.00  0.00    +0.000 N 
ATOM     20  C   UNL     1      -6.777   3.990 120.480  0.00  0.00    +0.000 C 
ATOM     21  C   UNL     1      -5.360   4.465 120.675  0.00  0.00    +0.000 C 
ATOM     22  C   UNL     1      -4.767   4.416 122.063  0.00  0.00    +0.000 C 
ATOM     23  N   UNL     1      -5.609   3.919 123.126  0.00  0.00    +0.000 NA
ATOM     24  C   UNL     1      -6.810   3.530 122.899  0.00  0.00    +0.000 C 
ENDBRANCH  17  24
ENDBRANCH  16  17
ENDBRANCH  14  16
ENDBRANCH   1  14
BRANCH   1  25
ATOM     25  O   UNL     1      -5.994   0.226 126.684  0.00  0.00    +0.000 OA
ATOM     26  H   UNL     1      -6.349   1.070 127.022  0.00  0.00    +0.000 HD
ENDBRANCH   1  25
TORSDOF 7
ENDMDL
MODEL 7
REMARK VINA RESULT:      -7.1      6.650      9.177
REMARK  Name = Oxyphencyclimine
REMARK  8 active torsions:
REMARK  status: ('A' for Active; 'I' for Inactive)
REMARK    1  A    between atoms: C_1  and  N_2
REMARK    2  A    between atoms: C_7  and  C_8
REMARK    3  A    between atoms: C_8  and  O_9
REMARK    4  A    between atoms: O_9  and  C_10
REMARK    5  A    between atoms: C_10  and  C_12
REMARK    6  A    between atoms: C_12  and  O_13
REMARK    7  A    between atoms: C_12  and  C_14
REMARK    8  A    between atoms: C_12  and  C_20
REMARK                            x       y       z     vdW  Elec       q    Type
REMARK                         _______ _______ _______ _____ _____    ______ ____
ROOT
ATOM      1  C   UNL     1      -8.973   6.000 130.395  0.00  0.00    +0.000 C 
ENDROOT
BRANCH   1   2
ATOM      2  C   UNL     1     -10.431   6.499 129.947  0.00  0.00    +0.000 C 
ATOM      3  C   UNL     1     -11.371   6.731 131.146  0.00  0.00    +0.000 C 
ATOM      4  C   UNL     1     -12.732   7.300 130.791  0.00  0.00    +0.000 C 
ATOM      5  C   UNL     1     -12.606   8.576 129.982  0.00  0.00    +0.000 C 
ATOM      6  C   UNL     1     -11.803   8.314 128.726  0.00  0.00    +0.000 C 
ATOM      7  C   UNL     1     -10.427   7.779 129.071  0.00  0.00    +0.000 C 
ENDBRANCH   1   2
BRANCH   1   8
ATOM      8  C   UNL     1      -9.031   5.329 131.789  0.00  0.00    +0.000 A 
ATOM      9  C   UNL     1      -8.472   5.936 132.929  0.00  0.00    +0.000 A 
ATOM     10  C   UNL     1      -8.255   5.248 134.114  0.00  0.00    +0.000 A 
ATOM     11  C   UNL     1      -8.636   3.925 134.214  0.00  0.00    +0.000 A 
ATOM     12  C   UNL     1      -9.210   3.286 133.117  0.00  0.00    +0.000 A 
ATOM     13  C   UNL     1      -9.430   3.984 131.922  0.00  0.00    +0.000 A 
ENDBRANCH   1   8
BRANCH   1  14
ATOM     14  C   UNL     1      -8.278   5.074 129.313  0.00  0.00    +0.000 C 
ATOM     15  O   UNL     1      -8.820   4.388 128.447  0.00  0.00    +0.000 OA
BRANCH  14  16
ATOM     16  O   UNL     1      -6.920   5.147 129.368  0.00  0.00    +0.000 OA
BRANCH  16  17
ATOM     17  C   UNL     1      -6.346   3.843 129.267  0.00  0.00    +0.000 C 
BRANCH  17  24
ATOM     18  C   UNL     1      -5.977   2.077 126.988  0.00  0.00    +0.000 C 
ATOM     19  N   UNL     1      -4.911   2.973 127.418  0.00  0.00    +0.000 N 
ATOM     20  C   UNL     1      -3.669   2.819 126.703  0.00  0.00    +0.000 C 
ATOM     21  C   UNL     1      -2.554   3.730 127.149  0.00  0.00    +0.000 C 
ATOM     22  C   UNL     1      -2.806   4.663 128.310  0.00  0.00    +0.000 C 
ATOM     23  N   UNL     1      -4.116   4.624 128.919  0.00  0.00    +0.000 NA
ATOM     24  C   UNL     1      -5.025   3.827 128.493  0.00  0.00    +0.000 C 
ENDBRANCH  17  24
ENDBRANCH  16  17
ENDBRANCH  14  16
ENDBRANCH   1  14
BRANCH   1  25
ATOM     25  O   UNL     1      -8.157   7.185 130.540  0.00  0.00    +0.000 OA
ATOM     26  H   UNL     1      -8.563   7.876 129.983  0.00  0.00    +0.000 HD
ENDBRANCH   1  25
TORSDOF 7
ENDMDL
MODEL 8
REMARK VINA RESULT:      -7.1      0.798      4.046
REMARK  Name = Oxyphencyclimine
REMARK  8 active torsions:
REMARK  status: ('A' for Active; 'I' for Inactive)
REMARK    1  A    between atoms: C_1  and  N_2
REMARK    2  A    between atoms: C_7  and  C_8
REMARK    3  A    between atoms: C_8  and  O_9
REMARK    4  A    between atoms: O_9  and  C_10
REMARK    5  A    between atoms: C_10  and  C_12
REMARK    6  A    between atoms: C_12  and  O_13
REMARK    7  A    between atoms: C_12  and  C_14
REMARK    8  A    between atoms: C_12  and  C_20
REMARK                            x       y       z     vdW  Elec       q    Type
REMARK                         _______ _______ _______ _____ _____    ______ ____
ROOT
ATOM      1  C   UNL     1      -7.342   2.163 123.430  0.00  0.00    +0.000 C 
ENDROOT
BRANCH   1   2
ATOM      2  C   UNL     1      -7.447   3.281 122.283  0.00  0.00    +0.000 C 
ATOM      3  C   UNL     1      -6.204   3.316 121.374  0.00  0.00    +0.000 C 
ATOM      4  C   UNL     1      -6.289   4.285 120.210  0.00  0.00    +0.000 C 
ATOM      5  C   UNL     1      -7.529   4.040 119.374  0.00  0.00    +0.000 C 
ATOM      6  C   UNL     1      -8.766   4.151 120.240  0.00  0.00    +0.000 C 
ATOM      7  C   UNL     1      -8.708   3.161 121.388  0.00  0.00    +0.000 C 
ENDBRANCH   1   2
BRANCH   1   8
ATOM      8  C   UNL     1      -6.372   2.619 124.548  0.00  0.00    +0.000 A 
ATOM      9  C   UNL     1      -5.823   3.914 124.570  0.00  0.00    +0.000 A 
ATOM     10  C   UNL     1      -4.748   4.259 125.377  0.00  0.00    +0.000 A 
ATOM     11  C   UNL     1      -4.208   3.318 126.232  0.00  0.00    +0.000 A 
ATOM     12  C   UNL     1      -4.730   2.026 126.257  0.00  0.00    +0.000 A 
ATOM     13  C   UNL     1      -5.817   1.683 125.442  0.00  0.00    +0.000 A 
ENDBRANCH   1   8
BRANCH   1  14
ATOM     14  C   UNL     1      -8.755   1.730 124.003  0.00  0.00    +0.000 C 
ATOM     15  O   UNL     1      -9.542   2.410 124.660  0.00  0.00    +0.000 OA
BRANCH  14  16
ATOM     16  O   UNL     1      -9.098   0.468 123.628  0.00  0.00    +0.000 OA
BRANCH  16  17
ATOM     17  C   UNL     1      -9.085  -0.407 124.756  0.00  0.00    +0.000 C 
BRANCH  17  24
ATOM     18  C   UNL     1      -7.806  -1.035 127.290  0.00  0.00    +0.000 C 
ATOM     19  N   UNL     1      -7.285  -1.570 126.038  0.00  0.00    +0.000 N 
ATOM     20  C   UNL     1      -6.058  -2.316 126.165  0.00  0.00    +0.000 C 
ATOM     21  C   UNL     1      -5.502  -2.861 124.875  0.00  0.00    +0.000 C 
ATOM     22  C   UNL     1      -6.226  -2.546 123.587  0.00  0.00    +0.000 C 
ATOM     23  N   UNL     1      -7.420  -1.738 123.679  0.00  0.00    +0.000 NA
ATOM     24  C   UNL     1      -7.845  -1.303 124.808  0.00  0.00    +0.000 C 
ENDBRANCH  17  24
ENDBRANCH  16  17
ENDBRANCH  14  16
ENDBRANCH   1  14
BRANCH   1  25
ATOM     25  O   UNL     1      -6.748   0.997 122.816  0.00  0.00    +0.000 OA
ATOM     26  H   UNL     1      -7.302   0.234 123.066  0.00  0.00    +0.000 HD
ENDBRANCH   1  25
TORSDOF 7
ENDMDL
MODEL 9
REMARK VINA RESULT:      -6.9      3.761      6.918
REMARK  Name = Oxyphencyclimine
REMARK  8 active torsions:
REMARK  status: ('A' for Active; 'I' for Inactive)
REMARK    1  A    between atoms: C_1  and  N_2
REMARK    2  A    between atoms: C_7  and  C_8
REMARK    3  A    between atoms: C_8  and  O_9
REMARK    4  A    between atoms: O_9  and  C_10
REMARK    5  A    between atoms: C_10  and  C_12
REMARK    6  A    between atoms: C_12  and  O_13
REMARK    7  A    between atoms: C_12  and  C_14
REMARK    8  A    between atoms: C_12  and  C_20
REMARK                            x       y       z     vdW  Elec       q    Type
REMARK                         _______ _______ _______ _____ _____    ______ ____
ROOT
ATOM      1  C   UNL     1      -8.188  -0.692 125.843  0.00  0.00    +0.000 C 
ENDROOT
BRANCH   1   2
ATOM      2  C   UNL     1      -7.032  -0.954 124.759  0.00  0.00    +0.000 C 
ATOM      3  C   UNL     1      -5.921  -1.879 125.292  0.00  0.00    +0.000 C 
ATOM      4  C   UNL     1      -4.853  -2.243 124.278  0.00  0.00    +0.000 C 
ATOM      5  C   UNL     1      -5.459  -2.838 123.022  0.00  0.00    +0.000 C 
ATOM      6  C   UNL     1      -6.447  -1.865 122.416  0.00  0.00    +0.000 C 
ATOM      7  C   UNL     1      -7.541  -1.521 123.408  0.00  0.00    +0.000 C 
ENDBRANCH   1   2
BRANCH   1   8
ATOM      8  C   UNL     1      -8.132  -1.756 126.966  0.00  0.00    +0.000 A 
ATOM      9  C   UNL     1      -8.750  -3.013 126.828  0.00  0.00    +0.000 A 
ATOM     10  C   UNL     1      -8.964  -3.864 127.902  0.00  0.00    +0.000 A 
ATOM     11  C   UNL     1      -8.521  -3.502 129.159  0.00  0.00    +0.000 A 
ATOM     12  C   UNL     1      -7.888  -2.274 129.341  0.00  0.00    +0.000 A 
ATOM     13  C   UNL     1      -7.671  -1.417 128.254  0.00  0.00    +0.000 A 
ENDBRANCH   1   8
BRANCH   1  14
ATOM     14  C   UNL     1      -8.173   0.786 126.416  0.00  0.00    +0.000 C 
ATOM     15  O   UNL     1      -9.096   1.394 126.957  0.00  0.00    +0.000 OA
BRANCH  14  16
ATOM     16  O   UNL     1      -6.945   1.362 126.323  0.00  0.00    +0.000 OA
BRANCH  16  17
ATOM     17  C   UNL     1      -6.621   2.043 127.536  0.00  0.00    +0.000 C 
BRANCH  17  24
ATOM     18  C   UNL     1      -5.582   3.409 129.883  0.00  0.00    +0.000 C 
ATOM     19  N   UNL     1      -4.739   3.186 128.715  0.00  0.00    +0.000 N 
ATOM     20  C   UNL     1      -3.430   3.785 128.793  0.00  0.00    +0.000 C 
ATOM     21  C   UNL     1      -2.555   3.573 127.584  0.00  0.00    +0.000 C 
ATOM     22  C   UNL     1      -3.123   2.819 126.405  0.00  0.00    +0.000 C 
ATOM     23  N   UNL     1      -4.482   2.340 126.518  0.00  0.00    +0.000 NA
ATOM     24  C   UNL     1      -5.177   2.551 127.574  0.00  0.00    +0.000 C 
ENDBRANCH  17  24
ENDBRANCH  16  17
ENDBRANCH  14  16
ENDBRANCH   1  14
BRANCH   1  25
ATOM     25  O   UNL     1      -9.447  -0.878 125.158  0.00  0.00    +0.000 OA
ATOM     26  H   UNL     1      -9.869  -0.000 125.100  0.00  0.00    +0.000 HD
ENDBRANCH   1  25
TORSDOF 7
ENDMDL
