MODEL 1
REMARK VINA RESULT:      -5.8      0.000      0.000
REMARK  Name = Oxyquinoline
REMARK  1 active torsions:
REMARK  status: ('A' for Active; 'I' for Inactive)
REMARK    1  A    between atoms: O_1  and  C_2
REMARK                            x       y       z     vdW  Elec       q    Type
REMARK                         _______ _______ _______ _____ _____    ______ ____
ROOT
ATOM      1  C   UNL     1      -9.197   6.951 130.665  0.00  0.00    +0.000 A 
ATOM      2  C   UNL     1      -9.469   6.319 131.881  0.00  0.00    +0.000 A 
ATOM      3  C   UNL     1     -10.788   6.175 132.300  0.00  0.00    +0.000 A 
ATOM      4  C   UNL     1     -11.824   6.651 131.499  0.00  0.00    +0.000 A 
ATOM      5  C   UNL     1     -11.548   7.275 130.269  0.00  0.00    +0.000 A 
ATOM      6  C   UNL     1     -10.213   7.440 129.834  0.00  0.00    +0.000 A 
ATOM      7  N   UNL     1      -9.923   8.041 128.659  0.00  0.00    +0.000 NA
ATOM      8  C   UNL     1     -10.936   8.482 127.890  0.00  0.00    +0.000 A 
ATOM      9  C   UNL     1     -12.268   8.357 128.230  0.00  0.00    +0.000 A 
ATOM     10  C   UNL     1     -12.575   7.745 129.439  0.00  0.00    +0.000 A 
ENDROOT
BRANCH   1  11
ATOM     11  O   UNL     1      -7.889   7.101 130.261  0.00  0.00    +0.000 OA
ATOM     12  H   UNL     1      -7.729   6.575 129.465  0.00  0.00    +0.000 HD
ENDBRANCH   1  11
TORSDOF 1
ENDMDL
MODEL 2
REMARK VINA RESULT:      -5.7      2.243      4.162
REMARK  Name = Oxyquinoline
REMARK  1 active torsions:
REMARK  status: ('A' for Active; 'I' for Inactive)
REMARK    1  A    between atoms: O_1  and  C_2
REMARK                            x       y       z     vdW  Elec       q    Type
REMARK                         _______ _______ _______ _____ _____    ______ ____
ROOT
ATOM      1  C   UNL     1     -12.397   7.442 130.686  0.00  0.00    +0.000 A 
ATOM      2  C   UNL     1     -12.614   8.103 129.474  0.00  0.00    +0.000 A 
ATOM      3  C   UNL     1     -11.537   8.370 128.635  0.00  0.00    +0.000 A 
ATOM      4  C   UNL     1     -10.255   7.966 129.005  0.00  0.00    +0.000 A 
ATOM      5  C   UNL     1     -10.041   7.289 130.219  0.00  0.00    +0.000 A 
ATOM      6  C   UNL     1     -11.123   7.020 131.089  0.00  0.00    +0.000 A 
ATOM      7  N   UNL     1     -10.941   6.377 132.263  0.00  0.00    +0.000 NA
ATOM      8  C   UNL     1      -9.700   5.980 132.599  0.00  0.00    +0.000 A 
ATOM      9  C   UNL     1      -8.588   6.192 131.809  0.00  0.00    +0.000 A 
ATOM     10  C   UNL     1      -8.764   6.858 130.603  0.00  0.00    +0.000 A 
ENDROOT
BRANCH   1  11
ATOM     11  O   UNL     1     -13.465   7.191 131.518  0.00  0.00    +0.000 OA
ATOM     12  H   UNL     1     -13.972   8.004 131.656  0.00  0.00    +0.000 HD
ENDBRANCH   1  11
TORSDOF 1
ENDMDL
MODEL 3
REMARK VINA RESULT:      -5.7      1.474      3.388
REMARK  Name = Oxyquinoline
REMARK  1 active torsions:
REMARK  status: ('A' for Active; 'I' for Inactive)
REMARK    1  A    between atoms: O_1  and  C_2
REMARK                            x       y       z     vdW  Elec       q    Type
REMARK                         _______ _______ _______ _____ _____    ______ ____
ROOT
ATOM      1  C   UNL     1     -10.764   7.858 129.289  0.00  0.00    +0.000 A 
ATOM      2  C   UNL     1     -12.160   7.856 129.357  0.00  0.00    +0.000 A 
ATOM      3  C   UNL     1     -12.795   7.221 130.419  0.00  0.00    +0.000 A 
ATOM      4  C   UNL     1     -12.034   6.602 131.410  0.00  0.00    +0.000 A 
ATOM      5  C   UNL     1     -10.629   6.616 131.346  0.00  0.00    +0.000 A 
ATOM      6  C   UNL     1      -9.968   7.248 130.267  0.00  0.00    +0.000 A 
ATOM      7  N   UNL     1      -8.620   7.269 130.180  0.00  0.00    +0.000 NA
ATOM      8  C   UNL     1      -7.900   6.680 131.153  0.00  0.00    +0.000 A 
ATOM      9  C   UNL     1      -8.458   6.048 132.245  0.00  0.00    +0.000 A 
ATOM     10  C   UNL     1      -9.844   6.016 132.340  0.00  0.00    +0.000 A 
ENDROOT
BRANCH   1  11
ATOM     11  O   UNL     1     -10.142   8.478 128.229  0.00  0.00    +0.000 OA
ATOM     12  H   UNL     1      -9.403   9.015 128.550  0.00  0.00    +0.000 HD
ENDBRANCH   1  11
TORSDOF 1
ENDMDL
MODEL 4
REMARK VINA RESULT:      -5.7      1.818      2.495
REMARK  Name = Oxyquinoline
REMARK  1 active torsions:
REMARK  status: ('A' for Active; 'I' for Inactive)
REMARK    1  A    between atoms: O_1  and  C_2
REMARK                            x       y       z     vdW  Elec       q    Type
REMARK                         _______ _______ _______ _____ _____    ______ ____
ROOT
ATOM      1  C   UNL     1     -11.095   6.454 131.510  0.00  0.00    +0.000 A 
ATOM      2  C   UNL     1      -9.806   6.225 132.003  0.00  0.00    +0.000 A 
ATOM      3  C   UNL     1      -8.705   6.664 131.275  0.00  0.00    +0.000 A 
ATOM      4  C   UNL     1      -8.897   7.338 130.070  0.00  0.00    +0.000 A 
ATOM      5  C   UNL     1     -10.194   7.580 129.583  0.00  0.00    +0.000 A 
ATOM      6  C   UNL     1     -11.324   7.129 130.305  0.00  0.00    +0.000 A 
ATOM      7  N   UNL     1     -12.580   7.344 129.855  0.00  0.00    +0.000 NA
ATOM      8  C   UNL     1     -12.748   8.009 128.697  0.00  0.00    +0.000 A 
ATOM      9  C   UNL     1     -11.706   8.492 127.932  0.00  0.00    +0.000 A 
ATOM     10  C   UNL     1     -10.410   8.271 128.383  0.00  0.00    +0.000 A 
ENDROOT
BRANCH   1  11
ATOM     11  O   UNL     1     -12.180   6.006 132.229  0.00  0.00    +0.000 OA
ATOM     12  H   UNL     1     -12.943   5.905 131.643  0.00  0.00    +0.000 HD
ENDBRANCH   1  11
TORSDOF 1
ENDMDL
MODEL 5
REMARK VINA RESULT:      -5.7      9.355     10.873
REMARK  Name = Oxyquinoline
REMARK  1 active torsions:
REMARK  status: ('A' for Active; 'I' for Inactive)
REMARK    1  A    between atoms: O_1  and  C_2
REMARK                            x       y       z     vdW  Elec       q    Type
REMARK                         _______ _______ _______ _____ _____    ______ ____
ROOT
ATOM      1  C   UNL     1      -8.285   4.065 119.884  0.00  0.00    +0.000 A 
ATOM      2  C   UNL     1      -7.357   4.588 118.979  0.00  0.00    +0.000 A 
ATOM      3  C   UNL     1      -6.026   4.724 119.363  0.00  0.00    +0.000 A 
ATOM      4  C   UNL     1      -5.629   4.326 120.639  0.00  0.00    +0.000 A 
ATOM      5  C   UNL     1      -6.563   3.787 121.542  0.00  0.00    +0.000 A 
ATOM      6  C   UNL     1      -7.922   3.654 121.173  0.00  0.00    +0.000 A 
ATOM      7  N   UNL     1      -8.837   3.145 122.026  0.00  0.00    +0.000 NA
ATOM      8  C   UNL     1      -8.435   2.752 123.249  0.00  0.00    +0.000 A 
ATOM      9  C   UNL     1      -7.131   2.838 123.692  0.00  0.00    +0.000 A 
ATOM     10  C   UNL     1      -6.183   3.365 122.824  0.00  0.00    +0.000 A 
ENDROOT
BRANCH   1  11
ATOM     11  O   UNL     1      -9.602   3.944 119.504  0.00  0.00    +0.000 OA
ATOM     12  H   UNL     1      -9.708   3.176 118.925  0.00  0.00    +0.000 HD
ENDBRANCH   1  11
TORSDOF 1
ENDMDL
MODEL 6
REMARK VINA RESULT:      -5.4      1.521      3.529
REMARK  Name = Oxyquinoline
REMARK  1 active torsions:
REMARK  status: ('A' for Active; 'I' for Inactive)
REMARK    1  A    between atoms: O_1  and  C_2
REMARK                            x       y       z     vdW  Elec       q    Type
REMARK                         _______ _______ _______ _____ _____    ______ ____
ROOT
ATOM      1  C   UNL     1     -10.825   7.002 127.989  0.00  0.00    +0.000 A 
ATOM      2  C   UNL     1     -11.839   7.704 127.330  0.00  0.00    +0.000 A 
ATOM      3  C   UNL     1     -12.944   8.150 128.048  0.00  0.00    +0.000 A 
ATOM      4  C   UNL     1     -13.024   7.904 129.418  0.00  0.00    +0.000 A 
ATOM      5  C   UNL     1     -11.996   7.210 130.081  0.00  0.00    +0.000 A 
ATOM      6  C   UNL     1     -10.872   6.739 129.364  0.00  0.00    +0.000 A 
ATOM      7  N   UNL     1      -9.876   6.064 129.979  0.00  0.00    +0.000 NA
ATOM      8  C   UNL     1      -9.961   5.848 131.304  0.00  0.00    +0.000 A 
ATOM      9  C   UNL     1     -11.015   6.277 132.085  0.00  0.00    +0.000 A 
ATOM     10  C   UNL     1     -12.048   6.967 131.461  0.00  0.00    +0.000 A 
ENDROOT
BRANCH   1  11
ATOM     11  O   UNL     1      -9.740   6.553 127.272  0.00  0.00    +0.000 OA
ATOM     12  H   UNL     1      -9.456   7.232 126.644  0.00  0.00    +0.000 HD
ENDBRANCH   1  11
TORSDOF 1
ENDMDL
MODEL 7
REMARK VINA RESULT:      -5.2     10.823     11.204
REMARK  Name = Oxyquinoline
REMARK  1 active torsions:
REMARK  status: ('A' for Active; 'I' for Inactive)
REMARK    1  A    between atoms: O_1  and  C_2
REMARK                            x       y       z     vdW  Elec       q    Type
REMARK                         _______ _______ _______ _____ _____    ______ ____
ROOT
ATOM      1  C   UNL     1      -9.000  -2.564 123.500  0.00  0.00    +0.000 A 
ATOM      2  C   UNL     1      -7.865  -3.229 123.973  0.00  0.00    +0.000 A 
ATOM      3  C   UNL     1      -6.708  -2.504 124.244  0.00  0.00    +0.000 A 
ATOM      4  C   UNL     1      -6.696  -1.123 124.053  0.00  0.00    +0.000 A 
ATOM      5  C   UNL     1      -7.844  -0.455 123.591  0.00  0.00    +0.000 A 
ATOM      6  C   UNL     1      -9.024  -1.178 123.299  0.00  0.00    +0.000 A 
ATOM      7  N   UNL     1     -10.137  -0.559 122.847  0.00  0.00    +0.000 NA
ATOM      8  C   UNL     1     -10.114   0.776 122.683  0.00  0.00    +0.000 A 
ATOM      9  C   UNL     1      -9.011   1.563 122.950  0.00  0.00    +0.000 A 
ATOM     10  C   UNL     1      -7.860   0.935 123.409  0.00  0.00    +0.000 A 
ENDROOT
BRANCH   1  11
ATOM     11  O   UNL     1     -10.138  -3.288 123.223  0.00  0.00    +0.000 OA
ATOM     12  H   UNL     1      -9.897  -4.172 122.912  0.00  0.00    +0.000 HD
ENDBRANCH   1  11
TORSDOF 1
ENDMDL
MODEL 8
REMARK VINA RESULT:      -5.0      1.694      2.087
REMARK  Name = Oxyquinoline
REMARK  1 active torsions:
REMARK  status: ('A' for Active; 'I' for Inactive)
REMARK    1  A    between atoms: O_1  and  C_2
REMARK                            x       y       z     vdW  Elec       q    Type
REMARK                         _______ _______ _______ _____ _____    ______ ____
ROOT
ATOM      1  C   UNL     1      -9.324   5.590 129.680  0.00  0.00    +0.000 A 
ATOM      2  C   UNL     1      -8.459   5.351 130.752  0.00  0.00    +0.000 A 
ATOM      3  C   UNL     1      -8.861   5.674 132.044  0.00  0.00    +0.000 A 
ATOM      4  C   UNL     1     -10.125   6.221 132.259  0.00  0.00    +0.000 A 
ATOM      5  C   UNL     1     -10.999   6.448 131.180  0.00  0.00    +0.000 A 
ATOM      6  C   UNL     1     -10.601   6.137 129.859  0.00  0.00    +0.000 A 
ATOM      7  N   UNL     1     -11.420   6.352 128.807  0.00  0.00    +0.000 NA
ATOM      8  C   UNL     1     -12.643   6.867 129.033  0.00  0.00    +0.000 A 
ATOM      9  C   UNL     1     -13.118   7.193 130.287  0.00  0.00    +0.000 A 
ATOM     10  C   UNL     1     -12.281   6.981 131.375  0.00  0.00    +0.000 A 
ENDROOT
BRANCH   1  11
ATOM     11  O   UNL     1      -8.916   5.280 128.403  0.00  0.00    +0.000 OA
ATOM     12  H   UNL     1      -9.482   4.586 128.036  0.00  0.00    +0.000 HD
ENDBRANCH   1  11
TORSDOF 1
ENDMDL
MODEL 9
REMARK VINA RESULT:      -4.9     10.971     11.226
REMARK  Name = Oxyquinoline
REMARK  1 active torsions:
REMARK  status: ('A' for Active; 'I' for Inactive)
REMARK    1  A    between atoms: O_1  and  C_2
REMARK                            x       y       z     vdW  Elec       q    Type
REMARK                         _______ _______ _______ _____ _____    ______ ____
ROOT
ATOM      1  C   UNL     1      -6.712  -2.068 126.708  0.00  0.00    +0.000 A 
ATOM      2  C   UNL     1      -7.146  -2.534 127.953  0.00  0.00    +0.000 A 
ATOM      3  C   UNL     1      -8.332  -3.257 128.040  0.00  0.00    +0.000 A 
ATOM      4  C   UNL     1      -9.069  -3.518 126.886  0.00  0.00    +0.000 A 
ATOM      5  C   UNL     1      -8.623  -3.059 125.633  0.00  0.00    +0.000 A 
ATOM      6  C   UNL     1      -7.426  -2.313 125.528  0.00  0.00    +0.000 A 
ATOM      7  N   UNL     1      -6.982  -1.856 124.337  0.00  0.00    +0.000 NA
ATOM      8  C   UNL     1      -7.698  -2.130 123.231  0.00  0.00    +0.000 A 
ATOM      9  C   UNL     1      -8.871  -2.857 123.237  0.00  0.00    +0.000 A 
ATOM     10  C   UNL     1      -9.339  -3.325 124.458  0.00  0.00    +0.000 A 
ENDROOT
BRANCH   1  11
ATOM     11  O   UNL     1      -5.544  -1.343 126.630  0.00  0.00    +0.000 OA
ATOM     12  H   UNL     1      -4.788  -1.944 126.578  0.00  0.00    +0.000 HD
ENDBRANCH   1  11
TORSDOF 1
ENDMDL
