MODEL 1
REMARK VINA RESULT:      -8.3      0.000      0.000
REMARK  Name = Oxytetracycline
REMARK  11 active torsions:
REMARK  status: ('A' for Active; 'I' for Inactive)
REMARK    1  A    between atoms: C_3  and  O_4
REMARK    2  A    between atoms: C_15  and  O_16
REMARK    3  A    between atoms: C_17  and  C_18
REMARK    4  A    between atoms: C_17  and  O_19
REMARK    5  A    between atoms: C_20  and  O_21
REMARK    6  A    between atoms: C_22  and  O_23
REMARK    7  A    between atoms: C_26  and  C_27
REMARK    8  A    between atoms: C_30  and  O_31
REMARK    9  A    between atoms: C_32  and  N_33
REMARK   10  A    between atoms: N_33  and  C_34
REMARK   11  A    between atoms: N_33  and  C_35
REMARK                            x       y       z     vdW  Elec       q    Type
REMARK                         _______ _______ _______ _____ _____    ______ ____
ROOT
ATOM      1  C   UNL     1      -6.830   4.151 130.724  0.00  0.00    +0.000 C 
ATOM      2  C   UNL     1      -8.409   4.701 131.189  0.00  0.00    +0.000 C 
ATOM      3  C   UNL     1      -9.099   5.832 130.562  0.00  0.00    +0.000 C 
ATOM      4  C   UNL     1      -9.126   5.605 129.146  0.00  0.00    +0.000 C 
ATOM      5  C   UNL     1      -9.943   6.550 128.339  0.00  0.00    +0.000 C 
ATOM      6  O   UNL     1      -9.768   6.623 127.130  0.00  0.00    +0.000 OA
ATOM      7  C   UNL     1     -11.004   7.276 129.135  0.00  0.00    +0.000 A 
ATOM      8  C   UNL     1     -11.280   6.884 130.460  0.00  0.00    +0.000 A 
ATOM      9  C   UNL     1     -12.264   7.509 131.223  0.00  0.00    +0.000 A 
ATOM     10  C   UNL     1     -12.956   8.568 130.734  0.00  0.00    +0.000 A 
ATOM     11  C   UNL     1     -12.720   8.961 129.427  0.00  0.00    +0.000 A 
ATOM     12  C   UNL     1     -11.760   8.318 128.625  0.00  0.00    +0.000 A 
ATOM     13  C   UNL     1     -10.535   5.792 131.134  0.00  0.00    +0.000 C 
ATOM     14  C   UNL     1     -10.495   6.045 132.674  0.00  0.00    +0.000 C 
ATOM     15  C   UNL     1      -8.507   4.488 128.771  0.00  0.00    +0.000 C 
ATOM     16  C   UNL     1      -7.655   3.400 129.874  0.00  0.00    +0.000 C 
ATOM     17  C   UNL     1      -7.791   2.730 131.781  0.00  0.00    +0.000 C 
ATOM     18  O   UNL     1      -7.846   3.353 132.917  0.00  0.00    +0.000 OA
ATOM     19  C   UNL     1      -7.162   1.554 132.467  0.00  0.00    +0.000 C 
ATOM     20  C   UNL     1      -5.944   2.083 132.101  0.00  0.00    +0.000 C 
ATOM     21  C   UNL     1      -5.952   2.469 130.655  0.00  0.00    +0.000 C 
ENDROOT
BRANCH  19  22
ATOM     22  C   UNL     1      -8.327   0.562 132.339  0.00  0.00    +0.000 C 
ATOM     23  N   UNL     1      -9.511   1.083 131.891  0.00  0.00    +0.000 N 
ATOM     24  O   UNL     1      -8.232  -0.635 132.579  0.00  0.00    +0.000 OA
ATOM     25  H   UNL     1      -9.345   1.955 131.416  0.00  0.00    +0.000 HD
ATOM     26  H   UNL     1     -10.027   0.463 131.286  0.00  0.00    +0.000 HD
ENDBRANCH  19  22
BRANCH  21  27
ATOM     27  N   UNL     1      -6.765   1.147 130.014  0.00  0.00    +0.000 NA
ATOM     28  C   UNL     1      -7.810   1.172 128.967  0.00  0.00    +0.000 C 
ATOM     29  C   UNL     1      -5.986  -0.088 129.946  0.00  0.00    +0.000 C 
ENDBRANCH  21  27
BRANCH   2  30
ATOM     30  O   UNL     1      -8.342   5.265 132.458  0.00  0.00    +0.000 OA
ATOM     31  H   UNL     1      -7.529   4.960 132.873  0.00  0.00    +0.000 HD
ENDBRANCH   2  30
BRANCH  12  32
ATOM     32  O   UNL     1     -11.567   8.735 127.345  0.00  0.00    +0.000 OA
ATOM     33  H   UNL     1     -10.764   8.326 126.990  0.00  0.00    +0.000 HD
ENDBRANCH  12  32
BRANCH  13  34
ATOM     34  O   UNL     1     -11.246   4.578 130.815  0.00  0.00    +0.000 OA
ATOM     35  H   UNL     1     -10.710   4.032 130.205  0.00  0.00    +0.000 HD
ENDBRANCH  13  34
BRANCH  15  36
ATOM     36  O   UNL     1      -8.273   4.340 127.376  0.00  0.00    +0.000 OA
ATOM     37  H   UNL     1      -7.372   4.720 127.169  0.00  0.00    +0.000 HD
ENDBRANCH  15  36
BRANCH  16  38
ATOM     38  O   UNL     1      -6.628   3.353 128.775  0.00  0.00    +0.000 OA
ATOM     39  H   UNL     1      -5.832   2.903 129.136  0.00  0.00    +0.000 HD
ENDBRANCH  16  38
BRANCH  20  40
ATOM     40  O   UNL     1      -5.234   3.044 132.863  0.00  0.00    +0.000 OA
ATOM     41  H   UNL     1      -5.631   3.934 132.744  0.00  0.00    +0.000 HD
ENDBRANCH  20  40
TORSDOF 8
ENDMDL
MODEL 2
REMARK VINA RESULT:      -7.9      1.827      3.714
REMARK  Name = Oxytetracycline
REMARK  11 active torsions:
REMARK  status: ('A' for Active; 'I' for Inactive)
REMARK    1  A    between atoms: C_3  and  O_4
REMARK    2  A    between atoms: C_15  and  O_16
REMARK    3  A    between atoms: C_17  and  C_18
REMARK    4  A    between atoms: C_17  and  O_19
REMARK    5  A    between atoms: C_20  and  O_21
REMARK    6  A    between atoms: C_22  and  O_23
REMARK    7  A    between atoms: C_26  and  C_27
REMARK    8  A    between atoms: C_30  and  O_31
REMARK    9  A    between atoms: C_32  and  N_33
REMARK   10  A    between atoms: N_33  and  C_34
REMARK   11  A    between atoms: N_33  and  C_35
REMARK                            x       y       z     vdW  Elec       q    Type
REMARK                         _______ _______ _______ _____ _____    ______ ____
ROOT
ATOM      1  C   UNL     1      -9.110   2.009 131.275  0.00  0.00    +0.000 C 
ATOM      2  C   UNL     1      -8.914   3.376 130.222  0.00  0.00    +0.000 C 
ATOM      3  C   UNL     1      -9.926   4.421 130.042  0.00  0.00    +0.000 C 
ATOM      4  C   UNL     1     -10.276   4.927 131.338  0.00  0.00    +0.000 C 
ATOM      5  C   UNL     1     -11.157   6.125 131.366  0.00  0.00    +0.000 C 
ATOM      6  O   UNL     1     -11.748   6.419 132.396  0.00  0.00    +0.000 OA
ATOM      7  C   UNL     1     -11.144   6.924 130.082  0.00  0.00    +0.000 A 
ATOM      8  C   UNL     1     -10.201   6.628 129.079  0.00  0.00    +0.000 A 
ATOM      9  C   UNL     1     -10.138   7.352 127.890  0.00  0.00    +0.000 A 
ATOM     10  C   UNL     1     -11.032   8.337 127.627  0.00  0.00    +0.000 A 
ATOM     11  C   UNL     1     -11.957   8.663 128.605  0.00  0.00    +0.000 A 
ATOM     12  C   UNL     1     -12.013   7.973 129.829  0.00  0.00    +0.000 A 
ATOM     13  C   UNL     1      -9.222   5.521 129.214  0.00  0.00    +0.000 C 
ATOM     14  C   UNL     1      -8.850   4.963 127.805  0.00  0.00    +0.000 C 
ATOM     15  C   UNL     1      -9.646   4.316 132.339  0.00  0.00    +0.000 C 
ATOM     16  C   UNL     1      -8.537   2.955 132.138  0.00  0.00    +0.000 C 
ATOM     17  C   UNL     1      -7.167   2.273 130.810  0.00  0.00    +0.000 C 
ATOM     18  O   UNL     1      -7.244   2.008 129.543  0.00  0.00    +0.000 OA
ATOM     19  C   UNL     1      -6.074   1.253 130.946  0.00  0.00    +0.000 C 
ATOM     20  C   UNL     1      -7.054   0.358 131.314  0.00  0.00    +0.000 C 
ATOM     21  C   UNL     1      -7.952   0.957 132.350  0.00  0.00    +0.000 C 
ENDROOT
BRANCH  19  22
ATOM     22  C   UNL     1      -4.904   2.207 131.228  0.00  0.00    +0.000 C 
ATOM     23  N   UNL     1      -5.149   3.536 131.011  0.00  0.00    +0.000 N 
ATOM     24  O   UNL     1      -3.816   1.842 131.655  0.00  0.00    +0.000 OA
ATOM     25  H   UNL     1      -6.140   3.708 131.010  0.00  0.00    +0.000 HD
ATOM     26  H   UNL     1      -4.701   4.147 131.676  0.00  0.00    +0.000 HD
ENDBRANCH  19  22
BRANCH  21  27
ATOM     27  N   UNL     1      -6.806   1.722 133.310  0.00  0.00    +0.000 NA
ATOM     28  C   UNL     1      -6.910   3.071 133.908  0.00  0.00    +0.000 C 
ATOM     29  C   UNL     1      -6.012   0.832 134.156  0.00  0.00    +0.000 C 
ENDBRANCH  21  27
BRANCH   2  30
ATOM     30  O   UNL     1      -8.927   2.941 128.901  0.00  0.00    +0.000 OA
ATOM     31  H   UNL     1      -8.543   2.060 128.878  0.00  0.00    +0.000 HD
ENDBRANCH   2  30
BRANCH  12  32
ATOM     32  O   UNL     1     -12.935   8.332 130.761  0.00  0.00    +0.000 OA
ATOM     33  H   UNL     1     -12.939   7.682 131.478  0.00  0.00    +0.000 HD
ENDBRANCH  12  32
BRANCH  13  34
ATOM     34  O   UNL     1      -8.074   6.092 129.877  0.00  0.00    +0.000 OA
ATOM     35  H   UNL     1      -8.290   6.274 130.814  0.00  0.00    +0.000 HD
ENDBRANCH  13  34
BRANCH  15  36
ATOM     36  O   UNL     1     -10.137   4.587 133.646  0.00  0.00    +0.000 OA
ATOM     37  H   UNL     1      -9.560   5.293 134.056  0.00  0.00    +0.000 HD
ENDBRANCH  15  36
BRANCH  16  38
ATOM     38  O   UNL     1      -9.245   2.409 133.348  0.00  0.00    +0.000 OA
ATOM     39  H   UNL     1      -8.613   2.446 134.100  0.00  0.00    +0.000 HD
ENDBRANCH  16  38
BRANCH  20  40
ATOM     40  O   UNL     1      -7.808  -0.415 130.397  0.00  0.00    +0.000 OA
ATOM     41  H   UNL     1      -8.737  -0.500 130.704  0.00  0.00    +0.000 HD
ENDBRANCH  20  40
TORSDOF 8
ENDMDL
MODEL 3
REMARK VINA RESULT:      -7.7      5.951      7.762
REMARK  Name = Oxytetracycline
REMARK  11 active torsions:
REMARK  status: ('A' for Active; 'I' for Inactive)
REMARK    1  A    between atoms: C_3  and  O_4
REMARK    2  A    between atoms: C_15  and  O_16
REMARK    3  A    between atoms: C_17  and  C_18
REMARK    4  A    between atoms: C_17  and  O_19
REMARK    5  A    between atoms: C_20  and  O_21
REMARK    6  A    between atoms: C_22  and  O_23
REMARK    7  A    between atoms: C_26  and  C_27
REMARK    8  A    between atoms: C_30  and  O_31
REMARK    9  A    between atoms: C_32  and  N_33
REMARK   10  A    between atoms: N_33  and  C_34
REMARK   11  A    between atoms: N_33  and  C_35
REMARK                            x       y       z     vdW  Elec       q    Type
REMARK                         _______ _______ _______ _____ _____    ______ ____
ROOT
ATOM      1  C   UNL     1      -7.598  -1.029 130.357  0.00  0.00    +0.000 C 
ATOM      2  C   UNL     1      -7.635  -1.951 128.886  0.00  0.00    +0.000 C 
ATOM      3  C   UNL     1      -8.215  -1.464 127.630  0.00  0.00    +0.000 C 
ATOM      4  C   UNL     1      -7.613  -0.198 127.326  0.00  0.00    +0.000 C 
ATOM      5  C   UNL     1      -7.930   0.384 125.994  0.00  0.00    +0.000 C 
ATOM      6  O   UNL     1      -7.726   1.572 125.788  0.00  0.00    +0.000 OA
ATOM      7  C   UNL     1      -8.405  -0.633 124.981  0.00  0.00    +0.000 A 
ATOM      8  C   UNL     1      -8.321  -2.008 125.271  0.00  0.00    +0.000 A 
ATOM      9  C   UNL     1      -8.725  -2.980 124.359  0.00  0.00    +0.000 A 
ATOM     10  C   UNL     1      -9.277  -2.631 123.169  0.00  0.00    +0.000 A 
ATOM     11  C   UNL     1      -9.353  -1.287 122.849  0.00  0.00    +0.000 A 
ATOM     12  C   UNL     1      -8.912  -0.290 123.738  0.00  0.00    +0.000 A 
ATOM     13  C   UNL     1      -7.810  -2.514 126.569  0.00  0.00    +0.000 C 
ATOM     14  C   UNL     1      -8.473  -3.885 126.906  0.00  0.00    +0.000 C 
ATOM     15  C   UNL     1      -6.744   0.217 128.246  0.00  0.00    +0.000 C 
ATOM     16  C   UNL     1      -6.394  -0.645 129.749  0.00  0.00    +0.000 C 
ATOM     17  C   UNL     1      -6.274  -2.547 130.438  0.00  0.00    +0.000 C 
ATOM     18  O   UNL     1      -7.121  -3.529 130.424  0.00  0.00    +0.000 OA
ATOM     19  C   UNL     1      -5.649  -3.116 131.677  0.00  0.00    +0.000 C 
ATOM     20  C   UNL     1      -6.465  -2.267 132.392  0.00  0.00    +0.000 C 
ATOM     21  C   UNL     1      -6.407  -0.883 131.828  0.00  0.00    +0.000 C 
ENDROOT
BRANCH  19  22
ATOM     22  C   UNL     1      -4.305  -3.553 131.077  0.00  0.00    +0.000 C 
ATOM     23  N   UNL     1      -4.239  -3.577 129.710  0.00  0.00    +0.000 N 
ATOM     24  O   UNL     1      -3.320  -3.836 131.747  0.00  0.00    +0.000 OA
ATOM     25  H   UNL     1      -4.968  -3.003 129.320  0.00  0.00    +0.000 HD
ATOM     26  H   UNL     1      -3.347  -3.286 129.340  0.00  0.00    +0.000 HD
ENDBRANCH  19  22
BRANCH  21  27
ATOM     27  N   UNL     1      -4.757  -0.766 131.537  0.00  0.00    +0.000 NA
ATOM     28  C   UNL     1      -4.108  -0.203 130.331  0.00  0.00    +0.000 C 
ATOM     29  C   UNL     1      -3.931  -0.553 132.724  0.00  0.00    +0.000 C 
ENDBRANCH  21  27
BRANCH   2  30
ATOM     30  O   UNL     1      -8.512  -3.020 129.038  0.00  0.00    +0.000 OA
ATOM     31  H   UNL     1      -8.055  -3.706 129.534  0.00  0.00    +0.000 HD
ENDBRANCH   2  30
BRANCH  12  32
ATOM     32  O   UNL     1      -9.001   1.018 123.378  0.00  0.00    +0.000 OA
ATOM     33  H   UNL     1      -8.335   1.213 122.703  0.00  0.00    +0.000 HD
ENDBRANCH  12  32
BRANCH  13  34
ATOM     34  O   UNL     1      -6.382  -2.642 126.405  0.00  0.00    +0.000 OA
ATOM     35  H   UNL     1      -6.090  -3.521 126.722  0.00  0.00    +0.000 HD
ENDBRANCH  13  34
BRANCH  15  36
ATOM     36  O   UNL     1      -6.313   1.568 128.137  0.00  0.00    +0.000 OA
ATOM     37  H   UNL     1      -6.089   1.899 129.052  0.00  0.00    +0.000 HD
ENDBRANCH  15  36
BRANCH  16  38
ATOM     38  O   UNL     1      -6.426   0.731 130.355  0.00  0.00    +0.000 OA
ATOM     39  H   UNL     1      -7.139   0.738 131.032  0.00  0.00    +0.000 HD
ENDBRANCH  16  38
BRANCH  20  40
ATOM     40  O   UNL     1      -7.790  -2.583 132.785  0.00  0.00    +0.000 OA
ATOM     41  H   UNL     1      -7.848  -3.521 133.069  0.00  0.00    +0.000 HD
ENDBRANCH  20  40
TORSDOF 8
ENDMDL
MODEL 4
REMARK VINA RESULT:      -7.7      5.669      7.155
REMARK  Name = Oxytetracycline
REMARK  11 active torsions:
REMARK  status: ('A' for Active; 'I' for Inactive)
REMARK    1  A    between atoms: C_3  and  O_4
REMARK    2  A    between atoms: C_15  and  O_16
REMARK    3  A    between atoms: C_17  and  C_18
REMARK    4  A    between atoms: C_17  and  O_19
REMARK    5  A    between atoms: C_20  and  O_21
REMARK    6  A    between atoms: C_22  and  O_23
REMARK    7  A    between atoms: C_26  and  C_27
REMARK    8  A    between atoms: C_30  and  O_31
REMARK    9  A    between atoms: C_32  and  N_33
REMARK   10  A    between atoms: N_33  and  C_34
REMARK   11  A    between atoms: N_33  and  C_35
REMARK                            x       y       z     vdW  Elec       q    Type
REMARK                         _______ _______ _______ _____ _____    ______ ____
ROOT
ATOM      1  C   UNL     1      -5.368  -2.158 128.124  0.00  0.00    +0.000 C 
ATOM      2  C   UNL     1      -5.948  -0.629 127.541  0.00  0.00    +0.000 C 
ATOM      3  C   UNL     1      -6.698  -0.461 126.293  0.00  0.00    +0.000 C 
ATOM      4  C   UNL     1      -7.817  -1.358 126.325  0.00  0.00    +0.000 C 
ATOM      5  C   UNL     1      -8.812  -1.216 125.228  0.00  0.00    +0.000 C 
ATOM      6  O   UNL     1      -9.601  -2.123 125.004  0.00  0.00    +0.000 OA
ATOM      7  C   UNL     1      -8.784   0.135 124.550  0.00  0.00    +0.000 A 
ATOM      8  C   UNL     1      -8.018   1.182 125.098  0.00  0.00    +0.000 A 
ATOM      9  C   UNL     1      -7.981   2.449 124.519  0.00  0.00    +0.000 A 
ATOM     10  C   UNL     1      -8.640   2.705 123.361  0.00  0.00    +0.000 A 
ATOM     11  C   UNL     1      -9.418   1.700 122.812  0.00  0.00    +0.000 A 
ATOM     12  C   UNL     1      -9.502   0.425 123.401  0.00  0.00    +0.000 A 
ATOM     13  C   UNL     1      -7.191   1.005 126.317  0.00  0.00    +0.000 C 
ATOM     14  C   UNL     1      -5.967   1.972 126.277  0.00  0.00    +0.000 C 
ATOM     15  C   UNL     1      -7.866  -2.115 127.419  0.00  0.00    +0.000 C 
ATOM     16  C   UNL     1      -6.646  -2.099 128.699  0.00  0.00    +0.000 C 
ATOM     17  C   UNL     1      -5.392  -0.796 129.610  0.00  0.00    +0.000 C 
ATOM     18  O   UNL     1      -4.478  -0.001 129.144  0.00  0.00    +0.000 OA
ATOM     19  C   UNL     1      -4.642  -0.881 130.907  0.00  0.00    +0.000 C 
ATOM     20  C   UNL     1      -4.062  -2.029 130.413  0.00  0.00    +0.000 C 
ATOM     21  C   UNL     1      -5.102  -2.937 129.835  0.00  0.00    +0.000 C 
ENDROOT
BRANCH  19  22
ATOM     22  C   UNL     1      -5.628  -0.108 131.794  0.00  0.00    +0.000 C 
ATOM     23  N   UNL     1      -6.615   0.576 131.138  0.00  0.00    +0.000 N 
ATOM     24  O   UNL     1      -5.588  -0.110 133.018  0.00  0.00    +0.000 OA
ATOM     25  H   UNL     1      -6.730   0.208 130.208  0.00  0.00    +0.000 HD
ATOM     26  H   UNL     1      -7.504   0.568 131.615  0.00  0.00    +0.000 HD
ENDBRANCH  19  22
BRANCH  21  27
ATOM     27  N   UNL     1      -6.298  -2.775 131.003  0.00  0.00    +0.000 NA
ATOM     28  C   UNL     1      -7.750  -2.617 130.768  0.00  0.00    +0.000 C 
ATOM     29  C   UNL     1      -6.045  -3.489 132.253  0.00  0.00    +0.000 C 
ENDBRANCH  21  27
BRANCH   2  30
ATOM     30  O   UNL     1      -4.865   0.156 127.159  0.00  0.00    +0.000 OA
ATOM     31  H   UNL     1      -4.070  -0.380 127.240  0.00  0.00    +0.000 HD
ENDBRANCH   2  30
BRANCH  12  32
ATOM     32  O   UNL     1     -10.284  -0.529 122.829  0.00  0.00    +0.000 OA
ATOM     33  H   UNL     1     -11.023  -0.106 122.368  0.00  0.00    +0.000 HD
ENDBRANCH  12  32
BRANCH  13  34
ATOM     34  O   UNL     1      -8.063   1.298 127.428  0.00  0.00    +0.000 OA
ATOM     35  H   UNL     1      -8.083   2.264 127.587  0.00  0.00    +0.000 HD
ENDBRANCH  13  34
BRANCH  15  36
ATOM     36  O   UNL     1      -8.790  -3.196 127.392  0.00  0.00    +0.000 OA
ATOM     37  H   UNL     1      -8.818  -3.605 128.304  0.00  0.00    +0.000 HD
ENDBRANCH  15  36
BRANCH  16  38
ATOM     38  O   UNL     1      -6.825  -3.593 128.663  0.00  0.00    +0.000 OA
ATOM     39  H   UNL     1      -7.691  -3.775 128.234  0.00  0.00    +0.000 HD
ENDBRANCH  16  38
BRANCH  20  40
ATOM     40  O   UNL     1      -2.894  -2.047 129.612  0.00  0.00    +0.000 OA
ATOM     41  H   UNL     1      -2.842  -2.885 129.101  0.00  0.00    +0.000 HD
ENDBRANCH  20  40
TORSDOF 8
ENDMDL
MODEL 5
REMARK VINA RESULT:      -7.6      6.088      8.020
REMARK  Name = Oxytetracycline
REMARK  11 active torsions:
REMARK  status: ('A' for Active; 'I' for Inactive)
REMARK    1  A    between atoms: C_3  and  O_4
REMARK    2  A    between atoms: C_15  and  O_16
REMARK    3  A    between atoms: C_17  and  C_18
REMARK    4  A    between atoms: C_17  and  O_19
REMARK    5  A    between atoms: C_20  and  O_21
REMARK    6  A    between atoms: C_22  and  O_23
REMARK    7  A    between atoms: C_26  and  C_27
REMARK    8  A    between atoms: C_30  and  O_31
REMARK    9  A    between atoms: C_32  and  N_33
REMARK   10  A    between atoms: N_33  and  C_34
REMARK   11  A    between atoms: N_33  and  C_35
REMARK                            x       y       z     vdW  Elec       q    Type
REMARK                         _______ _______ _______ _____ _____    ______ ____
ROOT
ATOM      1  C   UNL     1      -5.376  -2.630 129.945  0.00  0.00    +0.000 C 
ATOM      2  C   UNL     1      -5.738  -1.515 128.665  0.00  0.00    +0.000 C 
ATOM      3  C   UNL     1      -6.430  -1.888 127.427  0.00  0.00    +0.000 C 
ATOM      4  C   UNL     1      -7.656  -2.540 127.784  0.00  0.00    +0.000 C 
ATOM      5  C   UNL     1      -8.597  -2.838 126.672  0.00  0.00    +0.000 C 
ATOM      6  O   UNL     1      -9.493  -3.655 126.836  0.00  0.00    +0.000 OA
ATOM      7  C   UNL     1      -8.378  -1.986 125.442  0.00  0.00    +0.000 A 
ATOM      8  C   UNL     1      -7.496  -0.889 125.494  0.00  0.00    +0.000 A 
ATOM      9  C   UNL     1      -7.281  -0.063 124.392  0.00  0.00    +0.000 A 
ATOM     10  C   UNL     1      -7.873  -0.326 123.200  0.00  0.00    +0.000 A 
ATOM     11  C   UNL     1      -8.761  -1.385 123.126  0.00  0.00    +0.000 A 
ATOM     12  C   UNL     1      -9.024  -2.207 124.237  0.00  0.00    +0.000 A 
ATOM     13  C   UNL     1      -6.729  -0.547 126.717  0.00  0.00    +0.000 C 
ATOM     14  C   UNL     1      -5.390   0.153 126.329  0.00  0.00    +0.000 C 
ATOM     15  C   UNL     1      -7.830  -2.673 129.098  0.00  0.00    +0.000 C 
ATOM     16  C   UNL     1      -6.650  -2.174 130.316  0.00  0.00    +0.000 C 
ATOM     17  C   UNL     1      -5.259  -0.730 130.607  0.00  0.00    +0.000 C 
ATOM     18  O   UNL     1      -4.239  -0.353 129.899  0.00  0.00    +0.000 OA
ATOM     19  C   UNL     1      -4.558  -0.262 131.848  0.00  0.00    +0.000 C 
ATOM     20  C   UNL     1      -4.120  -1.559 132.003  0.00  0.00    +0.000 C 
ATOM     21  C   UNL     1      -5.255  -2.520 131.837  0.00  0.00    +0.000 C 
ENDROOT
BRANCH  19  22
ATOM     22  C   UNL     1      -5.457   0.937 132.182  0.00  0.00    +0.000 C 
ATOM     23  N   UNL     1      -6.318   1.334 131.194  0.00  0.00    +0.000 N 
ATOM     24  O   UNL     1      -5.457   1.507 133.266  0.00  0.00    +0.000 OA
ATOM     25  H   UNL     1      -6.452   0.586 130.533  0.00  0.00    +0.000 HD
ATOM     26  H   UNL     1      -7.214   1.646 131.535  0.00  0.00    +0.000 HD
ENDBRANCH  19  22
BRANCH  21  27
ATOM     27  N   UNL     1      -6.448  -1.699 132.687  0.00  0.00    +0.000 NA
ATOM     28  C   UNL     1      -7.853  -1.494 132.268  0.00  0.00    +0.000 C 
ATOM     29  C   UNL     1      -6.342  -1.783 134.142  0.00  0.00    +0.000 C 
ENDBRANCH  21  27
BRANCH   2  30
ATOM     30  O   UNL     1      -4.554  -1.124 128.050  0.00  0.00    +0.000 OA
ATOM     31  H   UNL     1      -4.770  -0.452 127.396  0.00  0.00    +0.000 HD
ENDBRANCH   2  30
BRANCH  12  32
ATOM     32  O   UNL     1      -9.909  -3.233 124.118  0.00  0.00    +0.000 OA
ATOM     33  H   UNL     1      -9.701  -3.915 124.773  0.00  0.00    +0.000 HD
ENDBRANCH  12  32
BRANCH  13  34
ATOM     34  O   UNL     1      -7.583   0.330 127.482  0.00  0.00    +0.000 OA
ATOM     35  H   UNL     1      -7.672   1.189 127.022  0.00  0.00    +0.000 HD
ENDBRANCH  13  34
BRANCH  15  36
ATOM     36  O   UNL     1      -8.886  -3.534 129.506  0.00  0.00    +0.000 OA
ATOM     37  H   UNL     1      -8.635  -3.940 130.385  0.00  0.00    +0.000 HD
ENDBRANCH  15  36
BRANCH  16  38
ATOM     38  O   UNL     1      -7.020  -3.476 130.973  0.00  0.00    +0.000 OA
ATOM     39  H   UNL     1      -7.813  -3.825 130.508  0.00  0.00    +0.000 HD
ENDBRANCH  16  38
BRANCH  20  40
ATOM     40  O   UNL     1      -2.945  -2.077 131.405  0.00  0.00    +0.000 OA
ATOM     41  H   UNL     1      -2.282  -1.364 131.279  0.00  0.00    +0.000 HD
ENDBRANCH  20  40
TORSDOF 8
ENDMDL
MODEL 6
REMARK VINA RESULT:      -7.6      3.782      7.264
REMARK  Name = Oxytetracycline
REMARK  11 active torsions:
REMARK  status: ('A' for Active; 'I' for Inactive)
REMARK    1  A    between atoms: C_3  and  O_4
REMARK    2  A    between atoms: C_15  and  O_16
REMARK    3  A    between atoms: C_17  and  C_18
REMARK    4  A    between atoms: C_17  and  O_19
REMARK    5  A    between atoms: C_20  and  O_21
REMARK    6  A    between atoms: C_22  and  O_23
REMARK    7  A    between atoms: C_26  and  C_27
REMARK    8  A    between atoms: C_30  and  O_31
REMARK    9  A    between atoms: C_32  and  N_33
REMARK   10  A    between atoms: N_33  and  C_34
REMARK   11  A    between atoms: N_33  and  C_35
REMARK                            x       y       z     vdW  Elec       q    Type
REMARK                         _______ _______ _______ _____ _____    ______ ____
ROOT
ATOM      1  C   UNL     1      -8.394   1.967 129.208  0.00  0.00    +0.000 C 
ATOM      2  C   UNL     1      -7.774   0.559 128.403  0.00  0.00    +0.000 C 
ATOM      3  C   UNL     1      -8.400  -0.052 127.227  0.00  0.00    +0.000 C 
ATOM      4  C   UNL     1      -8.566   0.968 126.233  0.00  0.00    +0.000 C 
ATOM      5  C   UNL     1      -9.019   0.518 124.890  0.00  0.00    +0.000 C 
ATOM      6  O   UNL     1      -9.483   1.331 124.102  0.00  0.00    +0.000 OA
ATOM      7  C   UNL     1      -8.755  -0.945 124.614  0.00  0.00    +0.000 A 
ATOM      8  C   UNL     1      -7.958  -1.695 125.501  0.00  0.00    +0.000 A 
ATOM      9  C   UNL     1      -7.669  -3.039 125.275  0.00  0.00    +0.000 A 
ATOM     10  C   UNL     1      -8.202  -3.697 124.215  0.00  0.00    +0.000 A 
ATOM     11  C   UNL     1      -8.973  -2.979 123.316  0.00  0.00    +0.000 A 
ATOM     12  C   UNL     1      -9.243  -1.611 123.502  0.00  0.00    +0.000 A 
ATOM     13  C   UNL     1      -7.382  -1.110 126.737  0.00  0.00    +0.000 C 
ATOM     14  C   UNL     1      -7.212  -2.218 127.823  0.00  0.00    +0.000 C 
ATOM     15  C   UNL     1      -8.163   2.174 126.631  0.00  0.00    +0.000 C 
ATOM     16  C   UNL     1      -7.547   2.537 128.247  0.00  0.00    +0.000 C 
ATOM     17  C   UNL     1      -6.469   1.651 129.716  0.00  0.00    +0.000 C 
ATOM     18  O   UNL     1      -6.630   0.534 130.356  0.00  0.00    +0.000 OA
ATOM     19  C   UNL     1      -5.759   2.221 130.908  0.00  0.00    +0.000 C 
ATOM     20  C   UNL     1      -6.973   2.750 131.288  0.00  0.00    +0.000 C 
ATOM     21  C   UNL     1      -7.630   3.438 130.133  0.00  0.00    +0.000 C 
ENDROOT
BRANCH  19  22
ATOM     22  C   UNL     1      -4.345   2.304 130.316  0.00  0.00    +0.000 C 
ATOM     23  N   UNL     1      -4.118   1.546 129.198  0.00  0.00    +0.000 N 
ATOM     24  O   UNL     1      -3.460   3.020 130.765  0.00  0.00    +0.000 OA
ATOM     25  H   UNL     1      -4.992   1.308 128.760  0.00  0.00    +0.000 HD
ATOM     26  H   UNL     1      -3.512   1.986 128.523  0.00  0.00    +0.000 HD
ENDBRANCH  19  22
BRANCH  21  27
ATOM     27  N   UNL     1      -6.298   4.218 129.473  0.00  0.00    +0.000 NA
ATOM     28  C   UNL     1      -5.933   4.289 128.041  0.00  0.00    +0.000 C 
ATOM     29  C   UNL     1      -5.868   5.421 130.183  0.00  0.00    +0.000 C 
ENDBRANCH  21  27
BRANCH   2  30
ATOM     30  O   UNL     1      -7.928  -0.547 129.233  0.00  0.00    +0.000 OA
ATOM     31  H   UNL     1      -7.998  -1.326 128.673  0.00  0.00    +0.000 HD
ENDBRANCH   2  30
BRANCH  12  32
ATOM     32  O   UNL     1     -10.000  -0.946 122.590  0.00  0.00    +0.000 OA
ATOM     33  H   UNL     1     -10.544  -0.285 123.042  0.00  0.00    +0.000 HD
ENDBRANCH  12  32
BRANCH  13  34
ATOM     34  O   UNL     1      -6.111  -0.547 126.350  0.00  0.00    +0.000 OA
ATOM     35  H   UNL     1      -5.765  -1.020 125.566  0.00  0.00    +0.000 HD
ENDBRANCH  13  34
BRANCH  15  36
ATOM     36  O   UNL     1      -8.539   3.265 125.799  0.00  0.00    +0.000 OA
ATOM     37  H   UNL     1      -7.719   3.797 125.594  0.00  0.00    +0.000 HD
ENDBRANCH  15  36
BRANCH  16  38
ATOM     38  O   UNL     1      -8.390   3.776 128.112  0.00  0.00    +0.000 OA
ATOM     39  H   UNL     1      -8.473   4.173 129.008  0.00  0.00    +0.000 HD
ENDBRANCH  16  38
BRANCH  20  40
ATOM     40  O   UNL     1      -7.936   2.054 132.059  0.00  0.00    +0.000 OA
ATOM     41  H   UNL     1      -8.789   2.541 132.061  0.00  0.00    +0.000 HD
ENDBRANCH  20  40
TORSDOF 8
ENDMDL
MODEL 7
REMARK VINA RESULT:      -7.6      5.487      8.562
REMARK  Name = Oxytetracycline
REMARK  11 active torsions:
REMARK  status: ('A' for Active; 'I' for Inactive)
REMARK    1  A    between atoms: C_3  and  O_4
REMARK    2  A    between atoms: C_15  and  O_16
REMARK    3  A    between atoms: C_17  and  C_18
REMARK    4  A    between atoms: C_17  and  O_19
REMARK    5  A    between atoms: C_20  and  O_21
REMARK    6  A    between atoms: C_22  and  O_23
REMARK    7  A    between atoms: C_26  and  C_27
REMARK    8  A    between atoms: C_30  and  O_31
REMARK    9  A    between atoms: C_32  and  N_33
REMARK   10  A    between atoms: N_33  and  C_34
REMARK   11  A    between atoms: N_33  and  C_35
REMARK                            x       y       z     vdW  Elec       q    Type
REMARK                         _______ _______ _______ _____ _____    ______ ____
ROOT
ATOM      1  C   UNL     1      -6.298  -0.460 126.477  0.00  0.00    +0.000 C 
ATOM      2  C   UNL     1      -6.625  -1.576 127.767  0.00  0.00    +0.000 C 
ATOM      3  C   UNL     1      -6.435  -1.263 129.186  0.00  0.00    +0.000 C 
ATOM      4  C   UNL     1      -7.152  -0.056 129.475  0.00  0.00    +0.000 C 
ATOM      5  C   UNL     1      -7.238   0.338 130.906  0.00  0.00    +0.000 C 
ATOM      6  O   UNL     1      -7.544   1.486 131.202  0.00  0.00    +0.000 OA
ATOM      7  C   UNL     1      -7.015  -0.805 131.870  0.00  0.00    +0.000 A 
ATOM      8  C   UNL     1      -6.955  -2.128 131.390  0.00  0.00    +0.000 A 
ATOM      9  C   UNL     1      -6.774  -3.214 132.243  0.00  0.00    +0.000 A 
ATOM     10  C   UNL     1      -6.585  -3.030 133.574  0.00  0.00    +0.000 A 
ATOM     11  C   UNL     1      -6.660  -1.742 134.076  0.00  0.00    +0.000 A 
ATOM     12  C   UNL     1      -6.883  -0.634 133.238  0.00  0.00    +0.000 A 
ATOM     13  C   UNL     1      -7.068  -2.453 129.946  0.00  0.00    +0.000 C 
ATOM     14  C   UNL     1      -6.277  -3.760 129.630  0.00  0.00    +0.000 C 
ATOM     15  C   UNL     1      -7.754   0.476 128.412  0.00  0.00    +0.000 C 
ATOM     16  C   UNL     1      -7.639  -0.172 126.772  0.00  0.00    +0.000 C 
ATOM     17  C   UNL     1      -7.481  -1.960 125.834  0.00  0.00    +0.000 C 
ATOM     18  O   UNL     1      -6.628  -2.930 125.953  0.00  0.00    +0.000 OA
ATOM     19  C   UNL     1      -7.716  -2.357 124.406  0.00  0.00    +0.000 C 
ATOM     20  C   UNL     1      -6.774  -1.412 124.063  0.00  0.00    +0.000 C 
ATOM     21  C   UNL     1      -7.046  -0.119 124.766  0.00  0.00    +0.000 C 
ENDROOT
BRANCH  19  22
ATOM     22  C   UNL     1      -9.153  -2.881 124.546  0.00  0.00    +0.000 C 
ATOM     23  N   UNL     1      -9.621  -3.008 125.826  0.00  0.00    +0.000 N 
ATOM     24  O   UNL     1      -9.877  -3.146 123.595  0.00  0.00    +0.000 OA
ATOM     25  H   UNL     1      -9.073  -2.441 126.452  0.00  0.00    +0.000 HD
ATOM     26  H   UNL     1     -10.597  -2.775 125.929  0.00  0.00    +0.000 HD
ENDBRANCH  19  22
BRANCH  21  27
ATOM     27  N   UNL     1      -8.716  -0.054 124.600  0.00  0.00    +0.000 NA
ATOM     28  C   UNL     1      -9.690   0.401 125.617  0.00  0.00    +0.000 C 
ATOM     29  C   UNL     1      -9.195   0.237 123.250  0.00  0.00    +0.000 C 
ENDBRANCH  21  27
BRANCH   2  30
ATOM     30  O   UNL     1      -5.694  -2.609 127.725  0.00  0.00    +0.000 OA
ATOM     31  H   UNL     1      -5.884  -3.204 128.457  0.00  0.00    +0.000 HD
ENDBRANCH   2  30
BRANCH  12  32
ATOM     32  O   UNL     1      -6.955   0.612 133.777  0.00  0.00    +0.000 OA
ATOM     33  H   UNL     1      -6.456   0.634 134.606  0.00  0.00    +0.000 HD
ENDBRANCH  12  32
BRANCH  13  34
ATOM     34  O   UNL     1      -8.479  -2.611 129.689  0.00  0.00    +0.000 OA
ATOM     35  H   UNL     1      -8.974  -2.588 130.533  0.00  0.00    +0.000 HD
ENDBRANCH  13  34
BRANCH  15  36
ATOM     36  O   UNL     1      -8.257   1.797 128.574  0.00  0.00    +0.000 OA
ATOM     37  H   UNL     1      -8.908   1.792 129.332  0.00  0.00    +0.000 HD
ENDBRANCH  15  36
BRANCH  16  38
ATOM     38  O   UNL     1      -7.503   1.276 126.384  0.00  0.00    +0.000 OA
ATOM     39  H   UNL     1      -7.880   1.375 125.482  0.00  0.00    +0.000 HD
ENDBRANCH  16  38
BRANCH  20  40
ATOM     40  O   UNL     1      -5.380  -1.662 124.016  0.00  0.00    +0.000 OA
ATOM     41  H   UNL     1      -4.947  -1.064 123.369  0.00  0.00    +0.000 HD
ENDBRANCH  20  40
TORSDOF 8
ENDMDL
MODEL 8
REMARK VINA RESULT:      -7.5      4.142      7.098
REMARK  Name = Oxytetracycline
REMARK  11 active torsions:
REMARK  status: ('A' for Active; 'I' for Inactive)
REMARK    1  A    between atoms: C_3  and  O_4
REMARK    2  A    between atoms: C_15  and  O_16
REMARK    3  A    between atoms: C_17  and  C_18
REMARK    4  A    between atoms: C_17  and  O_19
REMARK    5  A    between atoms: C_20  and  O_21
REMARK    6  A    between atoms: C_22  and  O_23
REMARK    7  A    between atoms: C_26  and  C_27
REMARK    8  A    between atoms: C_30  and  O_31
REMARK    9  A    between atoms: C_32  and  N_33
REMARK   10  A    between atoms: N_33  and  C_34
REMARK   11  A    between atoms: N_33  and  C_35
REMARK                            x       y       z     vdW  Elec       q    Type
REMARK                         _______ _______ _______ _____ _____    ______ ____
ROOT
ATOM      1  C   UNL     1      -4.414   3.041 127.208  0.00  0.00    +0.000 C 
ATOM      2  C   UNL     1      -6.015   2.996 126.538  0.00  0.00    +0.000 C 
ATOM      3  C   UNL     1      -6.464   2.001 125.559  0.00  0.00    +0.000 C 
ATOM      4  C   UNL     1      -6.188   0.699 126.093  0.00  0.00    +0.000 C 
ATOM      5  C   UNL     1      -6.734  -0.457 125.333  0.00  0.00    +0.000 C 
ATOM      6  O   UNL     1      -6.287  -1.579 125.532  0.00  0.00    +0.000 OA
ATOM      7  C   UNL     1      -7.893  -0.103 124.429  0.00  0.00    +0.000 A 
ATOM      8  C   UNL     1      -8.487   1.171 124.513  0.00  0.00    +0.000 A 
ATOM      9  C   UNL     1      -9.571   1.533 123.717  0.00  0.00    +0.000 A 
ATOM     10  C   UNL     1     -10.059   0.684 122.778  0.00  0.00    +0.000 A 
ATOM     11  C   UNL     1      -9.508  -0.583 122.688  0.00  0.00    +0.000 A 
ATOM     12  C   UNL     1      -8.440  -0.984 123.511  0.00  0.00    +0.000 A 
ATOM     13  C   UNL     1      -7.992   2.216 125.444  0.00  0.00    +0.000 C 
ATOM     14  C   UNL     1      -8.282   3.633 124.859  0.00  0.00    +0.000 C 
ATOM     15  C   UNL     1      -5.581   0.723 127.277  0.00  0.00    +0.000 C 
ATOM     16  C   UNL     1      -5.078   2.198 128.111  0.00  0.00    +0.000 C 
ATOM     17  C   UNL     1      -5.687   4.117 128.342  0.00  0.00    +0.000 C 
ATOM     18  O   UNL     1      -5.951   5.052 127.482  0.00  0.00    +0.000 OA
ATOM     19  C   UNL     1      -5.312   5.163 129.350  0.00  0.00    +0.000 C 
ATOM     20  C   UNL     1      -4.009   4.991 128.938  0.00  0.00    +0.000 C 
ATOM     21  C   UNL     1      -3.664   3.536 128.880  0.00  0.00    +0.000 C 
ENDROOT
BRANCH  19  22
ATOM     22  C   UNL     1      -6.485   4.976 130.323  0.00  0.00    +0.000 C 
ATOM     23  N   UNL     1      -7.532   4.224 129.861  0.00  0.00    +0.000 N 
ATOM     24  O   UNL     1      -6.504   5.426 131.461  0.00  0.00    +0.000 OA
ATOM     25  H   UNL     1      -7.231   3.652 129.089  0.00  0.00    +0.000 HD
ATOM     26  H   UNL     1      -7.958   3.641 130.565  0.00  0.00    +0.000 HD
ENDBRANCH  19  22
BRANCH  21  27
ATOM     27  N   UNL     1      -4.403   3.014 130.295  0.00  0.00    +0.000 NA
ATOM     28  C   UNL     1      -5.168   1.761 130.485  0.00  0.00    +0.000 C 
ATOM     29  C   UNL     1      -3.727   3.407 131.530  0.00  0.00    +0.000 C 
ENDBRANCH  21  27
BRANCH   2  30
ATOM     30  O   UNL     1      -6.196   4.098 125.709  0.00  0.00    +0.000 OA
ATOM     31  H   UNL     1      -7.133   4.313 125.706  0.00  0.00    +0.000 HD
ENDBRANCH   2  30
BRANCH  12  32
ATOM     32  O   UNL     1      -7.934  -2.241 123.390  0.00  0.00    +0.000 OA
ATOM     33  H   UNL     1      -8.653  -2.886 123.465  0.00  0.00    +0.000 HD
ENDBRANCH  12  32
BRANCH  13  34
ATOM     34  O   UNL     1      -8.697   2.000 126.685  0.00  0.00    +0.000 OA
ATOM     35  H   UNL     1      -9.599   2.374 126.622  0.00  0.00    +0.000 HD
ENDBRANCH  13  34
BRANCH  15  36
ATOM     36  O   UNL     1      -5.049  -0.515 127.734  0.00  0.00    +0.000 OA
ATOM     37  H   UNL     1      -4.712  -0.385 128.665  0.00  0.00    +0.000 HD
ENDBRANCH  15  36
BRANCH  16  38
ATOM     38  O   UNL     1      -3.836   1.407 128.419  0.00  0.00    +0.000 OA
ATOM     39  H   UNL     1      -3.966   0.503 128.056  0.00  0.00    +0.000 HD
ENDBRANCH  16  38
BRANCH  20  40
ATOM     40  O   UNL     1      -3.423   5.679 127.847  0.00  0.00    +0.000 OA
ATOM     41  H   UNL     1      -2.726   5.127 127.430  0.00  0.00    +0.000 HD
ENDBRANCH  20  40
TORSDOF 8
ENDMDL
MODEL 9
REMARK VINA RESULT:      -7.4      4.079      7.501
REMARK  Name = Oxytetracycline
REMARK  11 active torsions:
REMARK  status: ('A' for Active; 'I' for Inactive)
REMARK    1  A    between atoms: C_3  and  O_4
REMARK    2  A    between atoms: C_15  and  O_16
REMARK    3  A    between atoms: C_17  and  C_18
REMARK    4  A    between atoms: C_17  and  O_19
REMARK    5  A    between atoms: C_20  and  O_21
REMARK    6  A    between atoms: C_22  and  O_23
REMARK    7  A    between atoms: C_26  and  C_27
REMARK    8  A    between atoms: C_30  and  O_31
REMARK    9  A    between atoms: C_32  and  N_33
REMARK   10  A    between atoms: N_33  and  C_34
REMARK   11  A    between atoms: N_33  and  C_35
REMARK                            x       y       z     vdW  Elec       q    Type
REMARK                         _______ _______ _______ _____ _____    ______ ____
ROOT
ATOM      1  C   UNL     1      -8.077  -0.191 130.591  0.00  0.00    +0.000 C 
ATOM      2  C   UNL     1      -6.954  -0.752 129.391  0.00  0.00    +0.000 C 
ATOM      3  C   UNL     1      -7.323  -1.057 128.006  0.00  0.00    +0.000 C 
ATOM      4  C   UNL     1      -7.991   0.089 127.462  0.00  0.00    +0.000 C 
ATOM      5  C   UNL     1      -8.288   0.054 126.005  0.00  0.00    +0.000 C 
ATOM      6  O   UNL     1      -9.116   0.823 125.536  0.00  0.00    +0.000 OA
ATOM      7  C   UNL     1      -7.423  -0.912 125.228  0.00  0.00    +0.000 A 
ATOM      8  C   UNL     1      -6.318  -1.525 125.851  0.00  0.00    +0.000 A 
ATOM      9  C   UNL     1      -5.481  -2.404 125.167  0.00  0.00    +0.000 A 
ATOM     10  C   UNL     1      -5.739  -2.753 123.882  0.00  0.00    +0.000 A 
ATOM     11  C   UNL     1      -6.807  -2.150 123.239  0.00  0.00    +0.000 A 
ATOM     12  C   UNL     1      -7.641  -1.229 123.897  0.00  0.00    +0.000 A 
ATOM     13  C   UNL     1      -5.979  -1.286 127.275  0.00  0.00    +0.000 C 
ATOM     14  C   UNL     1      -5.263  -2.537 127.871  0.00  0.00    +0.000 C 
ATOM     15  C   UNL     1      -8.137   1.087 128.332  0.00  0.00    +0.000 C 
ATOM     16  C   UNL     1      -7.637   1.015 130.026  0.00  0.00    +0.000 C 
ATOM     17  C   UNL     1      -6.181   0.184 131.164  0.00  0.00    +0.000 C 
ATOM     18  O   UNL     1      -5.788  -1.043 131.309  0.00  0.00    +0.000 OA
ATOM     19  C   UNL     1      -5.718   0.487 132.559  0.00  0.00    +0.000 C 
ATOM     20  C   UNL     1      -7.011   0.244 132.965  0.00  0.00    +0.000 C 
ATOM     21  C   UNL     1      -7.982   0.972 132.089  0.00  0.00    +0.000 C 
ENDROOT
BRANCH  19  22
ATOM     22  C   UNL     1      -4.530   1.397 132.214  0.00  0.00    +0.000 C 
ATOM     23  N   UNL     1      -4.140   1.402 130.902  0.00  0.00    +0.000 N 
ATOM     24  O   UNL     1      -3.965   2.116 133.028  0.00  0.00    +0.000 OA
ATOM     25  H   UNL     1      -4.887   1.060 130.319  0.00  0.00    +0.000 HD
ATOM     26  H   UNL     1      -3.840   2.305 130.568  0.00  0.00    +0.000 HD
ENDBRANCH  19  22
BRANCH  21  27
ATOM     27  N   UNL     1      -7.180   2.440 131.937  0.00  0.00    +0.000 NA
ATOM     28  C   UNL     1      -7.022   3.238 130.701  0.00  0.00    +0.000 C 
ATOM     29  C   UNL     1      -7.238   3.303 133.115  0.00  0.00    +0.000 C 
ENDBRANCH  21  27
BRANCH   2  30
ATOM     30  O   UNL     1      -6.546  -2.042 129.714  0.00  0.00    +0.000 OA
ATOM     31  H   UNL     1      -5.588  -2.073 129.642  0.00  0.00    +0.000 HD
ENDBRANCH   2  30
BRANCH  12  32
ATOM     32  O   UNL     1      -8.674  -0.658 123.223  0.00  0.00    +0.000 OA
ATOM     33  H   UNL     1      -8.451   0.259 123.007  0.00  0.00    +0.000 HD
ENDBRANCH  12  32
BRANCH  13  34
ATOM     34  O   UNL     1      -5.118  -0.128 127.284  0.00  0.00    +0.000 OA
ATOM     35  H   UNL     1      -4.202  -0.398 127.500  0.00  0.00    +0.000 HD
ENDBRANCH  13  34
BRANCH  15  36
ATOM     36  O   UNL     1      -9.012   2.137 127.939  0.00  0.00    +0.000 OA
ATOM     37  H   UNL     1      -9.547   2.412 128.738  0.00  0.00    +0.000 HD
ENDBRANCH  15  36
BRANCH  16  38
ATOM     38  O   UNL     1      -8.948   1.710 130.273  0.00  0.00    +0.000 OA
ATOM     39  H   UNL     1      -9.575   1.038 130.622  0.00  0.00    +0.000 HD
ENDBRANCH  16  38
BRANCH  20  40
ATOM     40  O   UNL     1      -7.512  -1.040 133.294  0.00  0.00    +0.000 OA
ATOM     41  H   UNL     1      -7.975  -1.014 134.160  0.00  0.00    +0.000 HD
ENDBRANCH  20  40
TORSDOF 8
ENDMDL
