MODEL 1
REMARK VINA RESULT:      -7.7      0.000      0.000
REMARK  Name = Ozanimod
REMARK  11 active torsions:
REMARK  status: ('A' for Active; 'I' for Inactive)
REMARK    1  A    between atoms: C_1  and  C_2
REMARK    2  A    between atoms: C_2  and  C_3
REMARK    3  A    between atoms: C_2  and  O_4
REMARK    4  A    between atoms: O_4  and  C_5
REMARK    5  A    between atoms: C_6  and  C_29
REMARK    6  A    between atoms: C_8  and  C_11
REMARK    7  A    between atoms: C_13  and  C_16
REMARK    8  A    between atoms: C_20  and  N_21
REMARK    9  A    between atoms: N_21  and  C_22
REMARK   10  A    between atoms: C_22  and  C_23
REMARK   11  A    between atoms: C_23  and  O_24
REMARK                            x       y       z     vdW  Elec       q    Type
REMARK                         _______ _______ _______ _____ _____    ______ ____
ROOT
ATOM      1  C   UNL     1      -7.518  -0.237 124.407  0.00  0.00    +0.000 A 
ATOM      2  N   UNL     1      -7.865  -0.499 125.644  0.00  0.00    +0.000 NA
ATOM      3  C   UNL     1      -7.293  -1.729 125.859  0.00  0.00    +0.000 A 
ATOM      4  N   UNL     1      -6.597  -2.209 124.813  0.00  0.00    +0.000 NA
ATOM      5  O   UNL     1      -6.773  -1.226 123.830  0.00  0.00    +0.000 OA
ENDROOT
BRANCH   3   6
ATOM      6  C   UNL     1      -7.426  -2.412 127.134  0.00  0.00    +0.000 A 
ATOM      7  C   UNL     1      -6.402  -2.418 128.083  0.00  0.00    +0.000 A 
ATOM      8  C   UNL     1      -5.070  -1.723 128.036  0.00  0.00    +0.000 C 
ATOM      9  C   UNL     1      -4.294  -2.477 129.130  0.00  0.00    +0.000 C 
ATOM     10  C   UNL     1      -5.339  -2.893 130.189  0.00  0.00    +0.000 C 
ATOM     11  C   UNL     1      -6.552  -3.089 129.310  0.00  0.00    +0.000 A 
ATOM     12  C   UNL     1      -7.730  -3.762 129.608  0.00  0.00    +0.000 A 
ATOM     13  C   UNL     1      -8.744  -3.799 128.651  0.00  0.00    +0.000 A 
ATOM     14  C   UNL     1      -8.596  -3.129 127.427  0.00  0.00    +0.000 A 
BRANCH  10  15
ATOM     15  N   UNL     1      -4.956  -4.089 130.940  0.00  0.00    +0.000 NA
ATOM     16  H   UNL     1      -5.701  -4.780 130.856  0.00  0.00    +0.000 HD
BRANCH  15  17
ATOM     17  C   UNL     1      -4.787  -3.788 132.364  0.00  0.00    +0.000 C 
BRANCH  17  18
ATOM     18  C   UNL     1      -3.694  -4.659 132.993  0.00  0.00    +0.000 C 
BRANCH  18  19
ATOM     19  O   UNL     1      -2.559  -3.864 133.324  0.00  0.00    +0.000 OA
ATOM     20  H   UNL     1      -2.021  -4.375 133.953  0.00  0.00    +0.000 HD
ENDBRANCH  18  19
ENDBRANCH  17  18
ENDBRANCH  15  17
ENDBRANCH  10  15
ENDBRANCH   3   6
BRANCH   1  24
ATOM     21  C   UNL     1      -8.407   3.081 121.826  0.00  0.00    +0.000 A 
ATOM     22  C   UNL     1      -7.135   2.911 122.405  0.00  0.00    +0.000 A 
ATOM     23  C   UNL     1      -6.849   1.784 123.187  0.00  0.00    +0.000 A 
ATOM     24  C   UNL     1      -7.850   0.910 123.587  0.00  0.00    +0.000 A 
ATOM     25  C   UNL     1      -9.155   1.157 123.155  0.00  0.00    +0.000 A 
ATOM     26  C   UNL     1      -9.431   2.218 122.268  0.00  0.00    +0.000 A 
BRANCH  22  27
ATOM     27  C   UNL     1      -6.042   3.846 122.370  0.00  0.00    +0.000 C 
ATOM     28  N   UNL     1      -5.220   4.655 122.412  0.00  0.00    +0.000 NA
ENDBRANCH  22  27
BRANCH  21  29
ATOM     29  O   UNL     1      -8.788   4.099 120.977  0.00  0.00    +0.000 OA
BRANCH  29  31
ATOM     30  C   UNL     1      -9.858   4.572 118.838  0.00  0.00    +0.000 C 
ATOM     31  C   UNL     1      -8.678   3.899 119.540  0.00  0.00    +0.000 C 
ATOM     32  C   UNL     1      -7.472   4.573 118.933  0.00  0.00    +0.000 C 
ENDBRANCH  29  31
ENDBRANCH  21  29
ENDBRANCH   1  24
TORSDOF 9
ENDMDL
MODEL 2
REMARK VINA RESULT:      -7.6      2.830     10.796
REMARK  Name = Ozanimod
REMARK  11 active torsions:
REMARK  status: ('A' for Active; 'I' for Inactive)
REMARK    1  A    between atoms: C_1  and  C_2
REMARK    2  A    between atoms: C_2  and  C_3
REMARK    3  A    between atoms: C_2  and  O_4
REMARK    4  A    between atoms: O_4  and  C_5
REMARK    5  A    between atoms: C_6  and  C_29
REMARK    6  A    between atoms: C_8  and  C_11
REMARK    7  A    between atoms: C_13  and  C_16
REMARK    8  A    between atoms: C_20  and  N_21
REMARK    9  A    between atoms: N_21  and  C_22
REMARK   10  A    between atoms: C_22  and  C_23
REMARK   11  A    between atoms: C_23  and  O_24
REMARK                            x       y       z     vdW  Elec       q    Type
REMARK                         _______ _______ _______ _____ _____    ______ ____
ROOT
ATOM      1  C   UNL     1      -7.114  -3.224 129.062  0.00  0.00    +0.000 A 
ATOM      2  N   UNL     1      -6.501  -2.619 128.074  0.00  0.00    +0.000 NA
ATOM      3  C   UNL     1      -7.462  -2.605 127.092  0.00  0.00    +0.000 A 
ATOM      4  N   UNL     1      -8.635  -3.155 127.455  0.00  0.00    +0.000 NA
ATOM      5  O   UNL     1      -8.393  -3.598 128.762  0.00  0.00    +0.000 OA
ENDROOT
BRANCH   3   6
ATOM      6  C   UNL     1      -7.206  -2.011 125.792  0.00  0.00    +0.000 A 
ATOM      7  C   UNL     1      -7.402  -0.651 125.547  0.00  0.00    +0.000 A 
ATOM      8  C   UNL     1      -7.822   0.429 126.504  0.00  0.00    +0.000 C 
ATOM      9  C   UNL     1      -8.263   1.541 125.537  0.00  0.00    +0.000 C 
ATOM     10  C   UNL     1      -7.372   1.397 124.283  0.00  0.00    +0.000 C 
ATOM     11  C   UNL     1      -7.151  -0.098 124.278  0.00  0.00    +0.000 A 
ATOM     12  C   UNL     1      -6.697  -0.896 123.236  0.00  0.00    +0.000 A 
ATOM     13  C   UNL     1      -6.537  -2.264 123.458  0.00  0.00    +0.000 A 
ATOM     14  C   UNL     1      -6.786  -2.817 124.724  0.00  0.00    +0.000 A 
BRANCH  10  15
ATOM     15  N   UNL     1      -8.005   1.903 123.064  0.00  0.00    +0.000 NA
ATOM     16  H   UNL     1      -7.697   2.862 122.910  0.00  0.00    +0.000 HD
BRANCH  15  17
ATOM     17  C   UNL     1      -9.465   1.920 123.195  0.00  0.00    +0.000 C 
BRANCH  17  18
ATOM     18  C   UNL     1     -10.107   0.753 122.439  0.00  0.00    +0.000 C 
BRANCH  18  19
ATOM     19  O   UNL     1     -11.482   0.632 122.793  0.00  0.00    +0.000 OA
ATOM     20  H   UNL     1     -11.681  -0.318 122.859  0.00  0.00    +0.000 HD
ENDBRANCH  18  19
ENDBRANCH  17  18
ENDBRANCH  15  17
ENDBRANCH  10  15
ENDBRANCH   3   6
BRANCH   1  24
ATOM     21  C   UNL     1      -5.798  -4.315 133.005  0.00  0.00    +0.000 A 
ATOM     22  C   UNL     1      -6.487  -3.112 132.758  0.00  0.00    +0.000 A 
ATOM     23  C   UNL     1      -6.967  -2.811 131.477  0.00  0.00    +0.000 A 
ATOM     24  C   UNL     1      -6.608  -3.575 130.374  0.00  0.00    +0.000 A 
ATOM     25  C   UNL     1      -5.785  -4.684 130.577  0.00  0.00    +0.000 A 
ATOM     26  C   UNL     1      -5.398  -5.065 131.880  0.00  0.00    +0.000 A 
BRANCH  22  27
ATOM     27  C   UNL     1      -6.704  -2.039 133.692  0.00  0.00    +0.000 C 
ATOM     28  N   UNL     1      -6.948  -1.137 134.370  0.00  0.00    +0.000 NA
ENDBRANCH  22  27
BRANCH  21  29
ATOM     29  O   UNL     1      -5.347  -4.762 134.230  0.00  0.00    +0.000 OA
BRANCH  29  31
ATOM     30  C   UNL     1      -5.214  -6.351 136.073  0.00  0.00    +0.000 C 
ATOM     31  C   UNL     1      -6.028  -5.878 134.869  0.00  0.00    +0.000 C 
ATOM     32  C   UNL     1      -7.361  -5.502 135.466  0.00  0.00    +0.000 C 
ENDBRANCH  29  31
ENDBRANCH  21  29
ENDBRANCH   1  24
TORSDOF 9
ENDMDL
MODEL 3
REMARK VINA RESULT:      -7.6      6.236      9.084
REMARK  Name = Ozanimod
REMARK  11 active torsions:
REMARK  status: ('A' for Active; 'I' for Inactive)
REMARK    1  A    between atoms: C_1  and  C_2
REMARK    2  A    between atoms: C_2  and  C_3
REMARK    3  A    between atoms: C_2  and  O_4
REMARK    4  A    between atoms: O_4  and  C_5
REMARK    5  A    between atoms: C_6  and  C_29
REMARK    6  A    between atoms: C_8  and  C_11
REMARK    7  A    between atoms: C_13  and  C_16
REMARK    8  A    between atoms: C_20  and  N_21
REMARK    9  A    between atoms: N_21  and  C_22
REMARK   10  A    between atoms: C_22  and  C_23
REMARK   11  A    between atoms: C_23  and  O_24
REMARK                            x       y       z     vdW  Elec       q    Type
REMARK                         _______ _______ _______ _____ _____    ______ ____
ROOT
ATOM      1  C   UNL     1      -7.930   1.007 128.983  0.00  0.00    +0.000 A 
ATOM      2  N   UNL     1      -8.000   2.308 128.839  0.00  0.00    +0.000 NA
ATOM      3  C   UNL     1      -8.293   2.733 130.112  0.00  0.00    +0.000 A 
ATOM      4  N   UNL     1      -8.380   1.745 131.021  0.00  0.00    +0.000 NA
ATOM      5  O   UNL     1      -8.169   0.587 130.261  0.00  0.00    +0.000 OA
ENDROOT
BRANCH   3   6
ATOM      6  C   UNL     1      -8.459   4.142 130.420  0.00  0.00    +0.000 A 
ATOM      7  C   UNL     1      -9.713   4.755 130.439  0.00  0.00    +0.000 A 
ATOM      8  C   UNL     1     -11.067   4.137 130.231  0.00  0.00    +0.000 C 
ATOM      9  C   UNL     1     -11.929   5.379 129.945  0.00  0.00    +0.000 C 
ATOM     10  C   UNL     1     -11.303   6.533 130.761  0.00  0.00    +0.000 C 
ATOM     11  C   UNL     1      -9.849   6.123 130.736  0.00  0.00    +0.000 A 
ATOM     12  C   UNL     1      -8.733   6.899 131.022  0.00  0.00    +0.000 A 
ATOM     13  C   UNL     1      -7.471   6.308 130.965  0.00  0.00    +0.000 A 
ATOM     14  C   UNL     1      -7.334   4.942 130.670  0.00  0.00    +0.000 A 
BRANCH  10  15
ATOM     15  N   UNL     1     -11.554   7.852 130.179  0.00  0.00    +0.000 NA
ATOM     16  H   UNL     1     -12.255   8.330 130.745  0.00  0.00    +0.000 HD
BRANCH  15  17
ATOM     17  C   UNL     1     -12.083   7.739 128.818  0.00  0.00    +0.000 C 
BRANCH  17  18
ATOM     18  C   UNL     1     -11.088   8.279 127.786  0.00  0.00    +0.000 C 
BRANCH  18  19
ATOM     19  O   UNL     1     -10.071   7.316 127.528  0.00  0.00    +0.000 OA
ATOM     20  H   UNL     1      -9.246   7.803 127.361  0.00  0.00    +0.000 HD
ENDBRANCH  18  19
ENDBRANCH  17  18
ENDBRANCH  15  17
ENDBRANCH  10  15
ENDBRANCH   3   6
BRANCH   1  24
ATOM     21  C   UNL     1      -7.088  -1.885 125.919  0.00  0.00    +0.000 A 
ATOM     22  C   UNL     1      -7.993  -0.827 125.712  0.00  0.00    +0.000 A 
ATOM     23  C   UNL     1      -8.199   0.143 126.702  0.00  0.00    +0.000 A 
ATOM     24  C   UNL     1      -7.685  -0.011 127.982  0.00  0.00    +0.000 A 
ATOM     25  C   UNL     1      -6.917  -1.146 128.254  0.00  0.00    +0.000 A 
ATOM     26  C   UNL     1      -6.603  -2.065 127.230  0.00  0.00    +0.000 A 
BRANCH  22  27
ATOM     27  C   UNL     1      -8.858  -0.644 124.577  0.00  0.00    +0.000 C 
ATOM     28  N   UNL     1      -9.627  -0.464 123.735  0.00  0.00    +0.000 NA
ENDBRANCH  22  27
BRANCH  21  29
ATOM     29  O   UNL     1      -6.740  -2.854 125.000  0.00  0.00    +0.000 OA
BRANCH  29  31
ATOM     30  C   UNL     1      -4.894  -3.930 123.827  0.00  0.00    +0.000 C 
ATOM     31  C   UNL     1      -5.613  -2.612 124.111  0.00  0.00    +0.000 C 
ATOM     32  C   UNL     1      -6.024  -2.129 122.742  0.00  0.00    +0.000 C 
ENDBRANCH  29  31
ENDBRANCH  21  29
ENDBRANCH   1  24
TORSDOF 9
ENDMDL
MODEL 4
REMARK VINA RESULT:      -7.5      7.283     10.607
REMARK  Name = Ozanimod
REMARK  11 active torsions:
REMARK  status: ('A' for Active; 'I' for Inactive)
REMARK    1  A    between atoms: C_1  and  C_2
REMARK    2  A    between atoms: C_2  and  C_3
REMARK    3  A    between atoms: C_2  and  O_4
REMARK    4  A    between atoms: O_4  and  C_5
REMARK    5  A    between atoms: C_6  and  C_29
REMARK    6  A    between atoms: C_8  and  C_11
REMARK    7  A    between atoms: C_13  and  C_16
REMARK    8  A    between atoms: C_20  and  N_21
REMARK    9  A    between atoms: N_21  and  C_22
REMARK   10  A    between atoms: C_22  and  C_23
REMARK   11  A    between atoms: C_23  and  O_24
REMARK                            x       y       z     vdW  Elec       q    Type
REMARK                         _______ _______ _______ _____ _____    ______ ____
ROOT
ATOM      1  C   UNL     1      -8.040   3.030 128.405  0.00  0.00    +0.000 A 
ATOM      2  N   UNL     1      -9.169   3.453 128.920  0.00  0.00    +0.000 NA
ATOM      3  C   UNL     1      -8.881   4.759 129.236  0.00  0.00    +0.000 A 
ATOM      4  N   UNL     1      -7.634   5.146 128.912  0.00  0.00    +0.000 NA
ATOM      5  O   UNL     1      -7.060   3.981 128.386  0.00  0.00    +0.000 OA
ENDROOT
BRANCH   3   6
ATOM      6  C   UNL     1      -9.875   5.627 129.841  0.00  0.00    +0.000 A 
ATOM      7  C   UNL     1     -10.513   6.638 129.121  0.00  0.00    +0.000 A 
ATOM      8  C   UNL     1     -10.381   6.986 127.665  0.00  0.00    +0.000 C 
ATOM      9  C   UNL     1     -10.978   8.404 127.634  0.00  0.00    +0.000 C 
ATOM     10  C   UNL     1     -12.065   8.436 128.731  0.00  0.00    +0.000 C 
ATOM     11  C   UNL     1     -11.471   7.470 129.729  0.00  0.00    +0.000 A 
ATOM     12  C   UNL     1     -11.806   7.301 131.066  0.00  0.00    +0.000 A 
ATOM     13  C   UNL     1     -11.145   6.322 131.807  0.00  0.00    +0.000 A 
ATOM     14  C   UNL     1     -10.190   5.490 131.201  0.00  0.00    +0.000 A 
BRANCH  10  15
ATOM     15  N   UNL     1     -12.298   9.775 129.274  0.00  0.00    +0.000 NA
ATOM     16  H   UNL     1     -12.182   9.741 130.286  0.00  0.00    +0.000 HD
BRANCH  15  17
ATOM     17  C   UNL     1     -13.664  10.228 128.997  0.00  0.00    +0.000 C 
BRANCH  17  18
ATOM     18  C   UNL     1     -13.886  11.662 129.487  0.00  0.00    +0.000 C 
BRANCH  18  19
ATOM     19  O   UNL     1     -13.680  11.740 130.895  0.00  0.00    +0.000 OA
ATOM     20  H   UNL     1     -13.633  10.829 131.231  0.00  0.00    +0.000 HD
ENDBRANCH  18  19
ENDBRANCH  17  18
ENDBRANCH  15  17
ENDBRANCH  10  15
ENDBRANCH   3   6
BRANCH   1  24
ATOM     21  C   UNL     1      -7.216  -0.922 126.933  0.00  0.00    +0.000 A 
ATOM     22  C   UNL     1      -7.617  -0.694 128.263  0.00  0.00    +0.000 A 
ATOM     23  C   UNL     1      -7.947   0.596 128.701  0.00  0.00    +0.000 A 
ATOM     24  C   UNL     1      -7.697   1.711 127.913  0.00  0.00    +0.000 A 
ATOM     25  C   UNL     1      -7.142   1.515 126.647  0.00  0.00    +0.000 A 
ATOM     26  C   UNL     1      -6.921   0.213 126.151  0.00  0.00    +0.000 A 
BRANCH  22  27
ATOM     27  C   UNL     1      -7.653  -1.661 129.328  0.00  0.00    +0.000 C 
ATOM     28  N   UNL     1      -7.785  -2.450 130.161  0.00  0.00    +0.000 NA
ENDBRANCH  22  27
BRANCH  21  29
ATOM     29  O   UNL     1      -6.941  -2.148 126.362  0.00  0.00    +0.000 OA
BRANCH  29  31
ATOM     30  C   UNL     1      -9.318  -2.215 125.823  0.00  0.00    +0.000 C 
ATOM     31  C   UNL     1      -8.046  -3.036 126.032  0.00  0.00    +0.000 C 
ATOM     32  C   UNL     1      -7.865  -3.753 124.717  0.00  0.00    +0.000 C 
ENDBRANCH  29  31
ENDBRANCH  21  29
ENDBRANCH   1  24
TORSDOF 9
ENDMDL
MODEL 5
REMARK VINA RESULT:      -7.3      4.026      6.629
REMARK  Name = Ozanimod
REMARK  11 active torsions:
REMARK  status: ('A' for Active; 'I' for Inactive)
REMARK    1  A    between atoms: C_1  and  C_2
REMARK    2  A    between atoms: C_2  and  C_3
REMARK    3  A    between atoms: C_2  and  O_4
REMARK    4  A    between atoms: O_4  and  C_5
REMARK    5  A    between atoms: C_6  and  C_29
REMARK    6  A    between atoms: C_8  and  C_11
REMARK    7  A    between atoms: C_13  and  C_16
REMARK    8  A    between atoms: C_20  and  N_21
REMARK    9  A    between atoms: N_21  and  C_22
REMARK   10  A    between atoms: C_22  and  C_23
REMARK   11  A    between atoms: C_23  and  O_24
REMARK                            x       y       z     vdW  Elec       q    Type
REMARK                         _______ _______ _______ _____ _____    ______ ____
ROOT
ATOM      1  C   UNL     1      -7.278  -2.939 130.170  0.00  0.00    +0.000 A 
ATOM      2  N   UNL     1      -6.140  -3.506 130.487  0.00  0.00    +0.000 NA
ATOM      3  C   UNL     1      -6.044  -3.248 131.833  0.00  0.00    +0.000 A 
ATOM      4  N   UNL     1      -7.088  -2.571 132.344  0.00  0.00    +0.000 NA
ATOM      5  O   UNL     1      -7.899  -2.336 131.226  0.00  0.00    +0.000 OA
ENDROOT
BRANCH   3   6
ATOM      6  C   UNL     1      -4.910  -3.711 132.613  0.00  0.00    +0.000 A 
ATOM      7  C   UNL     1      -3.933  -2.837 133.091  0.00  0.00    +0.000 A 
ATOM      8  C   UNL     1      -3.869  -1.340 132.977  0.00  0.00    +0.000 C 
ATOM      9  C   UNL     1      -2.389  -1.071 133.300  0.00  0.00    +0.000 C 
ATOM     10  C   UNL     1      -1.962  -2.168 134.300  0.00  0.00    +0.000 C 
ATOM     11  C   UNL     1      -2.840  -3.309 133.843  0.00  0.00    +0.000 A 
ATOM     12  C   UNL     1      -2.712  -4.662 134.129  0.00  0.00    +0.000 A 
ATOM     13  C   UNL     1      -3.660  -5.550 133.621  0.00  0.00    +0.000 A 
ATOM     14  C   UNL     1      -4.751  -5.081 132.873  0.00  0.00    +0.000 A 
BRANCH  10  15
ATOM     15  N   UNL     1      -0.531  -2.470 134.249  0.00  0.00    +0.000 NA
ATOM     16  H   UNL     1      -0.413  -3.452 133.999  0.00  0.00    +0.000 HD
BRANCH  15  17
ATOM     17  C   UNL     1       0.100  -2.265 135.556  0.00  0.00    +0.000 C 
BRANCH  17  18
ATOM     18  C   UNL     1       0.578  -3.591 136.158  0.00  0.00    +0.000 C 
BRANCH  18  19
ATOM     19  O   UNL     1       0.982  -4.485 135.126  0.00  0.00    +0.000 OA
ATOM     20  H   UNL     1       1.685  -5.050 135.492  0.00  0.00    +0.000 HD
ENDBRANCH  18  19
ENDBRANCH  17  18
ENDBRANCH  15  17
ENDBRANCH  10  15
ENDBRANCH   3   6
BRANCH   1  24
ATOM     21  C   UNL     1      -9.001  -2.661 126.243  0.00  0.00    +0.000 A 
ATOM     22  C   UNL     1      -8.266  -1.602 126.808  0.00  0.00    +0.000 A 
ATOM     23  C   UNL     1      -7.655  -1.742 128.061  0.00  0.00    +0.000 A 
ATOM     24  C   UNL     1      -7.918  -2.836 128.874  0.00  0.00    +0.000 A 
ATOM     25  C   UNL     1      -8.781  -3.824 128.394  0.00  0.00    +0.000 A 
ATOM     26  C   UNL     1      -9.302  -3.751 127.085  0.00  0.00    +0.000 A 
BRANCH  22  27
ATOM     27  C   UNL     1      -8.121  -0.274 126.272  0.00  0.00    +0.000 C 
ATOM     28  N   UNL     1      -8.014   0.747 125.745  0.00  0.00    +0.000 NA
ENDBRANCH  22  27
BRANCH  21  29
ATOM     29  O   UNL     1      -9.580  -2.677 124.991  0.00  0.00    +0.000 OA
BRANCH  29  31
ATOM     30  C   UNL     1      -8.553  -2.043 122.873  0.00  0.00    +0.000 C 
ATOM     31  C   UNL     1      -8.810  -3.179 123.863  0.00  0.00    +0.000 C 
ATOM     32  C   UNL     1      -7.424  -3.639 124.242  0.00  0.00    +0.000 C 
ENDBRANCH  29  31
ENDBRANCH  21  29
ENDBRANCH   1  24
TORSDOF 9
ENDMDL
MODEL 6
REMARK VINA RESULT:      -7.3      6.466     10.978
REMARK  Name = Ozanimod
REMARK  11 active torsions:
REMARK  status: ('A' for Active; 'I' for Inactive)
REMARK    1  A    between atoms: C_1  and  C_2
REMARK    2  A    between atoms: C_2  and  C_3
REMARK    3  A    between atoms: C_2  and  O_4
REMARK    4  A    between atoms: O_4  and  C_5
REMARK    5  A    between atoms: C_6  and  C_29
REMARK    6  A    between atoms: C_8  and  C_11
REMARK    7  A    between atoms: C_13  and  C_16
REMARK    8  A    between atoms: C_20  and  N_21
REMARK    9  A    between atoms: N_21  and  C_22
REMARK   10  A    between atoms: C_22  and  C_23
REMARK   11  A    between atoms: C_23  and  O_24
REMARK                            x       y       z     vdW  Elec       q    Type
REMARK                         _______ _______ _______ _____ _____    ______ ____
ROOT
ATOM      1  C   UNL     1      -8.332   1.105 131.554  0.00  0.00    +0.000 A 
ATOM      2  N   UNL     1      -8.093   2.212 130.895  0.00  0.00    +0.000 NA
ATOM      3  C   UNL     1      -8.665   3.167 131.700  0.00  0.00    +0.000 A 
ATOM      4  N   UNL     1      -9.218   2.685 132.827  0.00  0.00    +0.000 NA
ATOM      5  O   UNL     1      -9.024   1.302 132.716  0.00  0.00    +0.000 OA
ENDROOT
BRANCH   3   6
ATOM      6  C   UNL     1      -8.630   4.575 131.345  0.00  0.00    +0.000 A 
ATOM      7  C   UNL     1      -9.745   5.239 130.831  0.00  0.00    +0.000 A 
ATOM      8  C   UNL     1     -11.135   4.713 130.608  0.00  0.00    +0.000 C 
ATOM      9  C   UNL     1     -11.711   5.769 129.648  0.00  0.00    +0.000 C 
ATOM     10  C   UNL     1     -11.031   7.105 130.022  0.00  0.00    +0.000 C 
ATOM     11  C   UNL     1      -9.686   6.603 130.491  0.00  0.00    +0.000 A 
ATOM     12  C   UNL     1      -8.511   7.324 130.663  0.00  0.00    +0.000 A 
ATOM     13  C   UNL     1      -7.379   6.662 131.137  0.00  0.00    +0.000 A 
ATOM     14  C   UNL     1      -7.436   5.301 131.478  0.00  0.00    +0.000 A 
BRANCH  10  15
ATOM     15  N   UNL     1     -10.952   8.045 128.903  0.00  0.00    +0.000 NA
ATOM     16  H   UNL     1     -11.894   8.366 128.680  0.00  0.00    +0.000 HD
BRANCH  15  17
ATOM     17  C   UNL     1     -10.409   7.397 127.706  0.00  0.00    +0.000 C 
BRANCH  17  18
ATOM     18  C   UNL     1     -11.258   7.708 126.469  0.00  0.00    +0.000 C 
BRANCH  18  19
ATOM     19  O   UNL     1     -12.110   6.606 126.166  0.00  0.00    +0.000 OA
ATOM     20  H   UNL     1     -12.330   6.171 127.008  0.00  0.00    +0.000 HD
ENDBRANCH  18  19
ENDBRANCH  17  18
ENDBRANCH  15  17
ENDBRANCH  10  15
ENDBRANCH   3   6
BRANCH   1  24
ATOM     21  C   UNL     1      -7.185  -2.884 130.445  0.00  0.00    +0.000 A 
ATOM     22  C   UNL     1      -7.485  -1.904 129.482  0.00  0.00    +0.000 A 
ATOM     23  C   UNL     1      -7.790  -0.591 129.866  0.00  0.00    +0.000 A 
ATOM     24  C   UNL     1      -8.006  -0.260 131.197  0.00  0.00    +0.000 A 
ATOM     25  C   UNL     1      -7.873  -1.265 132.158  0.00  0.00    +0.000 A 
ATOM     26  C   UNL     1      -7.447  -2.560 131.792  0.00  0.00    +0.000 A 
BRANCH  22  27
ATOM     27  C   UNL     1      -7.615  -2.104 128.063  0.00  0.00    +0.000 C 
ATOM     28  N   UNL     1      -7.824  -2.280 126.941  0.00  0.00    +0.000 NA
ENDBRANCH  22  27
BRANCH  21  29
ATOM     29  O   UNL     1      -6.795  -4.184 130.194  0.00  0.00    +0.000 OA
BRANCH  29  31
ATOM     30  C   UNL     1      -4.489  -3.392 130.159  0.00  0.00    +0.000 C 
ATOM     31  C   UNL     1      -5.416  -4.571 130.454  0.00  0.00    +0.000 C 
ATOM     32  C   UNL     1      -5.146  -4.880 131.906  0.00  0.00    +0.000 C 
ENDBRANCH  29  31
ENDBRANCH  21  29
ENDBRANCH   1  24
TORSDOF 9
ENDMDL
MODEL 7
REMARK VINA RESULT:      -7.2      6.139      6.814
REMARK  Name = Ozanimod
REMARK  11 active torsions:
REMARK  status: ('A' for Active; 'I' for Inactive)
REMARK    1  A    between atoms: C_1  and  C_2
REMARK    2  A    between atoms: C_2  and  C_3
REMARK    3  A    between atoms: C_2  and  O_4
REMARK    4  A    between atoms: O_4  and  C_5
REMARK    5  A    between atoms: C_6  and  C_29
REMARK    6  A    between atoms: C_8  and  C_11
REMARK    7  A    between atoms: C_13  and  C_16
REMARK    8  A    between atoms: C_20  and  N_21
REMARK    9  A    between atoms: N_21  and  C_22
REMARK   10  A    between atoms: C_22  and  C_23
REMARK   11  A    between atoms: C_23  and  O_24
REMARK                            x       y       z     vdW  Elec       q    Type
REMARK                         _______ _______ _______ _____ _____    ______ ____
ROOT
ATOM      1  C   UNL     1      -9.277   2.028 131.039  0.00  0.00    +0.000 A 
ATOM      2  N   UNL     1      -8.534   1.200 130.347  0.00  0.00    +0.000 NA
ATOM      3  C   UNL     1      -8.617   0.041 131.080  0.00  0.00    +0.000 A 
ATOM      4  N   UNL     1      -9.398   0.129 132.172  0.00  0.00    +0.000 NA
ATOM      5  O   UNL     1      -9.814   1.467 132.163  0.00  0.00    +0.000 OA
ENDROOT
BRANCH   3   6
ATOM      6  C   UNL     1      -7.930  -1.169 130.664  0.00  0.00    +0.000 A 
ATOM      7  C   UNL     1      -7.295  -2.013 131.576  0.00  0.00    +0.000 A 
ATOM      8  C   UNL     1      -7.239  -1.910 133.074  0.00  0.00    +0.000 C 
ATOM      9  C   UNL     1      -6.064  -2.848 133.402  0.00  0.00    +0.000 C 
ATOM     10  C   UNL     1      -6.086  -3.955 132.324  0.00  0.00    +0.000 C 
ATOM     11  C   UNL     1      -6.632  -3.178 131.149  0.00  0.00    +0.000 A 
ATOM     12  C   UNL     1      -6.597  -3.518 129.802  0.00  0.00    +0.000 A 
ATOM     13  C   UNL     1      -7.192  -2.660 128.877  0.00  0.00    +0.000 A 
ATOM     14  C   UNL     1      -7.855  -1.498 129.302  0.00  0.00    +0.000 A 
BRANCH  10  15
ATOM     15  N   UNL     1      -4.770  -4.547 132.078  0.00  0.00    +0.000 NA
ATOM     16  H   UNL     1      -4.817  -5.544 132.291  0.00  0.00    +0.000 HD
BRANCH  15  17
ATOM     17  C   UNL     1      -3.752  -3.953 132.949  0.00  0.00    +0.000 C 
BRANCH  17  18
ATOM     18  C   UNL     1      -3.020  -5.025 133.763  0.00  0.00    +0.000 C 
BRANCH  18  19
ATOM     19  O   UNL     1      -1.623  -4.750 133.797  0.00  0.00    +0.000 OA
ATOM     20  H   UNL     1      -1.287  -5.065 134.654  0.00  0.00    +0.000 HD
ENDBRANCH  18  19
ENDBRANCH  17  18
ENDBRANCH  15  17
ENDBRANCH  10  15
ENDBRANCH   3   6
BRANCH   1  24
ATOM     21  C   UNL     1     -10.013   6.165 130.142  0.00  0.00    +0.000 A 
ATOM     22  C   UNL     1      -8.741   5.705 130.530  0.00  0.00    +0.000 A 
ATOM     23  C   UNL     1      -8.509   4.340 130.750  0.00  0.00    +0.000 A 
ATOM     24  C   UNL     1      -9.555   3.429 130.796  0.00  0.00    +0.000 A 
ATOM     25  C   UNL     1     -10.851   3.898 130.575  0.00  0.00    +0.000 A 
ATOM     26  C   UNL     1     -11.080   5.248 130.232  0.00  0.00    +0.000 A 
BRANCH  22  27
ATOM     27  C   UNL     1      -7.590   6.513 130.836  0.00  0.00    +0.000 C 
ATOM     28  N   UNL     1      -6.644   7.160 130.976  0.00  0.00    +0.000 NA
ENDBRANCH  22  27
BRANCH  21  29
ATOM     29  O   UNL     1     -10.348   7.464 129.821  0.00  0.00    +0.000 OA
BRANCH  29  31
ATOM     30  C   UNL     1     -12.351   8.774 129.356  0.00  0.00    +0.000 C 
ATOM     31  C   UNL     1     -11.394   7.701 128.837  0.00  0.00    +0.000 C 
ATOM     32  C   UNL     1     -10.877   8.282 127.544  0.00  0.00    +0.000 C 
ENDBRANCH  29  31
ENDBRANCH  21  29
ENDBRANCH   1  24
TORSDOF 9
ENDMDL
MODEL 8
REMARK VINA RESULT:      -7.1      4.839      8.511
REMARK  Name = Ozanimod
REMARK  11 active torsions:
REMARK  status: ('A' for Active; 'I' for Inactive)
REMARK    1  A    between atoms: C_1  and  C_2
REMARK    2  A    between atoms: C_2  and  C_3
REMARK    3  A    between atoms: C_2  and  O_4
REMARK    4  A    between atoms: O_4  and  C_5
REMARK    5  A    between atoms: C_6  and  C_29
REMARK    6  A    between atoms: C_8  and  C_11
REMARK    7  A    between atoms: C_13  and  C_16
REMARK    8  A    between atoms: C_20  and  N_21
REMARK    9  A    between atoms: N_21  and  C_22
REMARK   10  A    between atoms: C_22  and  C_23
REMARK   11  A    between atoms: C_23  and  O_24
REMARK                            x       y       z     vdW  Elec       q    Type
REMARK                         _______ _______ _______ _____ _____    ______ ____
ROOT
ATOM      1  C   UNL     1      -4.780   0.147 129.653  0.00  0.00    +0.000 A 
ATOM      2  N   UNL     1      -5.811  -0.107 128.885  0.00  0.00    +0.000 NA
ATOM      3  C   UNL     1      -5.738  -1.470 128.730  0.00  0.00    +0.000 A 
ATOM      4  N   UNL     1      -4.721  -2.051 129.391  0.00  0.00    +0.000 NA
ATOM      5  O   UNL     1      -4.060  -0.966 129.984  0.00  0.00    +0.000 OA
ENDROOT
BRANCH   3   6
ATOM      6  C   UNL     1      -6.714  -2.194 127.934  0.00  0.00    +0.000 A 
ATOM      7  C   UNL     1      -6.614  -2.291 126.546  0.00  0.00    +0.000 A 
ATOM      8  C   UNL     1      -5.533  -1.772 125.640  0.00  0.00    +0.000 C 
ATOM      9  C   UNL     1      -6.233  -1.819 124.270  0.00  0.00    +0.000 C 
ATOM     10  C   UNL     1      -7.211  -3.014 124.329  0.00  0.00    +0.000 C 
ATOM     11  C   UNL     1      -7.574  -2.995 125.795  0.00  0.00    +0.000 A 
ATOM     12  C   UNL     1      -8.646  -3.616 126.424  0.00  0.00    +0.000 A 
ATOM     13  C   UNL     1      -8.779  -3.490 127.806  0.00  0.00    +0.000 A 
ATOM     14  C   UNL     1      -7.822  -2.789 128.557  0.00  0.00    +0.000 A 
BRANCH  10  15
ATOM     15  N   UNL     1      -8.360  -2.863 123.436  0.00  0.00    +0.000 NA
ATOM     16  H   UNL     1      -8.332  -3.607 122.739  0.00  0.00    +0.000 HD
BRANCH  15  17
ATOM     17  C   UNL     1      -8.311  -1.584 122.722  0.00  0.00    +0.000 C 
BRANCH  17  18
ATOM     18  C   UNL     1      -9.288  -0.570 123.326  0.00  0.00    +0.000 C 
BRANCH  18  19
ATOM     19  O   UNL     1     -10.357  -0.314 122.420  0.00  0.00    +0.000 OA
ATOM     20  H   UNL     1      -9.963   0.009 121.592  0.00  0.00    +0.000 HD
ENDBRANCH  18  19
ENDBRANCH  17  18
ENDBRANCH  15  17
ENDBRANCH  10  15
ENDBRANCH   3   6
BRANCH   1  24
ATOM     21  C   UNL     1      -3.520   4.008 131.056  0.00  0.00    +0.000 A 
ATOM     22  C   UNL     1      -3.563   3.694 129.685  0.00  0.00    +0.000 A 
ATOM     23  C   UNL     1      -4.044   2.452 129.248  0.00  0.00    +0.000 A 
ATOM     24  C   UNL     1      -4.297   1.421 130.144  0.00  0.00    +0.000 A 
ATOM     25  C   UNL     1      -4.100   1.665 131.505  0.00  0.00    +0.000 A 
ATOM     26  C   UNL     1      -3.735   2.949 131.961  0.00  0.00    +0.000 A 
BRANCH  22  27
ATOM     27  C   UNL     1      -3.066   4.501 128.602  0.00  0.00    +0.000 C 
ATOM     28  N   UNL     1      -2.582   5.169 127.794  0.00  0.00    +0.000 NA
ENDBRANCH  22  27
BRANCH  21  29
ATOM     29  O   UNL     1      -3.145   5.217 131.606  0.00  0.00    +0.000 OA
BRANCH  29  31
ATOM     30  C   UNL     1      -1.059   6.463 131.416  0.00  0.00    +0.000 C 
ATOM     31  C   UNL     1      -1.807   5.356 132.159  0.00  0.00    +0.000 C 
ATOM     32  C   UNL     1      -1.798   5.823 133.594  0.00  0.00    +0.000 C 
ENDBRANCH  29  31
ENDBRANCH  21  29
ENDBRANCH   1  24
TORSDOF 9
ENDMDL
MODEL 9
REMARK VINA RESULT:      -7.1      6.764      7.558
REMARK  Name = Ozanimod
REMARK  11 active torsions:
REMARK  status: ('A' for Active; 'I' for Inactive)
REMARK    1  A    between atoms: C_1  and  C_2
REMARK    2  A    between atoms: C_2  and  C_3
REMARK    3  A    between atoms: C_2  and  O_4
REMARK    4  A    between atoms: O_4  and  C_5
REMARK    5  A    between atoms: C_6  and  C_29
REMARK    6  A    between atoms: C_8  and  C_11
REMARK    7  A    between atoms: C_13  and  C_16
REMARK    8  A    between atoms: C_20  and  N_21
REMARK    9  A    between atoms: N_21  and  C_22
REMARK   10  A    between atoms: C_22  and  C_23
REMARK   11  A    between atoms: C_23  and  O_24
REMARK                            x       y       z     vdW  Elec       q    Type
REMARK                         _______ _______ _______ _____ _____    ______ ____
ROOT
ATOM      1  C   UNL     1      -5.351   3.935 126.146  0.00  0.00    +0.000 A 
ATOM      2  N   UNL     1      -5.616   4.878 127.018  0.00  0.00    +0.000 NA
ATOM      3  C   UNL     1      -4.966   4.433 128.143  0.00  0.00    +0.000 A 
ATOM      4  N   UNL     1      -4.301   3.276 127.980  0.00  0.00    +0.000 NA
ATOM      5  O   UNL     1      -4.584   2.925 126.654  0.00  0.00    +0.000 OA
ENDROOT
BRANCH   3   6
ATOM      6  C   UNL     1      -4.992   5.193 129.381  0.00  0.00    +0.000 A 
ATOM      7  C   UNL     1      -3.869   5.871 129.859  0.00  0.00    +0.000 A 
ATOM      8  C   UNL     1      -2.514   6.014 129.225  0.00  0.00    +0.000 C 
ATOM      9  C   UNL     1      -1.663   6.468 130.424  0.00  0.00    +0.000 C 
ATOM     10  C   UNL     1      -2.603   7.294 131.330  0.00  0.00    +0.000 C 
ATOM     11  C   UNL     1      -3.917   6.598 131.063  0.00  0.00    +0.000 A 
ATOM     12  C   UNL     1      -5.089   6.660 131.804  0.00  0.00    +0.000 A 
ATOM     13  C   UNL     1      -6.206   5.953 131.359  0.00  0.00    +0.000 A 
ATOM     14  C   UNL     1      -6.160   5.228 130.157  0.00  0.00    +0.000 A 
BRANCH  10  15
ATOM     15  N   UNL     1      -2.205   7.282 132.738  0.00  0.00    +0.000 NA
ATOM     16  H   UNL     1      -2.307   8.224 133.114  0.00  0.00    +0.000 HD
BRANCH  15  17
ATOM     17  C   UNL     1      -0.800   6.893 132.887  0.00  0.00    +0.000 C 
BRANCH  17  18
ATOM     18  C   UNL     1       0.000   7.967 133.631  0.00  0.00    +0.000 C 
BRANCH  18  19
ATOM     19  O   UNL     1      -0.344   9.262 133.148  0.00  0.00    +0.000 OA
ATOM     20  H   UNL     1      -0.280   9.236 132.178  0.00  0.00    +0.000 HD
ENDBRANCH  18  19
ENDBRANCH  17  18
ENDBRANCH  15  17
ENDBRANCH  10  15
ENDBRANCH   3   6
BRANCH   1  24
ATOM     21  C   UNL     1      -6.501   3.449 122.035  0.00  0.00    +0.000 A 
ATOM     22  C   UNL     1      -5.440   4.293 122.414  0.00  0.00    +0.000 A 
ATOM     23  C   UNL     1      -5.039   4.382 123.754  0.00  0.00    +0.000 A 
ATOM     24  C   UNL     1      -5.791   3.811 124.772  0.00  0.00    +0.000 A 
ATOM     25  C   UNL     1      -6.945   3.105 124.425  0.00  0.00    +0.000 A 
ATOM     26  C   UNL     1      -7.288   2.907 123.071  0.00  0.00    +0.000 A 
BRANCH  22  27
ATOM     27  C   UNL     1      -4.720   5.204 121.564  0.00  0.00    +0.000 C 
ATOM     28  N   UNL     1      -4.180   6.014 120.943  0.00  0.00    +0.000 NA
ENDBRANCH  22  27
BRANCH  21  29
ATOM     29  O   UNL     1      -6.938   3.215 120.747  0.00  0.00    +0.000 OA
BRANCH  29  31
ATOM     30  C   UNL     1      -7.241   4.391 118.633  0.00  0.00    +0.000 C 
ATOM     31  C   UNL     1      -7.729   4.233 120.073  0.00  0.00    +0.000 C 
ATOM     32  C   UNL     1      -9.181   3.855 119.916  0.00  0.00    +0.000 C 
ENDBRANCH  29  31
ENDBRANCH  21  29
ENDBRANCH   1  24
TORSDOF 9
ENDMDL
