MODEL 1
REMARK VINA RESULT:      -9.3      0.000      0.000
REMARK  Name = Ozenoxacin
REMARK  7 active torsions:
REMARK  status: ('A' for Active; 'I' for Inactive)
REMARK    1  A    between atoms: C_1  and  N_2
REMARK    2  A    between atoms: C_6  and  C_10
REMARK    3  A    between atoms: C_8  and  C_9
REMARK    4  A    between atoms: C_16  and  C_25
REMARK    5  A    between atoms: N_18  and  C_19
REMARK    6  A    between atoms: C_23  and  C_24
REMARK    7  A    between atoms: C_25  and  O_26
REMARK                            x       y       z     vdW  Elec       q    Type
REMARK                         _______ _______ _______ _____ _____    ______ ____
ROOT
ATOM      1  C   UNL     1      -4.227   7.408 131.057  0.00  0.00    +0.000 A 
ATOM      2  C   UNL     1      -5.234   7.021 131.534  0.00  0.00    +0.000 A 
ATOM      3  C   UNL     1      -7.045   7.000 130.800  0.00  0.00    +0.000 A 
ATOM      4  C   UNL     1      -8.063   6.575 131.286  0.00  0.00    +0.000 A 
ATOM      5  C   UNL     1      -9.248   6.666 130.603  0.00  0.00    +0.000 A 
ATOM      6  O   UNL     1      -9.264   7.173 129.510  0.00  0.00    +0.000 OA
ATOM      7  C   UNL     1     -10.370   6.117 131.330  0.00  0.00    +0.000 A 
ATOM      8  C   UNL     1      -9.935   5.664 132.492  0.00  0.00    +0.000 A 
ATOM      9  N   UNL     1      -8.316   5.840 132.801  0.00  0.00    +0.000 N 
ATOM     10  C   UNL     1      -6.886   6.593 131.729  0.00  0.00    +0.000 A 
ATOM     11  C   UNL     1      -5.371   7.436 130.482  0.00  0.00    +0.000 A 
ATOM     12  C   UNL     1      -3.878   8.248 129.315  0.00  0.00    +0.000 C 
ENDROOT
BRANCH   1  18
ATOM     13  C   UNL     1       0.692   7.564 134.955  0.00  0.00    +0.000 C 
ATOM     14  N   UNL     1       0.648   7.491 133.519  0.00  0.00    +0.000 N 
ATOM     15  C   UNL     1      -0.548   7.508 132.843  0.00  0.00    +0.000 A 
ATOM     16  N   UNL     1      -0.768   6.533 131.960  0.00  0.00    +0.000 NA
ATOM     17  C   UNL     1      -1.968   6.515 131.391  0.00  0.00    +0.000 A 
ATOM     18  C   UNL     1      -2.974   7.404 131.607  0.00  0.00    +0.000 A 
ATOM     19  C   UNL     1      -2.705   8.426 132.488  0.00  0.00    +0.000 A 
ATOM     20  C   UNL     1      -1.493   8.492 133.112  0.00  0.00    +0.000 A 
ATOM     21  C   UNL     1      -1.214   9.610 134.044  0.00  0.00    +0.000 C 
ATOM     22  H   UNL     1       1.489   7.258 133.017  0.00  0.00    +0.000 HD
ENDBRANCH   1  18
BRANCH   9  23
ATOM     23  C   UNL     1      -8.630   5.007 134.432  0.00  0.00    +0.000 C 
ATOM     24  C   UNL     1      -7.400   4.291 134.812  0.00  0.00    +0.000 C 
ATOM     25  C   UNL     1      -7.868   5.358 135.765  0.00  0.00    +0.000 C 
ENDBRANCH   9  23
BRANCH   7  26
ATOM     26  C   UNL     1     -11.677   6.128 130.716  0.00  0.00    +0.000 C 
ATOM     27  O   UNL     1     -12.628   6.594 131.323  0.00  0.00    +0.000 OA
BRANCH  26  28
ATOM     28  O   UNL     1     -11.826   5.624 129.475  0.00  0.00    +0.000 OA
ATOM     29  H   UNL     1     -11.125   5.126 129.026  0.00  0.00    +0.000 HD
ENDBRANCH  26  28
ENDBRANCH   7  26
TORSDOF 4
ENDMDL
MODEL 2
REMARK VINA RESULT:      -9.1      9.713     11.404
REMARK  Name = Ozenoxacin
REMARK  7 active torsions:
REMARK  status: ('A' for Active; 'I' for Inactive)
REMARK    1  A    between atoms: C_1  and  N_2
REMARK    2  A    between atoms: C_6  and  C_10
REMARK    3  A    between atoms: C_8  and  C_9
REMARK    4  A    between atoms: C_16  and  C_25
REMARK    5  A    between atoms: N_18  and  C_19
REMARK    6  A    between atoms: C_23  and  C_24
REMARK    7  A    between atoms: C_25  and  O_26
REMARK                            x       y       z     vdW  Elec       q    Type
REMARK                         _______ _______ _______ _____ _____    ______ ____
ROOT
ATOM      1  C   UNL     1      -6.513   3.125 123.922  0.00  0.00    +0.000 A 
ATOM      2  C   UNL     1      -6.538   1.974 124.176  0.00  0.00    +0.000 A 
ATOM      3  C   UNL     1      -7.134   1.057 125.796  0.00  0.00    +0.000 A 
ATOM      4  C   UNL     1      -7.183  -0.124 126.033  0.00  0.00    +0.000 A 
ATOM      5  C   UNL     1      -7.628  -0.569 127.251  0.00  0.00    +0.000 A 
ATOM      6  O   UNL     1      -7.974   0.230 128.082  0.00  0.00    +0.000 OA
ATOM      7  C   UNL     1      -7.615  -2.009 127.372  0.00  0.00    +0.000 A 
ATOM      8  C   UNL     1      -7.161  -2.521 126.242  0.00  0.00    +0.000 A 
ATOM      9  N   UNL     1      -6.741  -1.445 125.053  0.00  0.00    +0.000 N 
ATOM     10  C   UNL     1      -6.814   0.492 125.000  0.00  0.00    +0.000 A 
ATOM     11  C   UNL     1      -6.933   2.625 125.024  0.00  0.00    +0.000 A 
ATOM     12  C   UNL     1      -7.021   4.684 125.006  0.00  0.00    +0.000 C 
ENDROOT
BRANCH   1  18
ATOM     13  C   UNL     1      -6.066   6.464 118.625  0.00  0.00    +0.000 C 
ATOM     14  N   UNL     1      -5.106   5.604 119.263  0.00  0.00    +0.000 N 
ATOM     15  C   UNL     1      -5.418   4.923 120.415  0.00  0.00    +0.000 A 
ATOM     16  N   UNL     1      -4.586   5.052 121.449  0.00  0.00    +0.000 NA
ATOM     17  C   UNL     1      -4.957   4.463 122.580  0.00  0.00    +0.000 A 
ATOM     18  C   UNL     1      -6.087   3.729 122.771  0.00  0.00    +0.000 A 
ATOM     19  C   UNL     1      -6.905   3.574 121.676  0.00  0.00    +0.000 A 
ATOM     20  C   UNL     1      -6.581   4.164 120.489  0.00  0.00    +0.000 A 
ATOM     21  C   UNL     1      -7.465   3.971 119.315  0.00  0.00    +0.000 C 
ATOM     22  H   UNL     1      -4.147   5.633 118.958  0.00  0.00    +0.000 HD
ENDBRANCH   1  18
BRANCH   9  23
ATOM     23  C   UNL     1      -6.300  -2.915 124.006  0.00  0.00    +0.000 C 
ATOM     24  C   UNL     1      -5.709  -2.411 122.754  0.00  0.00    +0.000 C 
ATOM     25  C   UNL     1      -4.828  -3.297 123.594  0.00  0.00    +0.000 C 
ENDBRANCH   9  23
BRANCH   7  26
ATOM     26  C   UNL     1      -8.081  -2.614 128.598  0.00  0.00    +0.000 C 
ATOM     27  O   UNL     1      -8.772  -3.619 128.553  0.00  0.00    +0.000 OA
BRANCH  26  28
ATOM     28  O   UNL     1      -7.741  -2.057 129.777  0.00  0.00    +0.000 OA
ATOM     29  H   UNL     1      -8.286  -2.149 130.574  0.00  0.00    +0.000 HD
ENDBRANCH  26  28
ENDBRANCH   7  26
TORSDOF 4
ENDMDL
MODEL 3
REMARK VINA RESULT:      -8.6     10.124     12.047
REMARK  Name = Ozenoxacin
REMARK  7 active torsions:
REMARK  status: ('A' for Active; 'I' for Inactive)
REMARK    1  A    between atoms: C_1  and  N_2
REMARK    2  A    between atoms: C_6  and  C_10
REMARK    3  A    between atoms: C_8  and  C_9
REMARK    4  A    between atoms: C_16  and  C_25
REMARK    5  A    between atoms: N_18  and  C_19
REMARK    6  A    between atoms: C_23  and  C_24
REMARK    7  A    between atoms: C_25  and  O_26
REMARK                            x       y       z     vdW  Elec       q    Type
REMARK                         _______ _______ _______ _____ _____    ______ ____
ROOT
ATOM      1  C   UNL     1      -6.906   2.737 123.897  0.00  0.00    +0.000 A 
ATOM      2  C   UNL     1      -6.620   1.636 124.208  0.00  0.00    +0.000 A 
ATOM      3  C   UNL     1      -6.086   0.920 125.946  0.00  0.00    +0.000 A 
ATOM      4  C   UNL     1      -5.825  -0.214 126.260  0.00  0.00    +0.000 A 
ATOM      5  C   UNL     1      -5.457  -0.511 127.546  0.00  0.00    +0.000 A 
ATOM      6  O   UNL     1      -5.400   0.372 128.364  0.00  0.00    +0.000 OA
ATOM      7  C   UNL     1      -5.171  -1.912 127.749  0.00  0.00    +0.000 A 
ATOM      8  C   UNL     1      -5.345  -2.547 126.603  0.00  0.00    +0.000 A 
ATOM      9  N   UNL     1      -5.809  -1.625 125.306  0.00  0.00    +0.000 N 
ATOM     10  C   UNL     1      -6.179   0.272 125.155  0.00  0.00    +0.000 A 
ATOM     11  C   UNL     1      -6.573   2.371 125.078  0.00  0.00    +0.000 A 
ATOM     12  C   UNL     1      -6.954   4.392 124.955  0.00  0.00    +0.000 C 
ENDROOT
BRANCH   1  18
ATOM     13  C   UNL     1      -7.313   4.010 117.763  0.00  0.00    +0.000 C 
ATOM     14  N   UNL     1      -8.110   4.483 118.863  0.00  0.00    +0.000 N 
ATOM     15  C   UNL     1      -7.828   4.110 120.155  0.00  0.00    +0.000 A 
ATOM     16  N   UNL     1      -8.826   3.599 120.878  0.00  0.00    +0.000 NA
ATOM     17  C   UNL     1      -8.509   3.157 122.089  0.00  0.00    +0.000 A 
ATOM     18  C   UNL     1      -7.276   3.199 122.662  0.00  0.00    +0.000 A 
ATOM     19  C   UNL     1      -6.275   3.772 121.914  0.00  0.00    +0.000 A 
ATOM     20  C   UNL     1      -6.538   4.236 120.658  0.00  0.00    +0.000 A 
ATOM     21  C   UNL     1      -5.451   4.867 119.872  0.00  0.00    +0.000 C 
ATOM     22  H   UNL     1      -8.978   4.954 118.669  0.00  0.00    +0.000 HD
ENDBRANCH   1  18
BRANCH   9  23
ATOM     23  C   UNL     1      -5.809  -3.193 124.309  0.00  0.00    +0.000 C 
ATOM     24  C   UNL     1      -5.502  -2.835 122.913  0.00  0.00    +0.000 C 
ATOM     25  C   UNL     1      -4.540  -3.778 123.583  0.00  0.00    +0.000 C 
ENDBRANCH   9  23
BRANCH   7  26
ATOM     26  C   UNL     1      -4.792  -2.367 129.066  0.00  0.00    +0.000 C 
ATOM     27  O   UNL     1      -5.442  -3.243 129.616  0.00  0.00    +0.000 OA
BRANCH  26  28
ATOM     28  O   UNL     1      -3.720  -1.818 129.670  0.00  0.00    +0.000 OA
ATOM     29  H   UNL     1      -2.821  -1.904 129.318  0.00  0.00    +0.000 HD
ENDBRANCH  26  28
ENDBRANCH   7  26
TORSDOF 4
ENDMDL
MODEL 4
REMARK VINA RESULT:      -8.5      5.489      8.580
REMARK  Name = Ozenoxacin
REMARK  7 active torsions:
REMARK  status: ('A' for Active; 'I' for Inactive)
REMARK    1  A    between atoms: C_1  and  N_2
REMARK    2  A    between atoms: C_6  and  C_10
REMARK    3  A    between atoms: C_8  and  C_9
REMARK    4  A    between atoms: C_16  and  C_25
REMARK    5  A    between atoms: N_18  and  C_19
REMARK    6  A    between atoms: C_23  and  C_24
REMARK    7  A    between atoms: C_25  and  O_26
REMARK                            x       y       z     vdW  Elec       q    Type
REMARK                         _______ _______ _______ _____ _____    ______ ____
ROOT
ATOM      1  C   UNL     1      -9.328   5.826 132.238  0.00  0.00    +0.000 A 
ATOM      2  C   UNL     1      -9.023   6.041 133.357  0.00  0.00    +0.000 A 
ATOM      3  C   UNL     1      -7.585   5.276 134.437  0.00  0.00    +0.000 A 
ATOM      4  C   UNL     1      -7.265   5.525 135.572  0.00  0.00    +0.000 A 
ATOM      5  C   UNL     1      -6.219   4.861 136.158  0.00  0.00    +0.000 A 
ATOM      6  O   UNL     1      -5.619   4.027 135.529  0.00  0.00    +0.000 OA
ATOM      7  C   UNL     1      -5.974   5.273 137.521  0.00  0.00    +0.000 A 
ATOM      8  C   UNL     1      -6.853   6.205 137.843  0.00  0.00    +0.000 A 
ATOM      9  N   UNL     1      -7.949   6.629 136.674  0.00  0.00    +0.000 N 
ATOM     10  C   UNL     1      -8.176   6.006 134.851  0.00  0.00    +0.000 A 
ATOM     11  C   UNL     1      -8.354   5.268 132.855  0.00  0.00    +0.000 A 
ATOM     12  C   UNL     1      -8.568   4.579 130.924  0.00  0.00    +0.000 C 
ENDROOT
BRANCH   1  18
ATOM     13  C   UNL     1     -13.269   7.641 127.701  0.00  0.00    +0.000 C 
ATOM     14  N   UNL     1     -13.241   7.984 129.097  0.00  0.00    +0.000 N 
ATOM     15  C   UNL     1     -12.257   7.504 129.927  0.00  0.00    +0.000 A 
ATOM     16  N   UNL     1     -12.642   6.896 131.049  0.00  0.00    +0.000 NA
ATOM     17  C   UNL     1     -11.679   6.356 131.787  0.00  0.00    +0.000 A 
ATOM     18  C   UNL     1     -10.347   6.387 131.516  0.00  0.00    +0.000 A 
ATOM     19  C   UNL     1      -9.972   7.059 130.376  0.00  0.00    +0.000 A 
ATOM     20  C   UNL     1     -10.918   7.627 129.572  0.00  0.00    +0.000 A 
ATOM     21  C   UNL     1     -10.495   8.363 128.358  0.00  0.00    +0.000 C 
ATOM     22  H   UNL     1     -14.041   8.441 129.503  0.00  0.00    +0.000 HD
ENDBRANCH   1  18
BRANCH   9  23
ATOM     23  C   UNL     1      -8.646   7.843 137.896  0.00  0.00    +0.000 C 
ATOM     24  C   UNL     1      -8.673   9.165 137.247  0.00  0.00    +0.000 C 
ATOM     25  C   UNL     1     -10.002   8.618 137.696  0.00  0.00    +0.000 C 
ENDBRANCH   9  23
BRANCH   7  26
ATOM     26  C   UNL     1      -4.884   4.668 138.252  0.00  0.00    +0.000 C 
ATOM     27  O   UNL     1      -4.049   5.376 138.791  0.00  0.00    +0.000 OA
BRANCH  26  28
ATOM     28  O   UNL     1      -4.809   3.325 138.329  0.00  0.00    +0.000 OA
ATOM     29  H   UNL     1      -4.986   2.838 139.149  0.00  0.00    +0.000 HD
ENDBRANCH  26  28
ENDBRANCH   7  26
TORSDOF 4
ENDMDL
MODEL 5
REMARK VINA RESULT:      -8.3      8.743     10.690
REMARK  Name = Ozenoxacin
REMARK  7 active torsions:
REMARK  status: ('A' for Active; 'I' for Inactive)
REMARK    1  A    between atoms: C_1  and  N_2
REMARK    2  A    between atoms: C_6  and  C_10
REMARK    3  A    between atoms: C_8  and  C_9
REMARK    4  A    between atoms: C_16  and  C_25
REMARK    5  A    between atoms: N_18  and  C_19
REMARK    6  A    between atoms: C_23  and  C_24
REMARK    7  A    between atoms: C_25  and  O_26
REMARK                            x       y       z     vdW  Elec       q    Type
REMARK                         _______ _______ _______ _____ _____    ______ ____
ROOT
ATOM      1  C   UNL     1      -7.490  -1.760 127.322  0.00  0.00    +0.000 A 
ATOM      2  C   UNL     1      -7.059  -0.773 126.840  0.00  0.00    +0.000 A 
ATOM      3  C   UNL     1      -7.550   0.135 125.181  0.00  0.00    +0.000 A 
ATOM      4  C   UNL     1      -7.123   1.160 124.714  0.00  0.00    +0.000 A 
ATOM      5  C   UNL     1      -7.599   1.628 123.517  0.00  0.00    +0.000 A 
ATOM      6  O   UNL     1      -8.453   1.008 122.936  0.00  0.00    +0.000 OA
ATOM      7  C   UNL     1      -6.975   2.862 123.097  0.00  0.00    +0.000 A 
ATOM      8  C   UNL     1      -6.085   3.214 124.008  0.00  0.00    +0.000 A 
ATOM      9  N   UNL     1      -5.918   2.205 125.313  0.00  0.00    +0.000 N 
ATOM     10  C   UNL     1      -6.833   0.560 125.780  0.00  0.00    +0.000 A 
ATOM     11  C   UNL     1      -7.892  -1.243 126.221  0.00  0.00    +0.000 A 
ATOM     12  C   UNL     1      -8.882  -2.990 126.682  0.00  0.00    +0.000 C 
ENDROOT
BRANCH   1  18
ATOM     13  C   UNL     1      -4.564  -3.471 132.606  0.00  0.00    +0.000 C 
ATOM     14  N   UNL     1      -5.725  -4.028 131.966  0.00  0.00    +0.000 N 
ATOM     15  C   UNL     1      -6.190  -3.525 130.775  0.00  0.00    +0.000 A 
ATOM     16  N   UNL     1      -7.479  -3.188 130.713  0.00  0.00    +0.000 NA
ATOM     17  C   UNL     1      -7.884  -2.615 129.585  0.00  0.00    +0.000 A 
ATOM     18  C   UNL     1      -7.116  -2.364 128.491  0.00  0.00    +0.000 A 
ATOM     19  C   UNL     1      -5.802  -2.763 128.564  0.00  0.00    +0.000 A 
ATOM     20  C   UNL     1      -5.325  -3.349 129.701  0.00  0.00    +0.000 A 
ATOM     21  C   UNL     1      -3.911  -3.789 129.756  0.00  0.00    +0.000 C 
ATOM     22  H   UNL     1      -6.297  -4.680 132.477  0.00  0.00    +0.000 HD
ENDBRANCH   1  18
BRANCH   9  23
ATOM     23  C   UNL     1      -4.632   3.387 125.947  0.00  0.00    +0.000 C 
ATOM     24  C   UNL     1      -4.516   3.184 127.401  0.00  0.00    +0.000 C 
ATOM     25  C   UNL     1      -3.268   2.943 126.595  0.00  0.00    +0.000 C 
ENDBRANCH   9  23
BRANCH   7  26
ATOM     26  C   UNL     1      -7.400   3.479 121.862  0.00  0.00    +0.000 C 
ATOM     27  O   UNL     1      -6.576   3.738 120.999  0.00  0.00    +0.000 OA
BRANCH  26  28
ATOM     28  O   UNL     1      -8.705   3.757 121.680  0.00  0.00    +0.000 OA
ATOM     29  H   UNL     1      -9.033   4.244 120.908  0.00  0.00    +0.000 HD
ENDBRANCH  26  28
ENDBRANCH   7  26
TORSDOF 4
ENDMDL
MODEL 6
REMARK VINA RESULT:      -8.2      8.674     10.750
REMARK  Name = Ozenoxacin
REMARK  7 active torsions:
REMARK  status: ('A' for Active; 'I' for Inactive)
REMARK    1  A    between atoms: C_1  and  N_2
REMARK    2  A    between atoms: C_6  and  C_10
REMARK    3  A    between atoms: C_8  and  C_9
REMARK    4  A    between atoms: C_16  and  C_25
REMARK    5  A    between atoms: N_18  and  C_19
REMARK    6  A    between atoms: C_23  and  C_24
REMARK    7  A    between atoms: C_25  and  O_26
REMARK                            x       y       z     vdW  Elec       q    Type
REMARK                         _______ _______ _______ _____ _____    ______ ____
ROOT
ATOM      1  C   UNL     1      -7.698  -2.732 128.602  0.00  0.00    +0.000 A 
ATOM      2  C   UNL     1      -7.466  -1.750 127.992  0.00  0.00    +0.000 A 
ATOM      3  C   UNL     1      -8.323  -1.034 126.389  0.00  0.00    +0.000 A 
ATOM      4  C   UNL     1      -8.097  -0.012 125.790  0.00  0.00    +0.000 A 
ATOM      5  C   UNL     1      -8.814   0.307 124.667  0.00  0.00    +0.000 A 
ATOM      6  O   UNL     1      -9.678  -0.439 124.284  0.00  0.00    +0.000 OA
ATOM      7  C   UNL     1      -8.410   1.559 124.069  0.00  0.00    +0.000 A 
ATOM      8  C   UNL     1      -7.426   2.070 124.787  0.00  0.00    +0.000 A 
ATOM      9  N   UNL     1      -6.934   1.192 126.104  0.00  0.00    +0.000 N 
ATOM     10  C   UNL     1      -7.569  -0.492 126.826  0.00  0.00    +0.000 A 
ATOM     11  C   UNL     1      -8.332  -2.349 127.557  0.00  0.00    +0.000 A 
ATOM     12  C   UNL     1      -9.031  -4.143 128.293  0.00  0.00    +0.000 C 
ENDROOT
BRANCH   1  18
ATOM     13  C   UNL     1      -6.333  -5.180 134.219  0.00  0.00    +0.000 C 
ATOM     14  N   UNL     1      -5.469  -4.607 133.222  0.00  0.00    +0.000 N 
ATOM     15  C   UNL     1      -5.977  -4.083 132.058  0.00  0.00    +0.000 A 
ATOM     16  N   UNL     1      -5.454  -4.515 130.911  0.00  0.00    +0.000 NA
ATOM     17  C   UNL     1      -6.026  -4.068 129.798  0.00  0.00    +0.000 A 
ATOM     18  C   UNL     1      -7.070  -3.200 129.725  0.00  0.00    +0.000 A 
ATOM     19  C   UNL     1      -7.562  -2.734 130.922  0.00  0.00    +0.000 A 
ATOM     20  C   UNL     1      -7.022  -3.165 132.099  0.00  0.00    +0.000 A 
ATOM     21  C   UNL     1      -7.551  -2.639 133.379  0.00  0.00    +0.000 C 
ATOM     22  H   UNL     1      -4.474  -4.742 133.303  0.00  0.00    +0.000 HD
ENDBRANCH   1  18
BRANCH   9  23
ATOM     23  C   UNL     1      -5.700   2.543 126.429  0.00  0.00    +0.000 C 
ATOM     24  C   UNL     1      -5.012   2.226 127.692  0.00  0.00    +0.000 C 
ATOM     25  C   UNL     1      -4.141   2.325 126.468  0.00  0.00    +0.000 C 
ENDBRANCH   9  23
BRANCH   7  26
ATOM     26  C   UNL     1      -9.100   2.028 122.890  0.00  0.00    +0.000 C 
ATOM     27  O   UNL     1      -8.860   3.141 122.448  0.00  0.00    +0.000 OA
BRANCH  26  28
ATOM     28  O   UNL     1     -10.000   1.224 122.290  0.00  0.00    +0.000 OA
ATOM     29  H   UNL     1      -9.905   0.259 122.265  0.00  0.00    +0.000 HD
ENDBRANCH  26  28
ENDBRANCH   7  26
TORSDOF 4
ENDMDL
MODEL 7
REMARK VINA RESULT:      -8.1      9.564     10.988
REMARK  Name = Ozenoxacin
REMARK  7 active torsions:
REMARK  status: ('A' for Active; 'I' for Inactive)
REMARK    1  A    between atoms: C_1  and  N_2
REMARK    2  A    between atoms: C_6  and  C_10
REMARK    3  A    between atoms: C_8  and  C_9
REMARK    4  A    between atoms: C_16  and  C_25
REMARK    5  A    between atoms: N_18  and  C_19
REMARK    6  A    between atoms: C_23  and  C_24
REMARK    7  A    between atoms: C_25  and  O_26
REMARK                            x       y       z     vdW  Elec       q    Type
REMARK                         _______ _______ _______ _____ _____    ______ ____
ROOT
ATOM      1  C   UNL     1      -6.793  -2.042 129.429  0.00  0.00    +0.000 A 
ATOM      2  C   UNL     1      -6.839  -2.029 128.250  0.00  0.00    +0.000 A 
ATOM      3  C   UNL     1      -8.053  -1.078 127.050  0.00  0.00    +0.000 A 
ATOM      4  C   UNL     1      -8.072  -1.048 125.845  0.00  0.00    +0.000 A 
ATOM      5  C   UNL     1      -9.025  -0.318 125.184  0.00  0.00    +0.000 A 
ATOM      6  O   UNL     1      -9.843   0.298 125.818  0.00  0.00    +0.000 OA
ATOM      7  C   UNL     1      -8.909  -0.398 123.746  0.00  0.00    +0.000 A 
ATOM      8  C   UNL     1      -7.886  -1.179 123.450  0.00  0.00    +0.000 A 
ATOM      9  N   UNL     1      -7.056  -1.833 124.727  0.00  0.00    +0.000 N 
ATOM     10  C   UNL     1      -7.299  -1.642 126.641  0.00  0.00    +0.000 A 
ATOM     11  C   UNL     1      -7.635  -1.372 128.733  0.00  0.00    +0.000 A 
ATOM     12  C   UNL     1      -7.927  -1.148 130.761  0.00  0.00    +0.000 C 
ENDROOT
BRANCH   1  18
ATOM     13  C   UNL     1      -3.150  -3.985 134.157  0.00  0.00    +0.000 C 
ATOM     14  N   UNL     1      -3.317  -4.522 132.834  0.00  0.00    +0.000 N 
ATOM     15  C   UNL     1      -4.146  -3.917 131.921  0.00  0.00    +0.000 A 
ATOM     16  N   UNL     1      -5.066  -4.679 131.328  0.00  0.00    +0.000 NA
ATOM     17  C   UNL     1      -5.918  -4.054 130.523  0.00  0.00    +0.000 A 
ATOM     18  C   UNL     1      -5.923  -2.725 130.235  0.00  0.00    +0.000 A 
ATOM     19  C   UNL     1      -4.936  -1.969 130.824  0.00  0.00    +0.000 A 
ATOM     20  C   UNL     1      -4.037  -2.554 131.668  0.00  0.00    +0.000 A 
ATOM     21  C   UNL     1      -2.969  -1.729 132.280  0.00  0.00    +0.000 C 
ATOM     22  H   UNL     1      -2.954  -5.440 132.631  0.00  0.00    +0.000 HD
ENDBRANCH   1  18
BRANCH   9  23
ATOM     23  C   UNL     1      -5.951  -2.647 123.473  0.00  0.00    +0.000 C 
ATOM     24  C   UNL     1      -4.580  -2.637 124.012  0.00  0.00    +0.000 C 
ATOM     25  C   UNL     1      -5.171  -3.991 123.724  0.00  0.00    +0.000 C 
ENDBRANCH   9  23
BRANCH   7  26
ATOM     26  C   UNL     1      -9.839   0.343 122.926  0.00  0.00    +0.000 C 
ATOM     27  O   UNL     1     -10.631  -0.256 122.215  0.00  0.00    +0.000 OA
BRANCH  26  28
ATOM     28  O   UNL     1      -9.819   1.690 122.960  0.00  0.00    +0.000 OA
ATOM     29  H   UNL     1      -9.111   2.191 123.394  0.00  0.00    +0.000 HD
ENDBRANCH  26  28
ENDBRANCH   7  26
TORSDOF 4
ENDMDL
MODEL 8
REMARK VINA RESULT:      -7.8      5.988      8.726
REMARK  Name = Ozenoxacin
REMARK  7 active torsions:
REMARK  status: ('A' for Active; 'I' for Inactive)
REMARK    1  A    between atoms: C_1  and  N_2
REMARK    2  A    between atoms: C_6  and  C_10
REMARK    3  A    between atoms: C_8  and  C_9
REMARK    4  A    between atoms: C_16  and  C_25
REMARK    5  A    between atoms: N_18  and  C_19
REMARK    6  A    between atoms: C_23  and  C_24
REMARK    7  A    between atoms: C_25  and  O_26
REMARK                            x       y       z     vdW  Elec       q    Type
REMARK                         _______ _______ _______ _____ _____    ______ ____
ROOT
ATOM      1  C   UNL     1      -3.562   3.659 127.222  0.00  0.00    +0.000 A 
ATOM      2  C   UNL     1      -3.764   4.264 128.214  0.00  0.00    +0.000 A 
ATOM      3  C   UNL     1      -2.526   5.256 129.355  0.00  0.00    +0.000 A 
ATOM      4  C   UNL     1      -2.750   5.896 130.352  0.00  0.00    +0.000 A 
ATOM      5  C   UNL     1      -1.727   6.517 131.021  0.00  0.00    +0.000 A 
ATOM      6  O   UNL     1      -0.602   6.421 130.603  0.00  0.00    +0.000 OA
ATOM      7  C   UNL     1      -2.166   7.233 132.197  0.00  0.00    +0.000 A 
ATOM      8  C   UNL     1      -3.475   7.088 132.313  0.00  0.00    +0.000 A 
ATOM      9  N   UNL     1      -4.227   6.171 131.155  0.00  0.00    +0.000 N 
ATOM     10  C   UNL     1      -3.525   5.258 129.595  0.00  0.00    +0.000 A 
ATOM     11  C   UNL     1      -2.670   4.285 127.896  0.00  0.00    +0.000 A 
ATOM     12  C   UNL     1      -1.887   3.323 126.250  0.00  0.00    +0.000 C 
ENDROOT
BRANCH   1  18
ATOM     13  C   UNL     1      -8.224   0.022 125.114  0.00  0.00    +0.000 C 
ATOM     14  N   UNL     1      -7.231   0.769 124.391  0.00  0.00    +0.000 N 
ATOM     15  C   UNL     1      -6.258   1.482 125.049  0.00  0.00    +0.000 A 
ATOM     16  N   UNL     1      -6.107   2.764 124.719  0.00  0.00    +0.000 NA
ATOM     17  C   UNL     1      -5.228   3.457 125.435  0.00  0.00    +0.000 A 
ATOM     18  C   UNL     1      -4.461   2.975 126.449  0.00  0.00    +0.000 A 
ATOM     19  C   UNL     1      -4.603   1.639 126.740  0.00  0.00    +0.000 A 
ATOM     20  C   UNL     1      -5.497   0.877 126.044  0.00  0.00    +0.000 A 
ATOM     21  C   UNL     1      -5.625  -0.566 126.358  0.00  0.00    +0.000 C 
ATOM     22  H   UNL     1      -7.350   0.907 123.400  0.00  0.00    +0.000 HD
ENDBRANCH   1  18
BRANCH   9  23
ATOM     23  C   UNL     1      -5.821   6.521 132.043  0.00  0.00    +0.000 C 
ATOM     24  C   UNL     1      -6.813   6.932 131.036  0.00  0.00    +0.000 C 
ATOM     25  C   UNL     1      -7.148   5.700 131.833  0.00  0.00    +0.000 C 
ENDBRANCH   9  23
BRANCH   7  26
ATOM     26  C   UNL     1      -1.192   7.952 132.985  0.00  0.00    +0.000 C 
ATOM     27  O   UNL     1      -1.449   9.075 133.389  0.00  0.00    +0.000 OA
BRANCH  26  28
ATOM     28  O   UNL     1      -0.011   7.368 133.265  0.00  0.00    +0.000 OA
ATOM     29  H   UNL     1       0.112   6.405 133.253  0.00  0.00    +0.000 HD
ENDBRANCH  26  28
ENDBRANCH   7  26
TORSDOF 4
ENDMDL
MODEL 9
REMARK VINA RESULT:      -7.7      7.340      8.798
REMARK  Name = Ozenoxacin
REMARK  7 active torsions:
REMARK  status: ('A' for Active; 'I' for Inactive)
REMARK    1  A    between atoms: C_1  and  N_2
REMARK    2  A    between atoms: C_6  and  C_10
REMARK    3  A    between atoms: C_8  and  C_9
REMARK    4  A    between atoms: C_16  and  C_25
REMARK    5  A    between atoms: N_18  and  C_19
REMARK    6  A    between atoms: C_23  and  C_24
REMARK    7  A    between atoms: C_25  and  O_26
REMARK                            x       y       z     vdW  Elec       q    Type
REMARK                         _______ _______ _______ _____ _____    ______ ____
ROOT
ATOM      1  C   UNL     1      -4.435   3.561 127.543  0.00  0.00    +0.000 A 
ATOM      2  C   UNL     1      -5.149   3.297 126.643  0.00  0.00    +0.000 A 
ATOM      3  C   UNL     1      -5.116   3.913 124.789  0.00  0.00    +0.000 A 
ATOM      4  C   UNL     1      -5.834   3.613 123.869  0.00  0.00    +0.000 A 
ATOM      5  C   UNL     1      -5.648   4.173 122.632  0.00  0.00    +0.000 A 
ATOM      6  O   UNL     1      -4.757   4.966 122.470  0.00  0.00    +0.000 OA
ATOM      7  C   UNL     1      -6.599   3.711 121.647  0.00  0.00    +0.000 A 
ATOM      8  C   UNL     1      -7.417   2.849 122.225  0.00  0.00    +0.000 A 
ATOM      9  N   UNL     1      -7.162   2.546 123.835  0.00  0.00    +0.000 N 
ATOM     10  C   UNL     1      -5.827   3.226 125.066  0.00  0.00    +0.000 A 
ATOM     11  C   UNL     1      -4.319   4.021 126.354  0.00  0.00    +0.000 A 
ATOM     12  C   UNL     1      -2.888   4.769 127.634  0.00  0.00    +0.000 C 
ENDROOT
BRANCH   1  18
ATOM     13  C   UNL     1      -3.304   0.775 133.054  0.00  0.00    +0.000 C 
ATOM     14  N   UNL     1      -4.437   1.547 132.621  0.00  0.00    +0.000 N 
ATOM     15  C   UNL     1      -4.510   2.045 131.342  0.00  0.00    +0.000 A 
ATOM     16  N   UNL     1      -4.759   3.347 131.203  0.00  0.00    +0.000 NA
ATOM     17  C   UNL     1      -4.729   3.823 129.963  0.00  0.00    +0.000 A 
ATOM     18  C   UNL     1      -4.494   3.105 128.833  0.00  0.00    +0.000 A 
ATOM     19  C   UNL     1      -4.285   1.756 128.999  0.00  0.00    +0.000 A 
ATOM     20  C   UNL     1      -4.294   1.210 130.250  0.00  0.00    +0.000 A 
ATOM     21  C   UNL     1      -4.086  -0.248 130.411  0.00  0.00    +0.000 C 
ATOM     22  H   UNL     1      -5.101   1.867 133.307  0.00  0.00    +0.000 HD
ENDBRANCH   1  18
BRANCH   9  23
ATOM     23  C   UNL     1      -8.596   1.368 123.746  0.00  0.00    +0.000 C 
ATOM     24  C   UNL     1      -8.527   0.490 124.926  0.00  0.00    +0.000 C 
ATOM     25  C   UNL     1      -9.771   1.327 124.794  0.00  0.00    +0.000 C 
ENDBRANCH   9  23
BRANCH   7  26
ATOM     26  C   UNL     1      -6.503   4.205 120.293  0.00  0.00    +0.000 C 
ATOM     27  O   UNL     1      -7.488   4.194 119.572  0.00  0.00    +0.000 OA
BRANCH  26  28
ATOM     28  O   UNL     1      -5.322   4.676 119.847  0.00  0.00    +0.000 OA
ATOM     29  H   UNL     1      -4.838   5.386 120.297  0.00  0.00    +0.000 HD
ENDBRANCH  26  28
ENDBRANCH   7  26
TORSDOF 4
ENDMDL
