MODEL 1
REMARK VINA RESULT:      -6.8      0.000      0.000
REMARK  Name = P-nitrobiphenyl
REMARK  2 active torsions:
REMARK  status: ('A' for Active; 'I' for Inactive)
REMARK    1  A    between atoms: N_2  and  C_4
REMARK    2  A    between atoms: C_7  and  C_10
REMARK                            x       y       z     vdW  Elec       q    Type
REMARK                         _______ _______ _______ _____ _____    ______ ____
ROOT
ATOM      1  C   UNL     1      -8.674   1.695 124.645  0.00  0.00    +0.000 A 
ATOM      2  C   UNL     1      -7.309   1.975 124.733  0.00  0.00    +0.000 A 
ATOM      3  C   UNL     1      -6.698   2.661 123.682  0.00  0.00    +0.000 A 
ATOM      4  C   UNL     1      -7.414   2.999 122.516  0.00  0.00    +0.000 A 
ATOM      5  C   UNL     1      -8.784   2.692 122.454  0.00  0.00    +0.000 A 
ATOM      6  C   UNL     1      -9.418   2.038 123.512  0.00  0.00    +0.000 A 
ENDROOT
BRANCH   4   7
ATOM      7  C   UNL     1      -6.734   3.697 121.418  0.00  0.00    +0.000 A 
ATOM      8  C   UNL     1      -5.433   4.203 121.579  0.00  0.00    +0.000 A 
ATOM      9  C   UNL     1      -4.860   5.021 120.604  0.00  0.00    +0.000 A 
ATOM     10  C   UNL     1      -5.546   5.274 119.419  0.00  0.00    +0.000 A 
ATOM     11  C   UNL     1      -6.809   4.724 119.215  0.00  0.00    +0.000 A 
ATOM     12  C   UNL     1      -7.400   3.943 120.210  0.00  0.00    +0.000 A 
ENDBRANCH   4   7
BRANCH   1  14
ATOM     13  O   UNL     1     -10.214   0.248 125.569  0.00  0.00    +0.000 OA
ATOM     14  N   UNL     1      -9.368   1.129 125.792  0.00  0.00    +0.000 N 
ATOM     15  O   UNL     1      -9.092   1.589 126.905  0.00  0.00    +0.000 OA
ENDBRANCH   1  14
TORSDOF 2
ENDMDL
MODEL 2
REMARK VINA RESULT:      -6.7      9.343     10.112
REMARK  Name = P-nitrobiphenyl
REMARK  2 active torsions:
REMARK  status: ('A' for Active; 'I' for Inactive)
REMARK    1  A    between atoms: N_2  and  C_4
REMARK    2  A    between atoms: C_7  and  C_10
REMARK                            x       y       z     vdW  Elec       q    Type
REMARK                         _______ _______ _______ _____ _____    ______ ____
ROOT
ATOM      1  C   UNL     1      -8.871   6.046 132.177  0.00  0.00    +0.000 A 
ATOM      2  C   UNL     1      -8.561   6.653 130.957  0.00  0.00    +0.000 A 
ATOM      3  C   UNL     1      -9.606   7.126 130.162  0.00  0.00    +0.000 A 
ATOM      4  C   UNL     1     -10.951   6.930 130.532  0.00  0.00    +0.000 A 
ATOM      5  C   UNL     1     -11.229   6.305 131.760  0.00  0.00    +0.000 A 
ATOM      6  C   UNL     1     -10.195   5.859 132.583  0.00  0.00    +0.000 A 
ENDROOT
BRANCH   4   7
ATOM      7  C   UNL     1     -12.027   7.417 129.659  0.00  0.00    +0.000 A 
ATOM      8  C   UNL     1     -12.777   6.528 128.870  0.00  0.00    +0.000 A 
ATOM      9  C   UNL     1     -13.669   7.006 127.909  0.00  0.00    +0.000 A 
ATOM     10  C   UNL     1     -13.887   8.375 127.783  0.00  0.00    +0.000 A 
ATOM     11  C   UNL     1     -13.201   9.267 128.603  0.00  0.00    +0.000 A 
ATOM     12  C   UNL     1     -12.275   8.791 129.533  0.00  0.00    +0.000 A 
ENDBRANCH   4   7
BRANCH   1  14
ATOM     13  O   UNL     1      -8.095   5.573 134.297  0.00  0.00    +0.000 OA
ATOM     14  N   UNL     1      -7.799   5.693 133.097  0.00  0.00    +0.000 N 
ATOM     15  O   UNL     1      -6.664   5.572 132.625  0.00  0.00    +0.000 OA
ENDBRANCH   1  14
TORSDOF 2
ENDMDL
MODEL 3
REMARK VINA RESULT:      -6.7      9.230     10.563
REMARK  Name = P-nitrobiphenyl
REMARK  2 active torsions:
REMARK  status: ('A' for Active; 'I' for Inactive)
REMARK    1  A    between atoms: N_2  and  C_4
REMARK    2  A    between atoms: C_7  and  C_10
REMARK                            x       y       z     vdW  Elec       q    Type
REMARK                         _______ _______ _______ _____ _____    ______ ____
ROOT
ATOM      1  C   UNL     1     -12.210   7.934 129.261  0.00  0.00    +0.000 A 
ATOM      2  C   UNL     1     -12.497   7.250 130.444  0.00  0.00    +0.000 A 
ATOM      3  C   UNL     1     -11.435   6.790 131.224  0.00  0.00    +0.000 A 
ATOM      4  C   UNL     1     -10.099   6.936 130.799  0.00  0.00    +0.000 A 
ATOM      5  C   UNL     1      -9.846   7.619 129.597  0.00  0.00    +0.000 A 
ATOM      6  C   UNL     1     -10.895   8.117 128.824  0.00  0.00    +0.000 A 
ENDROOT
BRANCH   4   7
ATOM      7  C   UNL     1      -9.007   6.417 131.631  0.00  0.00    +0.000 A 
ATOM      8  C   UNL     1      -9.268   5.819 132.876  0.00  0.00    +0.000 A 
ATOM      9  C   UNL     1      -8.224   5.493 133.744  0.00  0.00    +0.000 A 
ATOM     10  C   UNL     1      -6.904   5.683 133.345  0.00  0.00    +0.000 A 
ATOM     11  C   UNL     1      -6.627   6.213 132.087  0.00  0.00    +0.000 A 
ATOM     12  C   UNL     1      -7.672   6.580 131.238  0.00  0.00    +0.000 A 
ENDBRANCH   4   7
BRANCH   1  14
ATOM     13  O   UNL     1     -13.887   7.867 127.679  0.00  0.00    +0.000 OA
ATOM     14  N   UNL     1     -13.289   8.565 128.515  0.00  0.00    +0.000 N 
ATOM     15  O   UNL     1     -13.513   9.759 128.741  0.00  0.00    +0.000 OA
ENDBRANCH   1  14
TORSDOF 2
ENDMDL
MODEL 4
REMARK VINA RESULT:      -6.6      4.235      6.350
REMARK  Name = P-nitrobiphenyl
REMARK  2 active torsions:
REMARK  status: ('A' for Active; 'I' for Inactive)
REMARK    1  A    between atoms: N_2  and  C_4
REMARK    2  A    between atoms: C_7  and  C_10
REMARK                            x       y       z     vdW  Elec       q    Type
REMARK                         _______ _______ _______ _____ _____    ______ ____
ROOT
ATOM      1  C   UNL     1      -6.295   4.473 120.423  0.00  0.00    +0.000 A 
ATOM      2  C   UNL     1      -7.630   4.100 120.253  0.00  0.00    +0.000 A 
ATOM      3  C   UNL     1      -8.244   3.341 121.251  0.00  0.00    +0.000 A 
ATOM      4  C   UNL     1      -7.522   2.886 122.372  0.00  0.00    +0.000 A 
ATOM      5  C   UNL     1      -6.176   3.269 122.507  0.00  0.00    +0.000 A 
ATOM      6  C   UNL     1      -5.558   4.058 121.536  0.00  0.00    +0.000 A 
ENDROOT
BRANCH   4   7
ATOM      7  C   UNL     1      -8.192   2.067 123.390  0.00  0.00    +0.000 A 
ATOM      8  C   UNL     1      -9.585   1.888 123.372  0.00  0.00    +0.000 A 
ATOM      9  C   UNL     1     -10.239   1.266 124.436  0.00  0.00    +0.000 A 
ATOM     10  C   UNL     1      -9.500   0.739 125.492  0.00  0.00    +0.000 A 
ATOM     11  C   UNL     1      -8.112   0.848 125.493  0.00  0.00    +0.000 A 
ATOM     12  C   UNL     1      -7.463   1.511 124.449  0.00  0.00    +0.000 A 
ENDBRANCH   4   7
BRANCH   1  14
ATOM     13  O   UNL     1      -4.873   6.222 119.938  0.00  0.00    +0.000 OA
ATOM     14  N   UNL     1      -5.682   5.397 119.482  0.00  0.00    +0.000 N 
ATOM     15  O   UNL     1      -6.034   5.320 118.300  0.00  0.00    +0.000 OA
ENDBRANCH   1  14
TORSDOF 2
ENDMDL
MODEL 5
REMARK VINA RESULT:      -6.5      9.321     10.253
REMARK  Name = P-nitrobiphenyl
REMARK  2 active torsions:
REMARK  status: ('A' for Active; 'I' for Inactive)
REMARK    1  A    between atoms: N_2  and  C_4
REMARK    2  A    between atoms: C_7  and  C_10
REMARK                            x       y       z     vdW  Elec       q    Type
REMARK                         _______ _______ _______ _____ _____    ______ ____
ROOT
ATOM      1  C   UNL     1     -11.311   6.828 130.892  0.00  0.00    +0.000 A 
ATOM      2  C   UNL     1     -10.915   6.173 132.061  0.00  0.00    +0.000 A 
ATOM      3  C   UNL     1      -9.552   6.079 132.344  0.00  0.00    +0.000 A 
ATOM      4  C   UNL     1      -8.582   6.558 131.440  0.00  0.00    +0.000 A 
ATOM      5  C   UNL     1      -9.014   7.201 130.268  0.00  0.00    +0.000 A 
ATOM      6  C   UNL     1     -10.375   7.335 129.987  0.00  0.00    +0.000 A 
ENDROOT
BRANCH   4   7
ATOM      7  C   UNL     1      -7.156   6.419 131.758  0.00  0.00    +0.000 A 
ATOM      8  C   UNL     1      -6.736   5.779 132.936  0.00  0.00    +0.000 A 
ATOM      9  C   UNL     1      -5.396   5.808 133.326  0.00  0.00    +0.000 A 
ATOM     10  C   UNL     1      -4.445   6.402 132.500  0.00  0.00    +0.000 A 
ATOM     11  C   UNL     1      -4.836   6.982 131.295  0.00  0.00    +0.000 A 
ATOM     12  C   UNL     1      -6.182   6.992 130.929  0.00  0.00    +0.000 A 
ENDBRANCH   4   7
BRANCH   1  14
ATOM     13  O   UNL     1     -13.109   7.102 129.475  0.00  0.00    +0.000 OA
ATOM     14  N   UNL     1     -12.724   7.083 130.656  0.00  0.00    +0.000 N 
ATOM     15  O   UNL     1     -13.435   7.298 131.643  0.00  0.00    +0.000 OA
ENDBRANCH   1  14
TORSDOF 2
ENDMDL
MODEL 6
REMARK VINA RESULT:      -6.4      9.523     11.176
REMARK  Name = P-nitrobiphenyl
REMARK  2 active torsions:
REMARK  status: ('A' for Active; 'I' for Inactive)
REMARK    1  A    between atoms: N_2  and  C_4
REMARK    2  A    between atoms: C_7  and  C_10
REMARK                            x       y       z     vdW  Elec       q    Type
REMARK                         _______ _______ _______ _____ _____    ______ ____
ROOT
ATOM      1  C   UNL     1     -11.973   7.909 129.912  0.00  0.00    +0.000 A 
ATOM      2  C   UNL     1     -12.536   7.280 131.026  0.00  0.00    +0.000 A 
ATOM      3  C   UNL     1     -11.713   6.496 131.836  0.00  0.00    +0.000 A 
ATOM      4  C   UNL     1     -10.362   6.269 131.504  0.00  0.00    +0.000 A 
ATOM      5  C   UNL     1      -9.831   6.907 130.370  0.00  0.00    +0.000 A 
ATOM      6  C   UNL     1     -10.631   7.724 129.570  0.00  0.00    +0.000 A 
ENDROOT
BRANCH   4   7
ATOM      7  C   UNL     1      -9.532   5.417 132.363  0.00  0.00    +0.000 A 
ATOM      8  C   UNL     1      -9.603   4.016 132.278  0.00  0.00    +0.000 A 
ATOM      9  C   UNL     1      -8.954   3.210 133.215  0.00  0.00    +0.000 A 
ATOM     10  C   UNL     1      -8.157   3.791 134.198  0.00  0.00    +0.000 A 
ATOM     11  C   UNL     1      -8.022   5.176 134.255  0.00  0.00    +0.000 A 
ATOM     12  C   UNL     1      -8.708   5.983 133.345  0.00  0.00    +0.000 A 
ENDBRANCH   4   7
BRANCH   1  14
ATOM     13  O   UNL     1     -12.950   9.982 129.649  0.00  0.00    +0.000 OA
ATOM     14  N   UNL     1     -12.766   8.860 129.148  0.00  0.00    +0.000 N 
ATOM     15  O   UNL     1     -13.230   8.474 128.069  0.00  0.00    +0.000 OA
ENDBRANCH   1  14
TORSDOF 2
ENDMDL
MODEL 7
REMARK VINA RESULT:      -6.4      6.971     10.157
REMARK  Name = P-nitrobiphenyl
REMARK  2 active torsions:
REMARK  status: ('A' for Active; 'I' for Inactive)
REMARK    1  A    between atoms: N_2  and  C_4
REMARK    2  A    between atoms: C_7  and  C_10
REMARK                            x       y       z     vdW  Elec       q    Type
REMARK                         _______ _______ _______ _____ _____    ______ ____
ROOT
ATOM      1  C   UNL     1      -8.662  -2.461 126.624  0.00  0.00    +0.000 A 
ATOM      2  C   UNL     1      -9.029  -3.655 127.248  0.00  0.00    +0.000 A 
ATOM      3  C   UNL     1      -8.450  -3.972 128.478  0.00  0.00    +0.000 A 
ATOM      4  C   UNL     1      -7.455  -3.153 129.049  0.00  0.00    +0.000 A 
ATOM      5  C   UNL     1      -7.099  -1.965 128.389  0.00  0.00    +0.000 A 
ATOM      6  C   UNL     1      -7.696  -1.616 127.176  0.00  0.00    +0.000 A 
ENDROOT
BRANCH   4   7
ATOM      7  C   UNL     1      -6.847  -3.530 130.331  0.00  0.00    +0.000 A 
ATOM      8  C   UNL     1      -5.869  -4.537 130.400  0.00  0.00    +0.000 A 
ATOM      9  C   UNL     1      -5.427  -5.019 131.633  0.00  0.00    +0.000 A 
ATOM     10  C   UNL     1      -5.893  -4.443 132.812  0.00  0.00    +0.000 A 
ATOM     11  C   UNL     1      -6.813  -3.399 132.759  0.00  0.00    +0.000 A 
ATOM     12  C   UNL     1      -7.288  -2.948 131.527  0.00  0.00    +0.000 A 
ENDBRANCH   4   7
BRANCH   1  14
ATOM     13  O   UNL     1      -9.591  -0.813 125.305  0.00  0.00    +0.000 OA
ATOM     14  N   UNL     1      -9.368  -2.029 125.427  0.00  0.00    +0.000 N 
ATOM     15  O   UNL     1      -9.727  -2.905 124.632  0.00  0.00    +0.000 OA
ENDBRANCH   1  14
TORSDOF 2
ENDMDL
MODEL 8
REMARK VINA RESULT:      -6.3      0.604      2.019
REMARK  Name = P-nitrobiphenyl
REMARK  2 active torsions:
REMARK  status: ('A' for Active; 'I' for Inactive)
REMARK    1  A    between atoms: N_2  and  C_4
REMARK    2  A    between atoms: C_7  and  C_10
REMARK                            x       y       z     vdW  Elec       q    Type
REMARK                         _______ _______ _______ _____ _____    ______ ____
ROOT
ATOM      1  C   UNL     1      -8.474   1.275 124.650  0.00  0.00    +0.000 A 
ATOM      2  C   UNL     1      -9.371   1.754 123.693  0.00  0.00    +0.000 A 
ATOM      3  C   UNL     1      -8.872   2.501 122.625  0.00  0.00    +0.000 A 
ATOM      4  C   UNL     1      -7.507   2.841 122.545  0.00  0.00    +0.000 A 
ATOM      5  C   UNL     1      -6.633   2.353 123.532  0.00  0.00    +0.000 A 
ATOM      6  C   UNL     1      -7.110   1.574 124.586  0.00  0.00    +0.000 A 
ENDROOT
BRANCH   4   7
ATOM      7  C   UNL     1      -7.021   3.652 121.422  0.00  0.00    +0.000 A 
ATOM      8  C   UNL     1      -7.836   3.904 120.305  0.00  0.00    +0.000 A 
ATOM      9  C   UNL     1      -7.314   4.516 119.165  0.00  0.00    +0.000 A 
ATOM     10  C   UNL     1      -5.995   4.961 119.157  0.00  0.00    +0.000 A 
ATOM     11  C   UNL     1      -5.192   4.779 120.281  0.00  0.00    +0.000 A 
ATOM     12  C   UNL     1      -5.702   4.126 121.404  0.00  0.00    +0.000 A 
ENDBRANCH   4   7
BRANCH   1  14
ATOM     13  O   UNL     1      -8.374   0.403 126.783  0.00  0.00    +0.000 OA
ATOM     14  N   UNL     1      -8.942   0.359 125.679  0.00  0.00    +0.000 N 
ATOM     15  O   UNL     1      -9.849  -0.422 125.373  0.00  0.00    +0.000 OA
ENDBRANCH   1  14
TORSDOF 2
ENDMDL
MODEL 9
REMARK VINA RESULT:      -6.1      6.018      7.643
REMARK  Name = P-nitrobiphenyl
REMARK  2 active torsions:
REMARK  status: ('A' for Active; 'I' for Inactive)
REMARK    1  A    between atoms: N_2  and  C_4
REMARK    2  A    between atoms: C_7  and  C_10
REMARK                            x       y       z     vdW  Elec       q    Type
REMARK                         _______ _______ _______ _____ _____    ______ ____
ROOT
ATOM      1  C   UNL     1      -7.207  -3.183 129.465  0.00  0.00    +0.000 A 
ATOM      2  C   UNL     1      -6.276  -2.525 128.658  0.00  0.00    +0.000 A 
ATOM      3  C   UNL     1      -6.598  -2.290 127.321  0.00  0.00    +0.000 A 
ATOM      4  C   UNL     1      -7.800  -2.772 126.763  0.00  0.00    +0.000 A 
ATOM      5  C   UNL     1      -8.710  -3.441 127.600  0.00  0.00    +0.000 A 
ATOM      6  C   UNL     1      -8.418  -3.652 128.948  0.00  0.00    +0.000 A 
ENDROOT
BRANCH   4   7
ATOM      7  C   UNL     1      -8.095  -2.530 125.346  0.00  0.00    +0.000 A 
ATOM      8  C   UNL     1      -9.195  -3.144 124.721  0.00  0.00    +0.000 A 
ATOM      9  C   UNL     1      -9.369  -3.060 123.339  0.00  0.00    +0.000 A 
ATOM     10  C   UNL     1      -8.494  -2.292 122.574  0.00  0.00    +0.000 A 
ATOM     11  C   UNL     1      -7.438  -1.623 123.187  0.00  0.00    +0.000 A 
ATOM     12  C   UNL     1      -7.239  -1.744 124.563  0.00  0.00    +0.000 A 
ENDBRANCH   4   7
BRANCH   1  14
ATOM     13  O   UNL     1      -7.607  -2.536 131.642  0.00  0.00    +0.000 OA
ATOM     14  N   UNL     1      -6.967  -3.294 130.896  0.00  0.00    +0.000 N 
ATOM     15  O   UNL     1      -6.118  -4.112 131.266  0.00  0.00    +0.000 OA
ENDBRANCH   1  14
TORSDOF 2
ENDMDL
