MODEL 1
REMARK VINA RESULT:      -4.6      0.000      0.000
REMARK  Name = p-Phenylenediamine
REMARK  2 active torsions:
REMARK  status: ('A' for Active; 'I' for Inactive)
REMARK    1  A    between atoms: N_1  and  C_2
REMARK    2  A    between atoms: C_5  and  N_6
REMARK                            x       y       z     vdW  Elec       q    Type
REMARK                         _______ _______ _______ _____ _____    ______ ____
ROOT
ATOM      1  C   UNL     1     -11.017   6.413 131.563  0.00  0.00    +0.000 A 
ATOM      2  C   UNL     1     -12.281   6.992 131.438  0.00  0.00    +0.000 A 
ATOM      3  C   UNL     1     -12.597   7.786 130.327  0.00  0.00    +0.000 A 
ATOM      4  C   UNL     1     -11.639   8.082 129.361  0.00  0.00    +0.000 A 
ATOM      5  C   UNL     1     -10.330   7.647 129.582  0.00  0.00    +0.000 A 
ATOM      6  C   UNL     1     -10.033   6.789 130.650  0.00  0.00    +0.000 A 
ENDROOT
BRANCH   1   7
ATOM      7  N   UNL     1     -10.681   5.685 132.709  0.00  0.00    +0.000 N 
ATOM      8  H   UNL     1     -10.593   4.686 132.557  0.00  0.00    +0.000 HD
ATOM      9  H   UNL     1      -9.889   6.066 133.220  0.00  0.00    +0.000 HD
ENDBRANCH   1   7
BRANCH   4  10
ATOM     10  N   UNL     1     -11.921   8.996 128.338  0.00  0.00    +0.000 N 
ATOM     11  H   UNL     1     -12.812   8.831 127.878  0.00  0.00    +0.000 HD
ATOM     12  H   UNL     1     -11.165   9.124 127.674  0.00  0.00    +0.000 HD
ENDBRANCH   4  10
TORSDOF 2
ENDMDL
MODEL 2
REMARK VINA RESULT:      -4.5      0.196      3.710
REMARK  Name = p-Phenylenediamine
REMARK  2 active torsions:
REMARK  status: ('A' for Active; 'I' for Inactive)
REMARK    1  A    between atoms: N_1  and  C_2
REMARK    2  A    between atoms: C_5  and  N_6
REMARK                            x       y       z     vdW  Elec       q    Type
REMARK                         _______ _______ _______ _____ _____    ______ ____
ROOT
ATOM      1  C   UNL     1     -11.849   8.163 129.366  0.00  0.00    +0.000 A 
ATOM      2  C   UNL     1     -10.543   7.690 129.497  0.00  0.00    +0.000 A 
ATOM      3  C   UNL     1     -10.197   6.828 130.546  0.00  0.00    +0.000 A 
ATOM      4  C   UNL     1     -11.124   6.483 131.528  0.00  0.00    +0.000 A 
ATOM      5  C   UNL     1     -12.377   7.099 131.489  0.00  0.00    +0.000 A 
ATOM      6  C   UNL     1     -12.748   7.897 130.398  0.00  0.00    +0.000 A 
ENDROOT
BRANCH   1   7
ATOM      7  N   UNL     1     -12.173   9.084 128.362  0.00  0.00    +0.000 N 
ATOM      8  H   UNL     1     -11.728   9.989 128.468  0.00  0.00    +0.000 HD
ATOM      9  H   UNL     1     -12.074   8.716 127.420  0.00  0.00    +0.000 HD
ENDBRANCH   1   7
BRANCH   4  10
ATOM     10  N   UNL     1     -10.729   5.746 132.649  0.00  0.00    +0.000 N 
ATOM     11  H   UNL     1      -9.816   6.008 133.010  0.00  0.00    +0.000 HD
ATOM     12  H   UNL     1     -10.823   4.741 132.542  0.00  0.00    +0.000 HD
ENDBRANCH   4  10
TORSDOF 2
ENDMDL
MODEL 3
REMARK VINA RESULT:      -4.5      0.165      1.698
REMARK  Name = p-Phenylenediamine
REMARK  2 active torsions:
REMARK  status: ('A' for Active; 'I' for Inactive)
REMARK    1  A    between atoms: N_1  and  C_2
REMARK    2  A    between atoms: C_5  and  N_6
REMARK                            x       y       z     vdW  Elec       q    Type
REMARK                         _______ _______ _______ _____ _____    ______ ____
ROOT
ATOM      1  C   UNL     1     -10.900   6.453 131.683  0.00  0.00    +0.000 A 
ATOM      2  C   UNL     1      -9.926   6.720 130.721  0.00  0.00    +0.000 A 
ATOM      3  C   UNL     1     -10.201   7.572 129.643  0.00  0.00    +0.000 A 
ATOM      4  C   UNL     1     -11.473   8.110 129.459  0.00  0.00    +0.000 A 
ATOM      5  C   UNL     1     -12.489   7.698 130.326  0.00  0.00    +0.000 A 
ATOM      6  C   UNL     1     -12.195   6.911 131.447  0.00  0.00    +0.000 A 
ENDROOT
BRANCH   1   7
ATOM      7  N   UNL     1     -10.646   5.542 132.716  0.00  0.00    +0.000 N 
ATOM      8  H   UNL     1      -9.980   4.816 132.477  0.00  0.00    +0.000 HD
ATOM      9  H   UNL     1     -10.431   5.982 133.607  0.00  0.00    +0.000 HD
ENDBRANCH   1   7
BRANCH   4  10
ATOM     10  N   UNL     1     -11.777   8.834 128.301  0.00  0.00    +0.000 N 
ATOM     11  H   UNL     1     -12.556   8.452 127.772  0.00  0.00    +0.000 HD
ATOM     12  H   UNL     1     -10.975   9.033 127.712  0.00  0.00    +0.000 HD
ENDBRANCH   4  10
TORSDOF 2
ENDMDL
MODEL 4
REMARK VINA RESULT:      -4.4     10.863     11.797
REMARK  Name = p-Phenylenediamine
REMARK  2 active torsions:
REMARK  status: ('A' for Active; 'I' for Inactive)
REMARK    1  A    between atoms: N_1  and  C_2
REMARK    2  A    between atoms: C_5  and  N_6
REMARK                            x       y       z     vdW  Elec       q    Type
REMARK                         _______ _______ _______ _____ _____    ______ ____
ROOT
ATOM      1  C   UNL     1      -6.565   3.665 121.375  0.00  0.00    +0.000 A 
ATOM      2  C   UNL     1      -7.536   3.844 120.389  0.00  0.00    +0.000 A 
ATOM      3  C   UNL     1      -7.242   4.558 119.219  0.00  0.00    +0.000 A 
ATOM      4  C   UNL     1      -6.004   5.172 119.044  0.00  0.00    +0.000 A 
ATOM      5  C   UNL     1      -5.100   5.138 120.109  0.00  0.00    +0.000 A 
ATOM      6  C   UNL     1      -5.364   4.359 121.244  0.00  0.00    +0.000 A 
ENDROOT
BRANCH   1   7
ATOM      7  N   UNL     1      -6.884   3.018 122.575  0.00  0.00    +0.000 N 
ATOM      8  H   UNL     1      -6.525   2.073 122.647  0.00  0.00    +0.000 HD
ATOM      9  H   UNL     1      -6.682   3.569 123.405  0.00  0.00    +0.000 HD
ENDBRANCH   1   7
BRANCH   4  10
ATOM     10  N   UNL     1      -5.774   6.005 117.943  0.00  0.00    +0.000 N 
ATOM     11  H   UNL     1      -6.616   6.441 117.578  0.00  0.00    +0.000 HD
ATOM     12  H   UNL     1      -5.213   5.582 117.211  0.00  0.00    +0.000 HD
ENDBRANCH   4  10
TORSDOF 2
ENDMDL
MODEL 5
REMARK VINA RESULT:      -4.4     11.010     12.337
REMARK  Name = p-Phenylenediamine
REMARK  2 active torsions:
REMARK  status: ('A' for Active; 'I' for Inactive)
REMARK    1  A    between atoms: N_1  and  C_2
REMARK    2  A    between atoms: C_5  and  N_6
REMARK                            x       y       z     vdW  Elec       q    Type
REMARK                         _______ _______ _______ _____ _____    ______ ____
ROOT
ATOM      1  C   UNL     1      -6.041   5.373 119.018  0.00  0.00    +0.000 A 
ATOM      2  C   UNL     1      -7.182   4.577 119.123  0.00  0.00    +0.000 A 
ATOM      3  C   UNL     1      -7.406   3.797 120.265  0.00  0.00    +0.000 A 
ATOM      4  C   UNL     1      -6.463   3.735 121.289  0.00  0.00    +0.000 A 
ATOM      5  C   UNL     1      -5.247   4.395 121.099  0.00  0.00    +0.000 A 
ATOM      6  C   UNL     1      -5.055   5.236 119.994  0.00  0.00    +0.000 A 
ENDROOT
BRANCH   1   7
ATOM      7  N   UNL     1      -5.782   6.091 117.844  0.00  0.00    +0.000 N 
ATOM      8  H   UNL     1      -4.850   5.953 117.468  0.00  0.00    +0.000 HD
ATOM      9  H   UNL     1      -6.501   5.988 117.133  0.00  0.00    +0.000 HD
ENDBRANCH   1   7
BRANCH   4  10
ATOM     10  N   UNL     1      -6.628   2.840 122.352  0.00  0.00    +0.000 N 
ATOM     11  H   UNL     1      -7.268   2.077 122.149  0.00  0.00    +0.000 HD
ATOM     12  H   UNL     1      -6.831   3.283 123.242  0.00  0.00    +0.000 HD
ENDBRANCH   4  10
TORSDOF 2
ENDMDL
MODEL 6
REMARK VINA RESULT:      -3.8      1.101      3.387
REMARK  Name = p-Phenylenediamine
REMARK  2 active torsions:
REMARK  status: ('A' for Active; 'I' for Inactive)
REMARK    1  A    between atoms: N_1  and  C_2
REMARK    2  A    between atoms: C_5  and  N_6
REMARK                            x       y       z     vdW  Elec       q    Type
REMARK                         _______ _______ _______ _____ _____    ______ ____
ROOT
ATOM      1  C   UNL     1     -11.082   7.737 128.295  0.00  0.00    +0.000 A 
ATOM      2  C   UNL     1     -12.192   8.073 129.071  0.00  0.00    +0.000 A 
ATOM      3  C   UNL     1     -12.324   7.586 130.379  0.00  0.00    +0.000 A 
ATOM      4  C   UNL     1     -11.395   6.694 130.909  0.00  0.00    +0.000 A 
ATOM      5  C   UNL     1     -10.384   6.224 130.068  0.00  0.00    +0.000 A 
ATOM      6  C   UNL     1     -10.207   6.771 128.790  0.00  0.00    +0.000 A 
ENDROOT
BRANCH   1   7
ATOM      7  N   UNL     1     -10.991   8.163 126.965  0.00  0.00    +0.000 N 
ATOM      8  H   UNL     1     -11.807   7.948 126.402  0.00  0.00    +0.000 HD
ATOM      9  H   UNL     1     -10.700   9.131 126.863  0.00  0.00    +0.000 HD
ENDBRANCH   1   7
BRANCH   4  10
ATOM     10  N   UNL     1     -11.616   6.098 132.157  0.00  0.00    +0.000 N 
ATOM     11  H   UNL     1     -11.463   6.725 132.942  0.00  0.00    +0.000 HD
ATOM     12  H   UNL     1     -11.148   5.207 132.281  0.00  0.00    +0.000 HD
ENDBRANCH   4  10
TORSDOF 2
ENDMDL
MODEL 7
REMARK VINA RESULT:      -3.7      9.509     10.717
REMARK  Name = p-Phenylenediamine
REMARK  2 active torsions:
REMARK  status: ('A' for Active; 'I' for Inactive)
REMARK    1  A    between atoms: N_1  and  C_2
REMARK    2  A    between atoms: C_5  and  N_6
REMARK                            x       y       z     vdW  Elec       q    Type
REMARK                         _______ _______ _______ _____ _____    ______ ____
ROOT
ATOM      1  C   UNL     1      -6.385   3.994 120.946  0.00  0.00    +0.000 A 
ATOM      2  C   UNL     1      -6.022   3.725 122.266  0.00  0.00    +0.000 A 
ATOM      3  C   UNL     1      -6.944   3.168 123.162  0.00  0.00    +0.000 A 
ATOM      4  C   UNL     1      -8.265   2.941 122.784  0.00  0.00    +0.000 A 
ATOM      5  C   UNL     1      -8.667   3.375 121.519  0.00  0.00    +0.000 A 
ATOM      6  C   UNL     1      -7.728   3.859 120.597  0.00  0.00    +0.000 A 
ENDROOT
BRANCH   1   7
ATOM      7  N   UNL     1      -5.485   4.620 120.076  0.00  0.00    +0.000 N 
ATOM      8  H   UNL     1      -4.840   3.986 119.616  0.00  0.00    +0.000 HD
ATOM      9  H   UNL     1      -5.926   5.260 119.420  0.00  0.00    +0.000 HD
ENDBRANCH   1   7
BRANCH   4  10
ATOM     10  N   UNL     1      -9.212   2.527 123.728  0.00  0.00    +0.000 N 
ATOM     11  H   UNL     1      -9.545   3.276 124.329  0.00  0.00    +0.000 HD
ATOM     12  H   UNL     1      -8.942   1.704 124.256  0.00  0.00    +0.000 HD
ENDBRANCH   4  10
TORSDOF 2
ENDMDL
MODEL 8
REMARK VINA RESULT:      -3.7     12.514     13.266
REMARK  Name = p-Phenylenediamine
REMARK  2 active torsions:
REMARK  status: ('A' for Active; 'I' for Inactive)
REMARK    1  A    between atoms: N_1  and  C_2
REMARK    2  A    between atoms: C_5  and  N_6
REMARK                            x       y       z     vdW  Elec       q    Type
REMARK                         _______ _______ _______ _____ _____    ______ ____
ROOT
ATOM      1  C   UNL     1      -8.165  -1.871 123.230  0.00  0.00    +0.000 A 
ATOM      2  C   UNL     1      -8.266  -3.034 123.995  0.00  0.00    +0.000 A 
ATOM      3  C   UNL     1      -7.119  -3.755 124.353  0.00  0.00    +0.000 A 
ATOM      4  C   UNL     1      -5.860  -3.376 123.893  0.00  0.00    +0.000 A 
ATOM      5  C   UNL     1      -5.786  -2.317 122.986  0.00  0.00    +0.000 A 
ATOM      6  C   UNL     1      -6.921  -1.549 122.690  0.00  0.00    +0.000 A 
ENDROOT
BRANCH   1   7
ATOM      7  N   UNL     1      -9.318  -1.196 122.809  0.00  0.00    +0.000 N 
ATOM      8  H   UNL     1      -9.273  -0.189 122.918  0.00  0.00    +0.000 HD
ATOM      9  H   UNL     1      -9.638  -1.468 121.884  0.00  0.00    +0.000 HD
ENDBRANCH   1   7
BRANCH   4  10
ATOM     10  N   UNL     1      -4.744  -4.187 124.132  0.00  0.00    +0.000 N 
ATOM     11  H   UNL     1      -4.358  -4.609 123.292  0.00  0.00    +0.000 HD
ATOM     12  H   UNL     1      -4.873  -4.864 124.876  0.00  0.00    +0.000 HD
ENDBRANCH   4  10
TORSDOF 2
ENDMDL
MODEL 9
REMARK VINA RESULT:      -3.7     11.420     12.280
REMARK  Name = p-Phenylenediamine
REMARK  2 active torsions:
REMARK  status: ('A' for Active; 'I' for Inactive)
REMARK    1  A    between atoms: N_1  and  C_2
REMARK    2  A    between atoms: C_5  and  N_6
REMARK                            x       y       z     vdW  Elec       q    Type
REMARK                         _______ _______ _______ _____ _____    ______ ____
ROOT
ATOM      1  C   UNL     1      -9.028  -3.286 124.389  0.00  0.00    +0.000 A 
ATOM      2  C   UNL     1      -7.685  -3.125 124.046  0.00  0.00    +0.000 A 
ATOM      3  C   UNL     1      -6.736  -2.781 125.017  0.00  0.00    +0.000 A 
ATOM      4  C   UNL     1      -7.117  -2.513 126.330  0.00  0.00    +0.000 A 
ATOM      5  C   UNL     1      -8.481  -2.504 126.626  0.00  0.00    +0.000 A 
ATOM      6  C   UNL     1      -9.422  -2.925 125.676  0.00  0.00    +0.000 A 
ENDROOT
BRANCH   1   7
ATOM      7  N   UNL     1      -9.985  -3.555 123.403  0.00  0.00    +0.000 N 
ATOM      8  H   UNL     1     -10.836  -3.009 123.488  0.00  0.00    +0.000 HD
ATOM      9  H   UNL     1      -9.615  -3.543 122.457  0.00  0.00    +0.000 HD
ENDBRANCH   1   7
BRANCH   4  10
ATOM     10  N   UNL     1      -6.185  -2.025 127.254  0.00  0.00    +0.000 N 
ATOM     11  H   UNL     1      -5.220  -2.113 126.946  0.00  0.00    +0.000 HD
ATOM     12  H   UNL     1      -6.318  -2.367 128.199  0.00  0.00    +0.000 HD
ENDBRANCH   4  10
TORSDOF 2
ENDMDL
