MODEL 1
REMARK VINA RESULT:      -9.9      0.000      0.000
REMARK  Name = Pacritinib
REMARK  4 active torsions:
REMARK  status: ('A' for Active; 'I' for Inactive)
REMARK    1  A    between atoms: C_1  and  C_2
REMARK    2  A    between atoms: C_1  and  O_8
REMARK    3  A    between atoms: C_2  and  N_3
REMARK    4  A    between atoms: O_8  and  C_9
REMARK                            x       y       z     vdW  Elec       q    Type
REMARK                         _______ _______ _______ _____ _____    ______ ____
ROOT
ATOM      1  C   UNL     1      -4.665   5.021 128.141  0.00  0.00    +0.000 A 
ATOM      2  C   UNL     1      -3.681   4.766 127.139  0.00  0.00    +0.000 A 
ATOM      3  C   UNL     1      -3.931   3.920 126.064  0.00  0.00    +0.000 A 
ATOM      4  C   UNL     1      -5.228   3.452 125.880  0.00  0.00    +0.000 A 
ATOM      5  N   UNL     1      -5.544   2.707 124.723  0.00  0.00    +0.000 N 
ATOM      6  C   UNL     1      -6.813   2.211 124.433  0.00  0.00    +0.000 A 
ATOM      7  N   UNL     1      -7.747   3.144 124.199  0.00  0.00    +0.000 NA
ATOM      8  C   UNL     1      -8.944   2.723 123.795  0.00  0.00    +0.000 A 
ATOM      9  C   UNL     1      -9.227   1.411 123.544  0.00  0.00    +0.000 A 
ATOM     10  C   UNL     1      -8.318   0.505 124.046  0.00  0.00    +0.000 A 
ATOM     11  N   UNL     1      -7.075   0.889 124.442  0.00  0.00    +0.000 NA
ATOM     12  C   UNL     1      -8.696  -0.919 124.206  0.00  0.00    +0.000 A 
ATOM     13  C   UNL     1      -8.769  -1.542 125.468  0.00  0.00    +0.000 A 
ATOM     14  C   UNL     1      -8.955  -2.941 125.594  0.00  0.00    +0.000 A 
ATOM     15  C   UNL     1      -8.779  -3.693 126.892  0.00  0.00    +0.000 C 
ATOM     16  O   UNL     1      -8.507  -2.764 127.897  0.00  0.00    +0.000 OA
ATOM     17  C   UNL     1      -8.276  -3.293 129.198  0.00  0.00    +0.000 C 
ATOM     18  C   UNL     1      -7.978  -1.962 129.908  0.00  0.00    +0.000 C 
ATOM     19  C   UNL     1      -7.590  -1.496 131.038  0.00  0.00    +0.000 C 
ATOM     20  C   UNL     1      -7.212   0.273 131.294  0.00  0.00    +0.000 C 
ATOM     21  O   UNL     1      -7.368   1.627 130.152  0.00  0.00    +0.000 OA
ATOM     22  C   UNL     1      -6.783   3.257 129.588  0.00  0.00    +0.000 C 
ATOM     23  C   UNL     1      -5.846   4.085 128.207  0.00  0.00    +0.000 A 
ATOM     24  C   UNL     1      -6.202   3.663 126.905  0.00  0.00    +0.000 A 
ATOM     25  C   UNL     1      -9.266  -3.682 124.457  0.00  0.00    +0.000 A 
ATOM     26  C   UNL     1      -9.402  -3.044 123.231  0.00  0.00    +0.000 A 
ATOM     27  C   UNL     1      -9.053  -1.696 123.096  0.00  0.00    +0.000 A 
ATOM     28  H   UNL     1      -4.794   2.210 124.266  0.00  0.00    +0.000 HD
ENDROOT
BRANCH   1  29
ATOM     29  O   UNL     1      -4.553   6.340 128.737  0.00  0.00    +0.000 OA
BRANCH  29  30
ATOM     30  C   UNL     1      -3.192   7.043 128.745  0.00  0.00    +0.000 C 
BRANCH  30  31
ATOM     31  C   UNL     1      -2.172   6.677 129.896  0.00  0.00    +0.000 C 
BRANCH  31  32
ATOM     32  N   UNL     1      -2.673   6.370 131.288  0.00  0.00    +0.000 NA
ATOM     33  C   UNL     1      -1.885   6.985 132.370  0.00  0.00    +0.000 C 
ATOM     34  C   UNL     1      -0.782   5.976 132.650  0.00  0.00    +0.000 C 
ATOM     35  C   UNL     1      -1.522   4.657 132.554  0.00  0.00    +0.000 C 
ATOM     36  C   UNL     1      -2.687   4.923 131.598  0.00  0.00    +0.000 C 
ENDBRANCH  31  32
ENDBRANCH  30  31
ENDBRANCH  29  30
ENDBRANCH   1  29
TORSDOF 4
ENDMDL
MODEL 2
REMARK VINA RESULT:      -9.5      2.027      3.108
REMARK  Name = Pacritinib
REMARK  4 active torsions:
REMARK  status: ('A' for Active; 'I' for Inactive)
REMARK    1  A    between atoms: C_1  and  C_2
REMARK    2  A    between atoms: C_1  and  O_8
REMARK    3  A    between atoms: C_2  and  N_3
REMARK    4  A    between atoms: O_8  and  C_9
REMARK                            x       y       z     vdW  Elec       q    Type
REMARK                         _______ _______ _______ _____ _____    ______ ____
ROOT
ATOM      1  C   UNL     1      -4.928   4.983 128.779  0.00  0.00    +0.000 A 
ATOM      2  C   UNL     1      -3.899   4.856 127.797  0.00  0.00    +0.000 A 
ATOM      3  C   UNL     1      -4.075   4.096 126.646  0.00  0.00    +0.000 A 
ATOM      4  C   UNL     1      -5.343   3.593 126.374  0.00  0.00    +0.000 A 
ATOM      5  N   UNL     1      -5.586   2.938 125.147  0.00  0.00    +0.000 N 
ATOM      6  C   UNL     1      -6.821   2.417 124.769  0.00  0.00    +0.000 A 
ATOM      7  N   UNL     1      -7.787   3.327 124.580  0.00  0.00    +0.000 NA
ATOM      8  C   UNL     1      -8.950   2.893 124.097  0.00  0.00    +0.000 A 
ATOM      9  C   UNL     1      -9.165   1.597 123.725  0.00  0.00    +0.000 A 
ATOM     10  C   UNL     1      -8.235   0.689 124.183  0.00  0.00    +0.000 A 
ATOM     11  N   UNL     1      -7.024   1.089 124.656  0.00  0.00    +0.000 NA
ATOM     12  C   UNL     1      -8.555  -0.757 124.207  0.00  0.00    +0.000 A 
ATOM     13  C   UNL     1      -8.643  -1.489 125.408  0.00  0.00    +0.000 A 
ATOM     14  C   UNL     1      -8.771  -2.900 125.408  0.00  0.00    +0.000 A 
ATOM     15  C   UNL     1      -8.606  -3.753 126.644  0.00  0.00    +0.000 C 
ATOM     16  O   UNL     1      -8.410  -2.904 127.734  0.00  0.00    +0.000 OA
ATOM     17  C   UNL     1      -8.200  -3.533 128.993  0.00  0.00    +0.000 C 
ATOM     18  C   UNL     1      -7.985  -2.257 129.823  0.00  0.00    +0.000 C 
ATOM     19  C   UNL     1      -7.657  -1.875 131.003  0.00  0.00    +0.000 C 
ATOM     20  C   UNL     1      -7.367  -0.120 131.421  0.00  0.00    +0.000 C 
ATOM     21  O   UNL     1      -7.544   1.320 130.393  0.00  0.00    +0.000 OA
ATOM     22  C   UNL     1      -7.012   3.015 129.991  0.00  0.00    +0.000 C 
ATOM     23  C   UNL     1      -6.067   3.997 128.722  0.00  0.00    +0.000 A 
ATOM     24  C   UNL     1      -6.359   3.675 127.376  0.00  0.00    +0.000 A 
ATOM     25  C   UNL     1      -9.010  -3.553 124.202  0.00  0.00    +0.000 A 
ATOM     26  C   UNL     1      -9.132  -2.818 123.030  0.00  0.00    +0.000 A 
ATOM     27  C   UNL     1      -8.839  -1.450 123.023  0.00  0.00    +0.000 A 
ATOM     28  H   UNL     1      -4.799   2.514 124.679  0.00  0.00    +0.000 HD
ENDROOT
BRANCH   1  29
ATOM     29  O   UNL     1      -4.894   6.249 129.489  0.00  0.00    +0.000 OA
BRANCH  29  30
ATOM     30  C   UNL     1      -5.450   6.322 130.914  0.00  0.00    +0.000 C 
BRANCH  30  31
ATOM     31  C   UNL     1      -6.947   6.794 131.106  0.00  0.00    +0.000 C 
BRANCH  31  32
ATOM     32  N   UNL     1      -8.074   5.788 131.064  0.00  0.00    +0.000 NA
ATOM     33  C   UNL     1      -9.037   5.995 129.968  0.00  0.00    +0.000 C 
ATOM     34  C   UNL     1     -10.056   6.966 130.544  0.00  0.00    +0.000 C 
ATOM     35  C   UNL     1     -10.222   6.453 131.962  0.00  0.00    +0.000 C 
ATOM     36  C   UNL     1      -8.892   5.775 132.297  0.00  0.00    +0.000 C 
ENDBRANCH  31  32
ENDBRANCH  30  31
ENDBRANCH  29  30
ENDBRANCH   1  29
TORSDOF 4
ENDMDL
MODEL 3
REMARK VINA RESULT:      -9.4      3.388     10.058
REMARK  Name = Pacritinib
REMARK  4 active torsions:
REMARK  status: ('A' for Active; 'I' for Inactive)
REMARK    1  A    between atoms: C_1  and  C_2
REMARK    2  A    between atoms: C_1  and  O_8
REMARK    3  A    between atoms: C_2  and  N_3
REMARK    4  A    between atoms: O_8  and  C_9
REMARK                            x       y       z     vdW  Elec       q    Type
REMARK                         _______ _______ _______ _____ _____    ______ ____
ROOT
ATOM      1  C   UNL     1      -7.322  -2.451 128.086  0.00  0.00    +0.000 A 
ATOM      2  C   UNL     1      -7.138  -3.258 129.249  0.00  0.00    +0.000 A 
ATOM      3  C   UNL     1      -7.224  -2.725 130.531  0.00  0.00    +0.000 A 
ATOM      4  C   UNL     1      -7.665  -1.414 130.673  0.00  0.00    +0.000 A 
ATOM      5  N   UNL     1      -7.896  -0.890 131.964  0.00  0.00    +0.000 N 
ATOM      6  C   UNL     1      -8.357   0.400 132.216  0.00  0.00    +0.000 A 
ATOM      7  N   UNL     1      -9.603   0.650 131.791  0.00  0.00    +0.000 NA
ATOM      8  C   UNL     1     -10.137   1.826 132.118  0.00  0.00    +0.000 A 
ATOM      9  C   UNL     1      -9.502   2.736 132.913  0.00  0.00    +0.000 A 
ATOM     10  C   UNL     1      -8.151   2.526 133.090  0.00  0.00    +0.000 A 
ATOM     11  N   UNL     1      -7.573   1.330 132.797  0.00  0.00    +0.000 NA
ATOM     12  C   UNL     1      -7.283   3.626 133.570  0.00  0.00    +0.000 A 
ATOM     13  C   UNL     1      -6.255   4.175 132.777  0.00  0.00    +0.000 A 
ATOM     14  C   UNL     1      -5.321   5.097 133.310  0.00  0.00    +0.000 A 
ATOM     15  C   UNL     1      -4.056   5.512 132.595  0.00  0.00    +0.000 C 
ATOM     16  O   UNL     1      -4.052   4.909 131.337  0.00  0.00    +0.000 OA
ATOM     17  C   UNL     1      -2.913   5.158 130.522  0.00  0.00    +0.000 C 
ATOM     18  C   UNL     1      -3.322   4.280 129.328  0.00  0.00    +0.000 C 
ATOM     19  C   UNL     1      -2.875   3.844 128.208  0.00  0.00    +0.000 C 
ATOM     20  C   UNL     1      -3.773   2.609 127.205  0.00  0.00    +0.000 C 
ATOM     21  O   UNL     1      -5.365   1.872 127.500  0.00  0.00    +0.000 OA
ATOM     22  C   UNL     1      -6.472   0.440 127.305  0.00  0.00    +0.000 C 
ATOM     23  C   UNL     1      -7.253  -0.955 128.261  0.00  0.00    +0.000 A 
ATOM     24  C   UNL     1      -7.801  -0.590 129.513  0.00  0.00    +0.000 A 
ATOM     25  C   UNL     1      -5.541   5.616 134.583  0.00  0.00    +0.000 A 
ATOM     26  C   UNL     1      -6.669   5.238 135.299  0.00  0.00    +0.000 A 
ATOM     27  C   UNL     1      -7.488   4.207 134.829  0.00  0.00    +0.000 A 
ATOM     28  H   UNL     1      -7.393  -1.305 132.734  0.00  0.00    +0.000 HD
ENDROOT
BRANCH   1  29
ATOM     29  O   UNL     1      -7.876  -3.181 126.959  0.00  0.00    +0.000 OA
BRANCH  29  30
ATOM     30  C   UNL     1      -9.115  -2.630 126.249  0.00  0.00    +0.000 C 
BRANCH  30  31
ATOM     31  C   UNL     1      -9.286  -2.935 124.707  0.00  0.00    +0.000 C 
BRANCH  31  32
ATOM     32  N   UNL     1      -9.207  -1.814 123.696  0.00  0.00    +0.000 NA
ATOM     33  C   UNL     1      -8.344  -2.098 122.536  0.00  0.00    +0.000 C 
ATOM     34  C   UNL     1      -6.959  -1.658 122.985  0.00  0.00    +0.000 C 
ATOM     35  C   UNL     1      -7.258  -0.379 123.743  0.00  0.00    +0.000 C 
ATOM     36  C   UNL     1      -8.686  -0.550 124.263  0.00  0.00    +0.000 C 
ENDBRANCH  31  32
ENDBRANCH  30  31
ENDBRANCH  29  30
ENDBRANCH   1  29
TORSDOF 4
ENDMDL
MODEL 4
REMARK VINA RESULT:      -9.4      2.371      8.970
REMARK  Name = Pacritinib
REMARK  4 active torsions:
REMARK  status: ('A' for Active; 'I' for Inactive)
REMARK    1  A    between atoms: C_1  and  C_2
REMARK    2  A    between atoms: C_1  and  O_8
REMARK    3  A    between atoms: C_2  and  N_3
REMARK    4  A    between atoms: O_8  and  C_9
REMARK                            x       y       z     vdW  Elec       q    Type
REMARK                         _______ _______ _______ _____ _____    ______ ____
ROOT
ATOM      1  C   UNL     1      -8.856   1.149 125.244  0.00  0.00    +0.000 A 
ATOM      2  C   UNL     1      -9.051   2.363 124.519  0.00  0.00    +0.000 A 
ATOM      3  C   UNL     1      -8.276   3.493 124.759  0.00  0.00    +0.000 A 
ATOM      4  C   UNL     1      -7.180   3.374 125.606  0.00  0.00    +0.000 A 
ATOM      5  N   UNL     1      -6.295   4.463 125.760  0.00  0.00    +0.000 N 
ATOM      6  C   UNL     1      -5.158   4.441 126.566  0.00  0.00    +0.000 A 
ATOM      7  N   UNL     1      -4.196   3.597 126.167  0.00  0.00    +0.000 NA
ATOM      8  C   UNL     1      -3.041   3.629 126.829  0.00  0.00    +0.000 A 
ATOM      9  C   UNL     1      -2.781   4.521 127.829  0.00  0.00    +0.000 A 
ATOM     10  C   UNL     1      -3.883   5.167 128.347  0.00  0.00    +0.000 A 
ATOM     11  N   UNL     1      -5.072   5.183 127.688  0.00  0.00    +0.000 NA
ATOM     12  C   UNL     1      -3.805   5.830 129.669  0.00  0.00    +0.000 A 
ATOM     13  C   UNL     1      -4.566   5.399 130.774  0.00  0.00    +0.000 A 
ATOM     14  C   UNL     1      -4.617   6.147 131.976  0.00  0.00    +0.000 A 
ATOM     15  C   UNL     1      -5.608   5.880 133.085  0.00  0.00    +0.000 C 
ATOM     16  O   UNL     1      -6.350   4.750 132.739  0.00  0.00    +0.000 OA
ATOM     17  C   UNL     1      -7.366   4.359 133.655  0.00  0.00    +0.000 C 
ATOM     18  C   UNL     1      -7.916   3.168 132.852  0.00  0.00    +0.000 C 
ATOM     19  C   UNL     1      -8.865   2.307 132.865  0.00  0.00    +0.000 C 
ATOM     20  C   UNL     1      -9.164   1.155 131.479  0.00  0.00    +0.000 C 
ATOM     21  O   UNL     1      -8.232   0.940 129.980  0.00  0.00    +0.000 OA
ATOM     22  C   UNL     1      -8.211   0.488 128.216  0.00  0.00    +0.000 C 
ATOM     23  C   UNL     1      -8.044   1.222 126.513  0.00  0.00    +0.000 A 
ATOM     24  C   UNL     1      -7.012   2.178 126.371  0.00  0.00    +0.000 A 
ATOM     25  C   UNL     1      -3.748   7.223 132.134  0.00  0.00    +0.000 A 
ATOM     26  C   UNL     1      -2.842   7.536 131.129  0.00  0.00    +0.000 A 
ATOM     27  C   UNL     1      -2.918   6.893 129.889  0.00  0.00    +0.000 A 
ATOM     28  H   UNL     1      -6.655   5.388 125.582  0.00  0.00    +0.000 HD
ENDROOT
BRANCH   1  29
ATOM     29  O   UNL     1      -9.191  -0.039 124.480  0.00  0.00    +0.000 OA
BRANCH  29  30
ATOM     30  C   UNL     1      -8.227  -0.524 123.392  0.00  0.00    +0.000 C 
BRANCH  30  31
ATOM     31  C   UNL     1      -8.174  -2.073 123.082  0.00  0.00    +0.000 C 
BRANCH  31  32
ATOM     32  N   UNL     1      -7.384  -3.002 123.975  0.00  0.00    +0.000 NA
ATOM     33  C   UNL     1      -8.204  -3.956 124.741  0.00  0.00    +0.000 C 
ATOM     34  C   UNL     1      -8.567  -3.202 126.011  0.00  0.00    +0.000 C 
ATOM     35  C   UNL     1      -7.273  -2.481 126.337  0.00  0.00    +0.000 C 
ATOM     36  C   UNL     1      -6.575  -2.290 124.989  0.00  0.00    +0.000 C 
ENDBRANCH  31  32
ENDBRANCH  30  31
ENDBRANCH  29  30
ENDBRANCH   1  29
TORSDOF 4
ENDMDL
MODEL 5
REMARK VINA RESULT:      -9.1      3.056      5.768
REMARK  Name = Pacritinib
REMARK  4 active torsions:
REMARK  status: ('A' for Active; 'I' for Inactive)
REMARK    1  A    between atoms: C_1  and  C_2
REMARK    2  A    between atoms: C_1  and  O_8
REMARK    3  A    between atoms: C_2  and  N_3
REMARK    4  A    between atoms: O_8  and  C_9
REMARK                            x       y       z     vdW  Elec       q    Type
REMARK                         _______ _______ _______ _____ _____    ______ ____
ROOT
ATOM      1  C   UNL     1      -5.149   4.103 132.936  0.00  0.00    +0.000 A 
ATOM      2  C   UNL     1      -6.437   4.059 133.551  0.00  0.00    +0.000 A 
ATOM      3  C   UNL     1      -7.303   2.987 133.362  0.00  0.00    +0.000 A 
ATOM      4  C   UNL     1      -6.827   1.863 132.696  0.00  0.00    +0.000 A 
ATOM      5  N   UNL     1      -7.633   0.707 132.610  0.00  0.00    +0.000 N 
ATOM      6  C   UNL     1      -7.244  -0.476 131.986  0.00  0.00    +0.000 A 
ATOM      7  N   UNL     1      -6.225  -1.119 132.572  0.00  0.00    +0.000 NA
ATOM      8  C   UNL     1      -5.897  -2.315 132.089  0.00  0.00    +0.000 A 
ATOM      9  C   UNL     1      -6.592  -2.930 131.088  0.00  0.00    +0.000 A 
ATOM     10  C   UNL     1      -7.445  -2.116 130.374  0.00  0.00    +0.000 A 
ATOM     11  N   UNL     1      -7.828  -0.899 130.847  0.00  0.00    +0.000 NA
ATOM     12  C   UNL     1      -7.936  -2.536 129.041  0.00  0.00    +0.000 A 
ATOM     13  C   UNL     1      -7.608  -1.836 127.863  0.00  0.00    +0.000 A 
ATOM     14  C   UNL     1      -8.226  -2.140 126.625  0.00  0.00    +0.000 A 
ATOM     15  C   UNL     1      -8.115  -1.264 125.399  0.00  0.00    +0.000 C 
ATOM     16  O   UNL     1      -7.251  -0.210 125.696  0.00  0.00    +0.000 OA
ATOM     17  C   UNL     1      -7.046   0.748 124.664  0.00  0.00    +0.000 C 
ATOM     18  C   UNL     1      -6.118   1.693 125.446  0.00  0.00    +0.000 C 
ATOM     19  C   UNL     1      -5.531   2.828 125.343  0.00  0.00    +0.000 C 
ATOM     20  C   UNL     1      -4.632   3.598 126.735  0.00  0.00    +0.000 C 
ATOM     21  O   UNL     1      -4.333   2.957 128.366  0.00  0.00    +0.000 OA
ATOM     22  C   UNL     1      -4.063   3.283 130.137  0.00  0.00    +0.000 C 
ATOM     23  C   UNL     1      -4.890   3.146 131.800  0.00  0.00    +0.000 A 
ATOM     24  C   UNL     1      -5.559   1.923 132.037  0.00  0.00    +0.000 A 
ATOM     25  C   UNL     1      -9.024  -3.277 126.534  0.00  0.00    +0.000 A 
ATOM     26  C   UNL     1      -9.190  -4.097 127.642  0.00  0.00    +0.000 A 
ATOM     27  C   UNL     1      -8.710  -3.694 128.893  0.00  0.00    +0.000 A 
ATOM     28  H   UNL     1      -8.633   0.828 132.677  0.00  0.00    +0.000 HD
ENDROOT
BRANCH   1  29
ATOM     29  O   UNL     1      -4.166   4.837 133.711  0.00  0.00    +0.000 OA
BRANCH  29  30
ATOM     30  C   UNL     1      -3.748   6.239 133.253  0.00  0.00    +0.000 C 
BRANCH  30  31
ATOM     31  C   UNL     1      -4.167   6.702 131.801  0.00  0.00    +0.000 C 
BRANCH  31  32
ATOM     32  N   UNL     1      -3.186   7.450 130.928  0.00  0.00    +0.000 NA
ATOM     33  C   UNL     1      -3.765   7.993 129.687  0.00  0.00    +0.000 C 
ATOM     34  C   UNL     1      -3.637   6.855 128.686  0.00  0.00    +0.000 C 
ATOM     35  C   UNL     1      -2.266   6.295 129.010  0.00  0.00    +0.000 C 
ATOM     36  C   UNL     1      -2.043   6.620 130.489  0.00  0.00    +0.000 C 
ENDBRANCH  31  32
ENDBRANCH  30  31
ENDBRANCH  29  30
ENDBRANCH   1  29
TORSDOF 4
ENDMDL
MODEL 6
REMARK VINA RESULT:      -9.1      2.490      4.965
REMARK  Name = Pacritinib
REMARK  4 active torsions:
REMARK  status: ('A' for Active; 'I' for Inactive)
REMARK    1  A    between atoms: C_1  and  C_2
REMARK    2  A    between atoms: C_1  and  O_8
REMARK    3  A    between atoms: C_2  and  N_3
REMARK    4  A    between atoms: O_8  and  C_9
REMARK                            x       y       z     vdW  Elec       q    Type
REMARK                         _______ _______ _______ _____ _____    ______ ____
ROOT
ATOM      1  C   UNL     1      -4.710   5.542 129.808  0.00  0.00    +0.000 A 
ATOM      2  C   UNL     1      -5.757   5.571 130.779  0.00  0.00    +0.000 A 
ATOM      3  C   UNL     1      -6.485   4.432 131.107  0.00  0.00    +0.000 A 
ATOM      4  C   UNL     1      -6.063   3.209 130.597  0.00  0.00    +0.000 A 
ATOM      5  N   UNL     1      -6.694   2.020 131.022  0.00  0.00    +0.000 N 
ATOM      6  C   UNL     1      -6.336   0.745 130.591  0.00  0.00    +0.000 A 
ATOM      7  N   UNL     1      -5.115   0.341 130.968  0.00  0.00    +0.000 NA
ATOM      8  C   UNL     1      -4.773  -0.916 130.688  0.00  0.00    +0.000 A 
ATOM      9  C   UNL     1      -5.629  -1.809 130.110  0.00  0.00    +0.000 A 
ATOM     10  C   UNL     1      -6.750  -1.261 129.526  0.00  0.00    +0.000 A 
ATOM     11  N   UNL     1      -7.150   0.008 129.808  0.00  0.00    +0.000 NA
ATOM     12  C   UNL     1      -7.530  -2.038 128.535  0.00  0.00    +0.000 A 
ATOM     13  C   UNL     1      -7.644  -1.641 127.188  0.00  0.00    +0.000 A 
ATOM     14  C   UNL     1      -8.534  -2.290 126.297  0.00  0.00    +0.000 A 
ATOM     15  C   UNL     1      -8.891  -1.750 124.932  0.00  0.00    +0.000 C 
ATOM     16  O   UNL     1      -8.132  -0.600 124.709  0.00  0.00    +0.000 OA
ATOM     17  C   UNL     1      -8.356   0.074 123.477  0.00  0.00    +0.000 C 
ATOM     18  C   UNL     1      -7.387   1.245 123.706  0.00  0.00    +0.000 C 
ATOM     19  C   UNL     1      -7.014   2.353 123.179  0.00  0.00    +0.000 C 
ATOM     20  C   UNL     1      -5.878   3.509 124.022  0.00  0.00    +0.000 C 
ATOM     21  O   UNL     1      -5.050   3.324 125.585  0.00  0.00    +0.000 OA
ATOM     22  C   UNL     1      -4.344   4.108 127.070  0.00  0.00    +0.000 C 
ATOM     23  C   UNL     1      -4.648   4.345 128.892  0.00  0.00    +0.000 A 
ATOM     24  C   UNL     1      -5.050   3.182 129.588  0.00  0.00    +0.000 A 
ATOM     25  C   UNL     1      -9.161  -3.462 126.710  0.00  0.00    +0.000 A 
ATOM     26  C   UNL     1      -8.897  -3.982 127.971  0.00  0.00    +0.000 A 
ATOM     27  C   UNL     1      -8.148  -3.243 128.893  0.00  0.00    +0.000 A 
ATOM     28  H   UNL     1      -7.642   2.089 131.361  0.00  0.00    +0.000 HD
ENDROOT
BRANCH   1  29
ATOM     29  O   UNL     1      -3.660   6.511 130.062  0.00  0.00    +0.000 OA
BRANCH  29  30
ATOM     30  C   UNL     1      -3.855   7.550 131.171  0.00  0.00    +0.000 C 
BRANCH  30  31
ATOM     31  C   UNL     1      -2.641   7.838 132.142  0.00  0.00    +0.000 C 
BRANCH  31  32
ATOM     32  N   UNL     1      -2.371   6.924 133.315  0.00  0.00    +0.000 NA
ATOM     33  C   UNL     1      -1.110   6.168 133.222  0.00  0.00    +0.000 C 
ATOM     34  C   UNL     1      -1.484   4.910 132.453  0.00  0.00    +0.000 C 
ATOM     35  C   UNL     1      -2.837   4.563 133.043  0.00  0.00    +0.000 C 
ATOM     36  C   UNL     1      -3.420   5.898 133.511  0.00  0.00    +0.000 C 
ENDBRANCH  31  32
ENDBRANCH  30  31
ENDBRANCH  29  30
ENDBRANCH   1  29
TORSDOF 4
ENDMDL
MODEL 7
REMARK VINA RESULT:      -8.9      7.002     11.735
REMARK  Name = Pacritinib
REMARK  4 active torsions:
REMARK  status: ('A' for Active; 'I' for Inactive)
REMARK    1  A    between atoms: C_1  and  C_2
REMARK    2  A    between atoms: C_1  and  O_8
REMARK    3  A    between atoms: C_2  and  N_3
REMARK    4  A    between atoms: O_8  and  C_9
REMARK                            x       y       z     vdW  Elec       q    Type
REMARK                         _______ _______ _______ _____ _____    ______ ____
ROOT
ATOM      1  C   UNL     1      -9.066   5.938 131.789  0.00  0.00    +0.000 A 
ATOM      2  C   UNL     1      -8.673   6.940 130.851  0.00  0.00    +0.000 A 
ATOM      3  C   UNL     1      -7.350   7.353 130.731  0.00  0.00    +0.000 A 
ATOM      4  C   UNL     1      -6.372   6.649 131.425  0.00  0.00    +0.000 A 
ATOM      5  N   UNL     1      -5.010   6.954 131.216  0.00  0.00    +0.000 N 
ATOM      6  C   UNL     1      -3.954   6.296 131.843  0.00  0.00    +0.000 A 
ATOM      7  N   UNL     1      -3.811   5.006 131.510  0.00  0.00    +0.000 NA
ATOM      8  C   UNL     1      -2.744   4.366 131.984  0.00  0.00    +0.000 A 
ATOM      9  C   UNL     1      -1.773   4.982 132.720  0.00  0.00    +0.000 A 
ATOM     10  C   UNL     1      -2.112   6.216 133.231  0.00  0.00    +0.000 A 
ATOM     11  N   UNL     1      -3.177   6.915 132.754  0.00  0.00    +0.000 NA
ATOM     12  C   UNL     1      -1.339   6.796 134.354  0.00  0.00    +0.000 A 
ATOM     13  C   UNL     1      -1.911   7.032 135.620  0.00  0.00    +0.000 A 
ATOM     14  C   UNL     1      -1.216   7.748 136.625  0.00  0.00    +0.000 A 
ATOM     15  C   UNL     1      -1.867   8.255 137.891  0.00  0.00    +0.000 C 
ATOM     16  O   UNL     1      -3.190   7.812 137.905  0.00  0.00    +0.000 OA
ATOM     17  C   UNL     1      -3.981   8.222 139.014  0.00  0.00    +0.000 C 
ATOM     18  C   UNL     1      -5.303   7.572 138.573  0.00  0.00    +0.000 C 
ATOM     19  C   UNL     1      -6.539   7.498 138.903  0.00  0.00    +0.000 C 
ATOM     20  C   UNL     1      -7.787   6.672 137.856  0.00  0.00    +0.000 C 
ATOM     21  O   UNL     1      -7.561   5.794 136.326  0.00  0.00    +0.000 OA
ATOM     22  C   UNL     1      -8.240   5.278 134.717  0.00  0.00    +0.000 C 
ATOM     23  C   UNL     1      -8.090   5.596 132.888  0.00  0.00    +0.000 A 
ATOM     24  C   UNL     1      -6.766   5.681 132.401  0.00  0.00    +0.000 A 
ATOM     25  C   UNL     1       0.127   8.054 136.425  0.00  0.00    +0.000 A 
ATOM     26  C   UNL     1       0.765   7.644 135.261  0.00  0.00    +0.000 A 
ATOM     27  C   UNL     1       0.025   7.086 134.213  0.00  0.00    +0.000 A 
ATOM     28  H   UNL     1      -4.782   7.882 130.892  0.00  0.00    +0.000 HD
ENDROOT
BRANCH   1  29
ATOM     29  O   UNL     1     -10.211   5.159 131.355  0.00  0.00    +0.000 OA
BRANCH  29  30
ATOM     30  C   UNL     1     -11.529   5.877 131.046  0.00  0.00    +0.000 C 
BRANCH  30  31
ATOM     31  C   UNL     1     -12.055   5.855 129.555  0.00  0.00    +0.000 C 
BRANCH  31  32
ATOM     32  N   UNL     1     -12.440   7.143 128.864  0.00  0.00    +0.000 NA
ATOM     33  C   UNL     1     -12.370   7.091 127.394  0.00  0.00    +0.000 C 
ATOM     34  C   UNL     1     -10.930   7.465 127.075  0.00  0.00    +0.000 C 
ATOM     35  C   UNL     1     -10.659   8.578 128.069  0.00  0.00    +0.000 C 
ATOM     36  C   UNL     1     -11.588   8.290 129.250  0.00  0.00    +0.000 C 
ENDBRANCH  31  32
ENDBRANCH  30  31
ENDBRANCH  29  30
ENDBRANCH   1  29
TORSDOF 4
ENDMDL
MODEL 8
REMARK VINA RESULT:      -8.7      4.515      7.838
REMARK  Name = Pacritinib
REMARK  4 active torsions:
REMARK  status: ('A' for Active; 'I' for Inactive)
REMARK    1  A    between atoms: C_1  and  C_2
REMARK    2  A    between atoms: C_1  and  O_8
REMARK    3  A    between atoms: C_2  and  N_3
REMARK    4  A    between atoms: O_8  and  C_9
REMARK                            x       y       z     vdW  Elec       q    Type
REMARK                         _______ _______ _______ _____ _____    ______ ____
ROOT
ATOM      1  C   UNL     1      -9.104   5.552 131.051  0.00  0.00    +0.000 A 
ATOM      2  C   UNL     1      -9.753   5.171 132.264  0.00  0.00    +0.000 A 
ATOM      3  C   UNL     1      -9.402   4.014 132.951  0.00  0.00    +0.000 A 
ATOM      4  C   UNL     1      -8.279   3.310 132.529  0.00  0.00    +0.000 A 
ATOM      5  N   UNL     1      -7.815   2.213 133.288  0.00  0.00    +0.000 N 
ATOM      6  C   UNL     1      -6.691   1.457 132.966  0.00  0.00    +0.000 A 
ATOM      7  N   UNL     1      -5.525   2.115 133.034  0.00  0.00    +0.000 NA
ATOM      8  C   UNL     1      -4.411   1.407 132.859  0.00  0.00    +0.000 A 
ATOM      9  C   UNL     1      -4.410   0.052 132.688  0.00  0.00    +0.000 A 
ATOM     10  C   UNL     1      -5.630  -0.506 132.373  0.00  0.00    +0.000 A 
ATOM     11  N   UNL     1      -6.793   0.173 132.566  0.00  0.00    +0.000 NA
ATOM     12  C   UNL     1      -5.699  -1.858 131.772  0.00  0.00    +0.000 A 
ATOM     13  C   UNL     1      -6.190  -2.079 130.470  0.00  0.00    +0.000 A 
ATOM     14  C   UNL     1      -6.418  -3.387 129.976  0.00  0.00    +0.000 A 
ATOM     15  C   UNL     1      -7.181  -3.680 128.706  0.00  0.00    +0.000 C 
ATOM     16  O   UNL     1      -7.508  -2.462 128.107  0.00  0.00    +0.000 OA
ATOM     17  C   UNL     1      -8.265  -2.534 126.905  0.00  0.00    +0.000 C 
ATOM     18  C   UNL     1      -8.421  -1.022 126.672  0.00  0.00    +0.000 C 
ATOM     19  C   UNL     1      -9.012  -0.185 125.902  0.00  0.00    +0.000 C 
ATOM     20  C   UNL     1      -8.986   1.616 126.205  0.00  0.00    +0.000 C 
ATOM     21  O   UNL     1      -8.137   2.525 127.477  0.00  0.00    +0.000 OA
ATOM     22  C   UNL     1      -8.077   3.984 128.566  0.00  0.00    +0.000 C 
ATOM     23  C   UNL     1      -8.286   4.501 130.343  0.00  0.00    +0.000 A 
ATOM     24  C   UNL     1      -7.658   3.659 131.289  0.00  0.00    +0.000 A 
ATOM     25  C   UNL     1      -5.965  -4.474 130.720  0.00  0.00    +0.000 A 
ATOM     26  C   UNL     1      -5.291  -4.262 131.915  0.00  0.00    +0.000 A 
ATOM     27  C   UNL     1      -5.222  -2.977 132.466  0.00  0.00    +0.000 A 
ATOM     28  H   UNL     1      -8.484   1.730 133.869  0.00  0.00    +0.000 HD
ENDROOT
BRANCH   1  29
ATOM     29  O   UNL     1      -9.058   6.988 130.848  0.00  0.00    +0.000 OA
BRANCH  29  30
ATOM     30  C   UNL     1      -9.700   7.587 129.593  0.00  0.00    +0.000 C 
BRANCH  30  31
ATOM     31  C   UNL     1     -10.885   6.792 128.912  0.00  0.00    +0.000 C 
BRANCH  31  32
ATOM     32  N   UNL     1     -12.302   6.966 129.408  0.00  0.00    +0.000 NA
ATOM     33  C   UNL     1     -13.249   7.454 128.390  0.00  0.00    +0.000 C 
ATOM     34  C   UNL     1     -13.138   8.969 128.473  0.00  0.00    +0.000 C 
ATOM     35  C   UNL     1     -13.041   9.203 129.968  0.00  0.00    +0.000 C 
ATOM     36  C   UNL     1     -12.416   7.925 130.529  0.00  0.00    +0.000 C 
ENDBRANCH  31  32
ENDBRANCH  30  31
ENDBRANCH  29  30
ENDBRANCH   1  29
TORSDOF 4
ENDMDL
MODEL 9
REMARK VINA RESULT:      -8.6      3.154      5.763
REMARK  Name = Pacritinib
REMARK  4 active torsions:
REMARK  status: ('A' for Active; 'I' for Inactive)
REMARK    1  A    between atoms: C_1  and  C_2
REMARK    2  A    between atoms: C_1  and  O_8
REMARK    3  A    between atoms: C_2  and  N_3
REMARK    4  A    between atoms: O_8  and  C_9
REMARK                            x       y       z     vdW  Elec       q    Type
REMARK                         _______ _______ _______ _____ _____    ______ ____
ROOT
ATOM      1  C   UNL     1      -5.545   4.008 133.153  0.00  0.00    +0.000 A 
ATOM      2  C   UNL     1      -6.869   3.933 133.683  0.00  0.00    +0.000 A 
ATOM      3  C   UNL     1      -7.707   2.857 133.411  0.00  0.00    +0.000 A 
ATOM      4  C   UNL     1      -7.176   1.757 132.747  0.00  0.00    +0.000 A 
ATOM      5  N   UNL     1      -7.961   0.595 132.581  0.00  0.00    +0.000 N 
ATOM      6  C   UNL     1      -7.518  -0.566 131.951  0.00  0.00    +0.000 A 
ATOM      7  N   UNL     1      -6.530  -1.214 132.584  0.00  0.00    +0.000 NA
ATOM      8  C   UNL     1      -6.157  -2.393 132.092  0.00  0.00    +0.000 A 
ATOM      9  C   UNL     1      -6.780  -2.988 131.032  0.00  0.00    +0.000 A 
ATOM     10  C   UNL     1      -7.596  -2.164 130.287  0.00  0.00    +0.000 A 
ATOM     11  N   UNL     1      -8.023  -0.965 130.766  0.00  0.00    +0.000 NA
ATOM     12  C   UNL     1      -7.996  -2.554 128.915  0.00  0.00    +0.000 A 
ATOM     13  C   UNL     1      -7.603  -1.818 127.779  0.00  0.00    +0.000 A 
ATOM     14  C   UNL     1      -8.137  -2.095 126.496  0.00  0.00    +0.000 A 
ATOM     15  C   UNL     1      -7.959  -1.185 125.303  0.00  0.00    +0.000 C 
ATOM     16  O   UNL     1      -7.129  -0.130 125.683  0.00  0.00    +0.000 OA
ATOM     17  C   UNL     1      -6.871   0.857 124.692  0.00  0.00    +0.000 C 
ATOM     18  C   UNL     1      -6.006   1.791 125.555  0.00  0.00    +0.000 C 
ATOM     19  C   UNL     1      -5.428   2.935 125.520  0.00  0.00    +0.000 C 
ATOM     20  C   UNL     1      -4.629   3.676 126.986  0.00  0.00    +0.000 C 
ATOM     21  O   UNL     1      -4.426   2.994 128.616  0.00  0.00    +0.000 OA
ATOM     22  C   UNL     1      -4.273   3.275 130.409  0.00  0.00    +0.000 C 
ATOM     23  C   UNL     1      -5.202   3.084 132.011  0.00  0.00    +0.000 A 
ATOM     24  C   UNL     1      -5.870   1.848 132.173  0.00  0.00    +0.000 A 
ATOM     25  C   UNL     1      -8.913  -3.238 126.325  0.00  0.00    +0.000 A 
ATOM     26  C   UNL     1      -9.139  -4.089 127.399  0.00  0.00    +0.000 A 
ATOM     27  C   UNL     1      -8.745  -3.715 128.688  0.00  0.00    +0.000 A 
ATOM     28  H   UNL     1      -8.964   0.703 132.587  0.00  0.00    +0.000 HD
ENDROOT
BRANCH   1  29
ATOM     29  O   UNL     1      -4.621   4.731 134.008  0.00  0.00    +0.000 OA
BRANCH  29  30
ATOM     30  C   UNL     1      -4.640   6.263 134.001  0.00  0.00    +0.000 C 
BRANCH  30  31
ATOM     31  C   UNL     1      -3.260   7.024 134.124  0.00  0.00    +0.000 C 
BRANCH  31  32
ATOM     32  N   UNL     1      -2.649   7.694 132.915  0.00  0.00    +0.000 NA
ATOM     33  C   UNL     1      -3.029   7.091 131.626  0.00  0.00    +0.000 C 
ATOM     34  C   UNL     1      -2.002   5.989 131.412  0.00  0.00    +0.000 C 
ATOM     35  C   UNL     1      -0.722   6.646 131.891  0.00  0.00    +0.000 C 
ATOM     36  C   UNL     1      -1.169   7.681 132.925  0.00  0.00    +0.000 C 
ENDBRANCH  31  32
ENDBRANCH  30  31
ENDBRANCH  29  30
ENDBRANCH   1  29
TORSDOF 4
ENDMDL
