MODEL 1
REMARK VINA RESULT:      -6.4      0.000      0.000
REMARK  Name = Padimate O
REMARK  13 active torsions:
REMARK  status: ('A' for Active; 'I' for Inactive)
REMARK    1  A    between atoms: C_1  and  C_2
REMARK    2  A    between atoms: C_2  and  C_3
REMARK    3  A    between atoms: C_3  and  C_4
REMARK    4  A    between atoms: C_4  and  C_5
REMARK    5  A    between atoms: C_5  and  C_6
REMARK    6  A    between atoms: C_5  and  C_8
REMARK    7  A    between atoms: C_6  and  C_7
REMARK    8  A    between atoms: C_8  and  O_9
REMARK    9  A    between atoms: O_9  and  C_10
REMARK   10  A    between atoms: C_10  and  C_12
REMARK   11  A    between atoms: C_15  and  N_18
REMARK   12  A    between atoms: N_18  and  C_19
REMARK   13  A    between atoms: N_18  and  C_20
REMARK                            x       y       z     vdW  Elec       q    Type
REMARK                         _______ _______ _______ _____ _____    ______ ____
ROOT
ATOM      1  C   UNL     1      -9.040   1.196 125.384  0.00  0.00    +0.000 C 
ATOM      2  O   UNL     1      -9.190   1.637 126.508  0.00  0.00    +0.000 OA
ENDROOT
BRANCH   1   3
ATOM      3  C   UNL     1      -8.389   1.981 124.304  0.00  0.00    +0.000 A 
ATOM      4  C   UNL     1      -9.137   2.349 123.190  0.00  0.00    +0.000 A 
ATOM      5  C   UNL     1      -8.509   2.919 122.068  0.00  0.00    +0.000 A 
ATOM      6  C   UNL     1      -7.139   3.236 122.035  0.00  0.00    +0.000 A 
ATOM      7  C   UNL     1      -6.418   2.830 123.177  0.00  0.00    +0.000 A 
ATOM      8  C   UNL     1      -7.020   2.219 124.295  0.00  0.00    +0.000 A 
BRANCH   6   9
ATOM      9  N   UNL     1      -6.546   3.877 120.955  0.00  0.00    +0.000 N 
ATOM     10  C   UNL     1      -7.280   4.208 119.727  0.00  0.00    +0.000 C 
ATOM     11  C   UNL     1      -5.218   4.491 121.029  0.00  0.00    +0.000 C 
ENDBRANCH   6   9
ENDBRANCH   1   3
BRANCH   1  12
ATOM     12  O   UNL     1      -9.415  -0.039 124.949  0.00  0.00    +0.000 OA
BRANCH  12  13
ATOM     13  C   UNL     1      -8.313  -0.941 124.709  0.00  0.00    +0.000 C 
BRANCH  13  14
ATOM     14  C   UNL     1      -8.203  -1.286 123.198  0.00  0.00    +0.000 C 
BRANCH  14  15
ATOM     15  C   UNL     1      -9.148  -2.474 122.873  0.00  0.00    +0.000 C 
ATOM     16  C   UNL     1      -9.425  -3.469 123.996  0.00  0.00    +0.000 C 
ENDBRANCH  14  15
BRANCH  14  17
ATOM     17  C   UNL     1      -6.714  -1.556 122.843  0.00  0.00    +0.000 C 
BRANCH  17  18
ATOM     18  C   UNL     1      -5.884  -2.043 124.023  0.00  0.00    +0.000 C 
BRANCH  18  20
ATOM     19  C   UNL     1      -4.321  -3.876 123.510  0.00  0.00    +0.000 C 
ATOM     20  C   UNL     1      -5.677  -3.538 124.128  0.00  0.00    +0.000 C 
ENDBRANCH  18  20
ENDBRANCH  17  18
ENDBRANCH  14  17
ENDBRANCH  13  14
ENDBRANCH  12  13
ENDBRANCH   1  12
TORSDOF 9
ENDMDL
MODEL 2
REMARK VINA RESULT:      -6.2      4.354      6.796
REMARK  Name = Padimate O
REMARK  13 active torsions:
REMARK  status: ('A' for Active; 'I' for Inactive)
REMARK    1  A    between atoms: C_1  and  C_2
REMARK    2  A    between atoms: C_2  and  C_3
REMARK    3  A    between atoms: C_3  and  C_4
REMARK    4  A    between atoms: C_4  and  C_5
REMARK    5  A    between atoms: C_5  and  C_6
REMARK    6  A    between atoms: C_5  and  C_8
REMARK    7  A    between atoms: C_6  and  C_7
REMARK    8  A    between atoms: C_8  and  O_9
REMARK    9  A    between atoms: O_9  and  C_10
REMARK   10  A    between atoms: C_10  and  C_12
REMARK   11  A    between atoms: C_15  and  N_18
REMARK   12  A    between atoms: N_18  and  C_19
REMARK   13  A    between atoms: N_18  and  C_20
REMARK                            x       y       z     vdW  Elec       q    Type
REMARK                         _______ _______ _______ _____ _____    ______ ____
ROOT
ATOM      1  C   UNL     1      -9.102  -2.900 125.719  0.00  0.00    +0.000 C 
ATOM      2  O   UNL     1     -10.124  -2.242 125.755  0.00  0.00    +0.000 OA
ENDROOT
BRANCH   1   3
ATOM      3  C   UNL     1      -8.198  -3.029 126.890  0.00  0.00    +0.000 A 
ATOM      4  C   UNL     1      -8.669  -3.647 128.044  0.00  0.00    +0.000 A 
ATOM      5  C   UNL     1      -7.913  -3.613 129.230  0.00  0.00    +0.000 A 
ATOM      6  C   UNL     1      -6.626  -3.054 129.301  0.00  0.00    +0.000 A 
ATOM      7  C   UNL     1      -6.195  -2.424 128.115  0.00  0.00    +0.000 A 
ATOM      8  C   UNL     1      -6.955  -2.410 126.928  0.00  0.00    +0.000 A 
BRANCH   6   9
ATOM      9  N   UNL     1      -5.853  -3.102 130.455  0.00  0.00    +0.000 N 
ATOM     10  C   UNL     1      -5.546  -1.910 131.255  0.00  0.00    +0.000 C 
ATOM     11  C   UNL     1      -5.479  -4.360 131.106  0.00  0.00    +0.000 C 
ENDBRANCH   6   9
ENDBRANCH   1   3
BRANCH   1  12
ATOM     12  O   UNL     1      -8.640  -3.608 124.650  0.00  0.00    +0.000 OA
BRANCH  12  13
ATOM     13  C   UNL     1      -8.582  -2.852 123.420  0.00  0.00    +0.000 C 
BRANCH  13  14
ATOM     14  C   UNL     1      -7.547  -1.698 123.531  0.00  0.00    +0.000 C 
BRANCH  14  15
ATOM     15  C   UNL     1      -8.231  -0.358 123.147  0.00  0.00    +0.000 C 
ATOM     16  C   UNL     1      -9.673  -0.430 122.656  0.00  0.00    +0.000 C 
ENDBRANCH  14  15
BRANCH  14  17
ATOM     17  C   UNL     1      -6.306  -2.040 122.661  0.00  0.00    +0.000 C 
BRANCH  17  18
ATOM     18  C   UNL     1      -5.119  -2.553 123.466  0.00  0.00    +0.000 C 
BRANCH  18  20
ATOM     19  C   UNL     1      -3.981  -4.736 123.519  0.00  0.00    +0.000 C 
ATOM     20  C   UNL     1      -5.220  -3.971 123.982  0.00  0.00    +0.000 C 
ENDBRANCH  18  20
ENDBRANCH  17  18
ENDBRANCH  14  17
ENDBRANCH  13  14
ENDBRANCH  12  13
ENDBRANCH   1  12
TORSDOF 9
ENDMDL
MODEL 3
REMARK VINA RESULT:      -6.2      1.214      2.675
REMARK  Name = Padimate O
REMARK  13 active torsions:
REMARK  status: ('A' for Active; 'I' for Inactive)
REMARK    1  A    between atoms: C_1  and  C_2
REMARK    2  A    between atoms: C_2  and  C_3
REMARK    3  A    between atoms: C_3  and  C_4
REMARK    4  A    between atoms: C_4  and  C_5
REMARK    5  A    between atoms: C_5  and  C_6
REMARK    6  A    between atoms: C_5  and  C_8
REMARK    7  A    between atoms: C_6  and  C_7
REMARK    8  A    between atoms: C_8  and  O_9
REMARK    9  A    between atoms: O_9  and  C_10
REMARK   10  A    between atoms: C_10  and  C_12
REMARK   11  A    between atoms: C_15  and  N_18
REMARK   12  A    between atoms: N_18  and  C_19
REMARK   13  A    between atoms: N_18  and  C_20
REMARK                            x       y       z     vdW  Elec       q    Type
REMARK                         _______ _______ _______ _____ _____    ______ ____
ROOT
ATOM      1  C   UNL     1      -9.296   0.267 125.413  0.00  0.00    +0.000 C 
ATOM      2  O   UNL     1     -10.491   0.306 125.636  0.00  0.00    +0.000 OA
ENDROOT
BRANCH   1   3
ATOM      3  C   UNL     1      -8.668   1.043 124.314  0.00  0.00    +0.000 A 
ATOM      4  C   UNL     1      -7.280   1.120 124.247  0.00  0.00    +0.000 A 
ATOM      5  C   UNL     1      -6.659   1.999 123.342  0.00  0.00    +0.000 A 
ATOM      6  C   UNL     1      -7.374   2.764 122.404  0.00  0.00    +0.000 A 
ATOM      7  C   UNL     1      -8.776   2.668 122.519  0.00  0.00    +0.000 A 
ATOM      8  C   UNL     1      -9.420   1.826 123.447  0.00  0.00    +0.000 A 
BRANCH   6   9
ATOM      9  N   UNL     1      -6.746   3.564 121.458  0.00  0.00    +0.000 N 
ATOM     10  C   UNL     1      -7.417   4.026 120.237  0.00  0.00    +0.000 C 
ATOM     11  C   UNL     1      -5.454   4.213 121.700  0.00  0.00    +0.000 C 
ENDBRANCH   6   9
ENDBRANCH   1   3
BRANCH   1  12
ATOM     12  O   UNL     1      -8.373  -0.453 126.110  0.00  0.00    +0.000 OA
BRANCH  12  13
ATOM     13  C   UNL     1      -8.734  -1.836 126.316  0.00  0.00    +0.000 C 
BRANCH  13  14
ATOM     14  C   UNL     1      -7.537  -2.772 125.994  0.00  0.00    +0.000 C 
BRANCH  14  15
ATOM     15  C   UNL     1      -6.219  -1.951 126.035  0.00  0.00    +0.000 C 
ATOM     16  C   UNL     1      -5.349  -1.970 124.782  0.00  0.00    +0.000 C 
ENDBRANCH  14  15
BRANCH  14  17
ATOM     17  C   UNL     1      -7.791  -3.478 124.633  0.00  0.00    +0.000 C 
BRANCH  17  18
ATOM     18  C   UNL     1      -9.218  -3.323 124.123  0.00  0.00    +0.000 C 
BRANCH  18  20
ATOM     19  C   UNL     1      -8.026  -2.054 122.381  0.00  0.00    +0.000 C 
ATOM     20  C   UNL     1      -9.407  -2.434 122.914  0.00  0.00    +0.000 C 
ENDBRANCH  18  20
ENDBRANCH  17  18
ENDBRANCH  14  17
ENDBRANCH  13  14
ENDBRANCH  12  13
ENDBRANCH   1  12
TORSDOF 9
ENDMDL
MODEL 4
REMARK VINA RESULT:      -6.1      1.251      2.520
REMARK  Name = Padimate O
REMARK  13 active torsions:
REMARK  status: ('A' for Active; 'I' for Inactive)
REMARK    1  A    between atoms: C_1  and  C_2
REMARK    2  A    between atoms: C_2  and  C_3
REMARK    3  A    between atoms: C_3  and  C_4
REMARK    4  A    between atoms: C_4  and  C_5
REMARK    5  A    between atoms: C_5  and  C_6
REMARK    6  A    between atoms: C_5  and  C_8
REMARK    7  A    between atoms: C_6  and  C_7
REMARK    8  A    between atoms: C_8  and  O_9
REMARK    9  A    between atoms: O_9  and  C_10
REMARK   10  A    between atoms: C_10  and  C_12
REMARK   11  A    between atoms: C_15  and  N_18
REMARK   12  A    between atoms: N_18  and  C_19
REMARK   13  A    between atoms: N_18  and  C_20
REMARK                            x       y       z     vdW  Elec       q    Type
REMARK                         _______ _______ _______ _____ _____    ______ ____
ROOT
ATOM      1  C   UNL     1      -8.269   1.822 124.605  0.00  0.00    +0.000 C 
ATOM      2  O   UNL     1      -9.318   2.023 125.185  0.00  0.00    +0.000 OA
ENDROOT
BRANCH   1   3
ATOM      3  C   UNL     1      -7.849   2.619 123.424  0.00  0.00    +0.000 A 
ATOM      4  C   UNL     1      -8.772   2.867 122.412  0.00  0.00    +0.000 A 
ATOM      5  C   UNL     1      -8.360   3.446 121.199  0.00  0.00    +0.000 A 
ATOM      6  C   UNL     1      -7.046   3.891 120.970  0.00  0.00    +0.000 A 
ATOM      7  C   UNL     1      -6.142   3.605 122.013  0.00  0.00    +0.000 A 
ATOM      8  C   UNL     1      -6.525   2.987 123.221  0.00  0.00    +0.000 A 
BRANCH   6   9
ATOM      9  N   UNL     1      -6.670   4.539 119.800  0.00  0.00    +0.000 N 
ATOM     10  C   UNL     1      -5.365   5.192 119.638  0.00  0.00    +0.000 C 
ATOM     11  C   UNL     1      -7.430   4.428 118.552  0.00  0.00    +0.000 C 
ENDBRANCH   6   9
ENDBRANCH   1   3
BRANCH   1  12
ATOM     12  O   UNL     1      -7.337   0.884 124.932  0.00  0.00    +0.000 OA
BRANCH  12  13
ATOM     13  C   UNL     1      -7.580  -0.418 124.354  0.00  0.00    +0.000 C 
BRANCH  13  14
ATOM     14  C   UNL     1      -6.376  -1.366 124.607  0.00  0.00    +0.000 C 
BRANCH  14  15
ATOM     15  C   UNL     1      -5.898  -1.959 123.254  0.00  0.00    +0.000 C 
ATOM     16  C   UNL     1      -4.928  -3.134 123.314  0.00  0.00    +0.000 C 
ENDBRANCH  14  15
BRANCH  14  17
ATOM     17  C   UNL     1      -6.782  -2.442 125.652  0.00  0.00    +0.000 C 
BRANCH  17  18
ATOM     18  C   UNL     1      -8.260  -2.807 125.608  0.00  0.00    +0.000 C 
BRANCH  18  20
ATOM     19  C   UNL     1      -9.488  -3.339 123.541  0.00  0.00    +0.000 C 
ATOM     20  C   UNL     1      -8.647  -3.930 124.672  0.00  0.00    +0.000 C 
ENDBRANCH  18  20
ENDBRANCH  17  18
ENDBRANCH  14  17
ENDBRANCH  13  14
ENDBRANCH  12  13
ENDBRANCH   1  12
TORSDOF 9
ENDMDL
MODEL 5
REMARK VINA RESULT:      -6.1      1.030      1.688
REMARK  Name = Padimate O
REMARK  13 active torsions:
REMARK  status: ('A' for Active; 'I' for Inactive)
REMARK    1  A    between atoms: C_1  and  C_2
REMARK    2  A    between atoms: C_2  and  C_3
REMARK    3  A    between atoms: C_3  and  C_4
REMARK    4  A    between atoms: C_4  and  C_5
REMARK    5  A    between atoms: C_5  and  C_6
REMARK    6  A    between atoms: C_5  and  C_8
REMARK    7  A    between atoms: C_6  and  C_7
REMARK    8  A    between atoms: C_8  and  O_9
REMARK    9  A    between atoms: O_9  and  C_10
REMARK   10  A    between atoms: C_10  and  C_12
REMARK   11  A    between atoms: C_15  and  N_18
REMARK   12  A    between atoms: N_18  and  C_19
REMARK   13  A    between atoms: N_18  and  C_20
REMARK                            x       y       z     vdW  Elec       q    Type
REMARK                         _______ _______ _______ _____ _____    ______ ____
ROOT
ATOM      1  C   UNL     1      -9.016   1.293 125.087  0.00  0.00    +0.000 C 
ATOM      2  O   UNL     1      -9.081   1.880 126.149  0.00  0.00    +0.000 OA
ENDROOT
BRANCH   1   3
ATOM      3  C   UNL     1      -8.397   1.900 123.880  0.00  0.00    +0.000 A 
ATOM      4  C   UNL     1      -7.039   2.205 123.897  0.00  0.00    +0.000 A 
ATOM      5  C   UNL     1      -6.466   2.954 122.854  0.00  0.00    +0.000 A 
ATOM      6  C   UNL     1      -7.182   3.349 121.711  0.00  0.00    +0.000 A 
ATOM      7  C   UNL     1      -8.555   3.035 121.744  0.00  0.00    +0.000 A 
ATOM      8  C   UNL     1      -9.160   2.322 122.799  0.00  0.00    +0.000 A 
BRANCH   6   9
ATOM      9  N   UNL     1      -6.584   4.014 120.647  0.00  0.00    +0.000 N 
ATOM     10  C   UNL     1      -7.303   4.341 119.410  0.00  0.00    +0.000 C 
ATOM     11  C   UNL     1      -5.271   4.656 120.751  0.00  0.00    +0.000 C 
ENDBRANCH   6   9
ENDBRANCH   1   3
BRANCH   1  12
ATOM     12  O   UNL     1      -9.468   0.032 124.837  0.00  0.00    +0.000 OA
BRANCH  12  13
ATOM     13  C   UNL     1      -8.448  -0.988 124.916  0.00  0.00    +0.000 C 
BRANCH  13  14
ATOM     14  C   UNL     1      -9.058  -2.396 124.673  0.00  0.00    +0.000 C 
BRANCH  14  15
ATOM     15  C   UNL     1      -9.457  -3.024 126.036  0.00  0.00    +0.000 C 
ATOM     16  C   UNL     1      -8.405  -3.011 127.141  0.00  0.00    +0.000 C 
ENDBRANCH  14  15
BRANCH  14  17
ATOM     17  C   UNL     1      -8.052  -3.255 123.858  0.00  0.00    +0.000 C 
BRANCH  17  18
ATOM     18  C   UNL     1      -6.682  -2.607 123.703  0.00  0.00    +0.000 C 
BRANCH  18  20
ATOM     19  C   UNL     1      -4.509  -3.750 123.516  0.00  0.00    +0.000 C 
ATOM     20  C   UNL     1      -5.553  -3.223 124.499  0.00  0.00    +0.000 C 
ENDBRANCH  18  20
ENDBRANCH  17  18
ENDBRANCH  14  17
ENDBRANCH  13  14
ENDBRANCH  12  13
ENDBRANCH   1  12
TORSDOF 9
ENDMDL
MODEL 6
REMARK VINA RESULT:      -6.1      2.801      3.730
REMARK  Name = Padimate O
REMARK  13 active torsions:
REMARK  status: ('A' for Active; 'I' for Inactive)
REMARK    1  A    between atoms: C_1  and  C_2
REMARK    2  A    between atoms: C_2  and  C_3
REMARK    3  A    between atoms: C_3  and  C_4
REMARK    4  A    between atoms: C_4  and  C_5
REMARK    5  A    between atoms: C_5  and  C_6
REMARK    6  A    between atoms: C_5  and  C_8
REMARK    7  A    between atoms: C_6  and  C_7
REMARK    8  A    between atoms: C_8  and  O_9
REMARK    9  A    between atoms: O_9  and  C_10
REMARK   10  A    between atoms: C_10  and  C_12
REMARK   11  A    between atoms: C_15  and  N_18
REMARK   12  A    between atoms: N_18  and  C_19
REMARK   13  A    between atoms: N_18  and  C_20
REMARK                            x       y       z     vdW  Elec       q    Type
REMARK                         _______ _______ _______ _____ _____    ______ ____
ROOT
ATOM      1  C   UNL     1      -9.532  -0.886 123.439  0.00  0.00    +0.000 C 
ATOM      2  O   UNL     1      -9.958  -0.643 122.327  0.00  0.00    +0.000 OA
ENDROOT
BRANCH   1   3
ATOM      3  C   UNL     1      -8.720   0.091 124.210  0.00  0.00    +0.000 A 
ATOM      4  C   UNL     1      -7.487   0.493 123.705  0.00  0.00    +0.000 A 
ATOM      5  C   UNL     1      -6.612   1.260 124.494  0.00  0.00    +0.000 A 
ATOM      6  C   UNL     1      -6.952   1.740 125.770  0.00  0.00    +0.000 A 
ATOM      7  C   UNL     1      -8.201   1.294 126.249  0.00  0.00    +0.000 A 
ATOM      8  C   UNL     1      -9.076   0.490 125.491  0.00  0.00    +0.000 A 
BRANCH   6   9
ATOM      9  N   UNL     1      -6.113   2.568 126.506  0.00  0.00    +0.000 N 
ATOM     10  C   UNL     1      -6.617   3.618 127.398  0.00  0.00    +0.000 C 
ATOM     11  C   UNL     1      -4.675   2.318 126.645  0.00  0.00    +0.000 C 
ENDBRANCH   6   9
ENDBRANCH   1   3
BRANCH   1  12
ATOM     12  O   UNL     1      -9.728  -2.038 124.141  0.00  0.00    +0.000 OA
BRANCH  12  13
ATOM     13  C   UNL     1      -8.753  -3.069 123.868  0.00  0.00    +0.000 C 
BRANCH  13  14
ATOM     14  C   UNL     1      -7.973  -3.444 125.158  0.00  0.00    +0.000 C 
BRANCH  14  15
ATOM     15  C   UNL     1      -8.777  -2.968 126.399  0.00  0.00    +0.000 C 
ATOM     16  C   UNL     1      -8.766  -3.877 127.624  0.00  0.00    +0.000 C 
ENDBRANCH  14  15
BRANCH  14  17
ATOM     17  C   UNL     1      -6.538  -2.854 125.078  0.00  0.00    +0.000 C 
BRANCH  17  18
ATOM     18  C   UNL     1      -5.940  -2.893 123.678  0.00  0.00    +0.000 C 
BRANCH  18  20
ATOM     19  C   UNL     1      -4.385  -4.796 123.504  0.00  0.00    +0.000 C 
ATOM     20  C   UNL     1      -4.478  -3.272 123.583  0.00  0.00    +0.000 C 
ENDBRANCH  18  20
ENDBRANCH  17  18
ENDBRANCH  14  17
ENDBRANCH  13  14
ENDBRANCH  12  13
ENDBRANCH   1  12
TORSDOF 9
ENDMDL
MODEL 7
REMARK VINA RESULT:      -6.0      4.481      7.208
REMARK  Name = Padimate O
REMARK  13 active torsions:
REMARK  status: ('A' for Active; 'I' for Inactive)
REMARK    1  A    between atoms: C_1  and  C_2
REMARK    2  A    between atoms: C_2  and  C_3
REMARK    3  A    between atoms: C_3  and  C_4
REMARK    4  A    between atoms: C_4  and  C_5
REMARK    5  A    between atoms: C_5  and  C_6
REMARK    6  A    between atoms: C_5  and  C_8
REMARK    7  A    between atoms: C_6  and  C_7
REMARK    8  A    between atoms: C_8  and  O_9
REMARK    9  A    between atoms: O_9  and  C_10
REMARK   10  A    between atoms: C_10  and  C_12
REMARK   11  A    between atoms: C_15  and  N_18
REMARK   12  A    between atoms: N_18  and  C_19
REMARK   13  A    between atoms: N_18  and  C_20
REMARK                            x       y       z     vdW  Elec       q    Type
REMARK                         _______ _______ _______ _____ _____    ______ ____
ROOT
ATOM      1  C   UNL     1      -8.861  -3.154 125.836  0.00  0.00    +0.000 C 
ATOM      2  O   UNL     1     -10.029  -2.931 125.581  0.00  0.00    +0.000 OA
ENDROOT
BRANCH   1   3
ATOM      3  C   UNL     1      -8.274  -2.886 127.174  0.00  0.00    +0.000 A 
ATOM      4  C   UNL     1      -7.201  -2.006 127.278  0.00  0.00    +0.000 A 
ATOM      5  C   UNL     1      -6.500  -1.879 128.491  0.00  0.00    +0.000 A 
ATOM      6  C   UNL     1      -6.885  -2.539 129.671  0.00  0.00    +0.000 A 
ATOM      7  C   UNL     1      -7.965  -3.432 129.515  0.00  0.00    +0.000 A 
ATOM      8  C   UNL     1      -8.655  -3.607 128.298  0.00  0.00    +0.000 A 
BRANCH   6   9
ATOM      9  N   UNL     1      -6.238  -2.339 130.884  0.00  0.00    +0.000 N 
ATOM     10  C   UNL     1      -5.289  -1.242 131.107  0.00  0.00    +0.000 C 
ATOM     11  C   UNL     1      -6.616  -3.048 132.110  0.00  0.00    +0.000 C 
ENDBRANCH   6   9
ENDBRANCH   1   3
BRANCH   1  12
ATOM     12  O   UNL     1      -7.938  -3.676 124.980  0.00  0.00    +0.000 OA
BRANCH  12  13
ATOM     13  C   UNL     1      -7.844  -2.981 123.717  0.00  0.00    +0.000 C 
BRANCH  13  14
ATOM     14  C   UNL     1      -6.409  -2.426 123.499  0.00  0.00    +0.000 C 
BRANCH  14  15
ATOM     15  C   UNL     1      -5.404  -3.262 124.337  0.00  0.00    +0.000 C 
ATOM     16  C   UNL     1      -4.481  -4.207 123.573  0.00  0.00    +0.000 C 
ENDBRANCH  14  15
BRANCH  14  17
ATOM     17  C   UNL     1      -6.392  -0.909 123.833  0.00  0.00    +0.000 C 
BRANCH  17  18
ATOM     18  C   UNL     1      -7.776  -0.274 123.860  0.00  0.00    +0.000 C 
BRANCH  18  20
ATOM     19  C   UNL     1      -9.377   0.548 125.541  0.00  0.00    +0.000 C 
ATOM     20  C   UNL     1      -8.007   0.791 124.909  0.00  0.00    +0.000 C 
ENDBRANCH  18  20
ENDBRANCH  17  18
ENDBRANCH  14  17
ENDBRANCH  13  14
ENDBRANCH  12  13
ENDBRANCH   1  12
TORSDOF 9
ENDMDL
MODEL 8
REMARK VINA RESULT:      -6.0      2.849      3.737
REMARK  Name = Padimate O
REMARK  13 active torsions:
REMARK  status: ('A' for Active; 'I' for Inactive)
REMARK    1  A    between atoms: C_1  and  C_2
REMARK    2  A    between atoms: C_2  and  C_3
REMARK    3  A    between atoms: C_3  and  C_4
REMARK    4  A    between atoms: C_4  and  C_5
REMARK    5  A    between atoms: C_5  and  C_6
REMARK    6  A    between atoms: C_5  and  C_8
REMARK    7  A    between atoms: C_6  and  C_7
REMARK    8  A    between atoms: C_8  and  O_9
REMARK    9  A    between atoms: O_9  and  C_10
REMARK   10  A    between atoms: C_10  and  C_12
REMARK   11  A    between atoms: C_15  and  N_18
REMARK   12  A    between atoms: N_18  and  C_19
REMARK   13  A    between atoms: N_18  and  C_20
REMARK                            x       y       z     vdW  Elec       q    Type
REMARK                         _______ _______ _______ _____ _____    ______ ____
ROOT
ATOM      1  C   UNL     1      -7.800   1.601 124.171  0.00  0.00    +0.000 C 
ATOM      2  O   UNL     1      -8.882   2.096 124.425  0.00  0.00    +0.000 OA
ENDROOT
BRANCH   1   3
ATOM      3  C   UNL     1      -6.530   2.149 124.711  0.00  0.00    +0.000 A 
ATOM      4  C   UNL     1      -5.799   1.392 125.622  0.00  0.00    +0.000 A 
ATOM      5  C   UNL     1      -4.703   1.956 126.298  0.00  0.00    +0.000 A 
ATOM      6  C   UNL     1      -4.224   3.251 126.035  0.00  0.00    +0.000 A 
ATOM      7  C   UNL     1      -5.003   3.987 125.119  0.00  0.00    +0.000 A 
ATOM      8  C   UNL     1      -6.131   3.456 124.462  0.00  0.00    +0.000 A 
BRANCH   6   9
ATOM      9  N   UNL     1      -3.087   3.766 126.646  0.00  0.00    +0.000 N 
ATOM     10  C   UNL     1      -3.130   4.904 127.572  0.00  0.00    +0.000 C 
ATOM     11  C   UNL     1      -1.791   3.082 126.615  0.00  0.00    +0.000 C 
ENDBRANCH   6   9
ENDBRANCH   1   3
BRANCH   1  12
ATOM     12  O   UNL     1      -7.582   0.504 123.393  0.00  0.00    +0.000 OA
BRANCH  12  13
ATOM     13  C   UNL     1      -8.397  -0.637 123.739  0.00  0.00    +0.000 C 
BRANCH  13  14
ATOM     14  C   UNL     1      -7.971  -1.886 122.919  0.00  0.00    +0.000 C 
BRANCH  14  15
ATOM     15  C   UNL     1      -8.518  -3.164 123.611  0.00  0.00    +0.000 C 
ATOM     16  C   UNL     1      -9.237  -2.979 124.943  0.00  0.00    +0.000 C 
ENDBRANCH  14  15
BRANCH  14  17
ATOM     17  C   UNL     1      -6.427  -1.881 122.743  0.00  0.00    +0.000 C 
BRANCH  17  18
ATOM     18  C   UNL     1      -5.689  -2.669 123.818  0.00  0.00    +0.000 C 
BRANCH  18  20
ATOM     19  C   UNL     1      -4.487  -4.809 123.613  0.00  0.00    +0.000 C 
ATOM     20  C   UNL     1      -4.376  -3.298 123.407  0.00  0.00    +0.000 C 
ENDBRANCH  18  20
ENDBRANCH  17  18
ENDBRANCH  14  17
ENDBRANCH  13  14
ENDBRANCH  12  13
ENDBRANCH   1  12
TORSDOF 9
ENDMDL
MODEL 9
REMARK VINA RESULT:      -6.0      3.955      6.214
REMARK  Name = Padimate O
REMARK  13 active torsions:
REMARK  status: ('A' for Active; 'I' for Inactive)
REMARK    1  A    between atoms: C_1  and  C_2
REMARK    2  A    between atoms: C_2  and  C_3
REMARK    3  A    between atoms: C_3  and  C_4
REMARK    4  A    between atoms: C_4  and  C_5
REMARK    5  A    between atoms: C_5  and  C_6
REMARK    6  A    between atoms: C_5  and  C_8
REMARK    7  A    between atoms: C_6  and  C_7
REMARK    8  A    between atoms: C_8  and  O_9
REMARK    9  A    between atoms: O_9  and  C_10
REMARK   10  A    between atoms: C_10  and  C_12
REMARK   11  A    between atoms: C_15  and  N_18
REMARK   12  A    between atoms: N_18  and  C_19
REMARK   13  A    between atoms: N_18  and  C_20
REMARK                            x       y       z     vdW  Elec       q    Type
REMARK                         _______ _______ _______ _____ _____    ______ ____
ROOT
ATOM      1  C   UNL     1      -8.891  -0.178 125.753  0.00  0.00    +0.000 C 
ATOM      2  O   UNL     1     -10.075   0.058 125.606  0.00  0.00    +0.000 OA
ENDROOT
BRANCH   1   3
ATOM      3  C   UNL     1      -8.364  -0.880 126.952  0.00  0.00    +0.000 A 
ATOM      4  C   UNL     1      -7.729  -0.140 127.945  0.00  0.00    +0.000 A 
ATOM      5  C   UNL     1      -7.051  -0.790 128.992  0.00  0.00    +0.000 A 
ATOM      6  C   UNL     1      -7.052  -2.186 129.155  0.00  0.00    +0.000 A 
ATOM      7  C   UNL     1      -7.692  -2.896 128.119  0.00  0.00    +0.000 A 
ATOM      8  C   UNL     1      -8.341  -2.266 127.037  0.00  0.00    +0.000 A 
BRANCH   6   9
ATOM      9  N   UNL     1      -6.451  -2.812 130.241  0.00  0.00    +0.000 N 
ATOM     10  C   UNL     1      -6.347  -2.182 131.562  0.00  0.00    +0.000 C 
ATOM     11  C   UNL     1      -6.086  -4.231 130.235  0.00  0.00    +0.000 C 
ENDBRANCH   6   9
ENDBRANCH   1   3
BRANCH   1  12
ATOM     12  O   UNL     1      -7.895   0.136 124.879  0.00  0.00    +0.000 OA
BRANCH  12  13
ATOM     13  C   UNL     1      -8.175  -0.226 123.509  0.00  0.00    +0.000 C 
BRANCH  13  14
ATOM     14  C   UNL     1      -7.183  -1.314 123.013  0.00  0.00    +0.000 C 
BRANCH  14  15
ATOM     15  C   UNL     1      -7.973  -2.601 122.651  0.00  0.00    +0.000 C 
ATOM     16  C   UNL     1      -9.271  -2.856 123.411  0.00  0.00    +0.000 C 
ENDBRANCH  14  15
BRANCH  14  17
ATOM     17  C   UNL     1      -6.086  -1.536 124.092  0.00  0.00    +0.000 C 
BRANCH  17  18
ATOM     18  C   UNL     1      -5.664  -2.991 124.243  0.00  0.00    +0.000 C 
BRANCH  18  20
ATOM     19  C   UNL     1      -4.348  -4.942 123.515  0.00  0.00    +0.000 C 
ATOM     20  C   UNL     1      -4.431  -3.417 123.476  0.00  0.00    +0.000 C 
ENDBRANCH  18  20
ENDBRANCH  17  18
ENDBRANCH  14  17
ENDBRANCH  13  14
ENDBRANCH  12  13
ENDBRANCH   1  12
TORSDOF 9
ENDMDL
