MODEL 1
REMARK VINA RESULT:      -8.4      0.000      0.000
REMARK  Name = Palbociclib
REMARK  5 active torsions:
REMARK  status: ('A' for Active; 'I' for Inactive)
REMARK    1  A    between atoms: C_1  and  C_2
REMARK    2  A    between atoms: C_2  and  C_4
REMARK    3  A    between atoms: C_5  and  C_6
REMARK    4  A    between atoms: C_15  and  N_18
REMARK    5  A    between atoms: N_26  and  C_27
REMARK                            x       y       z     vdW  Elec       q    Type
REMARK                         _______ _______ _______ _____ _____    ______ ____
ROOT
ATOM      1  C   UNL     1      -8.146  -1.567 125.462  0.00  0.00    +0.000 A 
ATOM      2  C   UNL     1      -8.076  -0.688 124.440  0.00  0.00    +0.000 A 
ATOM      3  C   UNL     1      -8.761  -0.896 123.115  0.00  0.00    +0.000 C 
ATOM      4  C   UNL     1      -7.295   0.553 124.634  0.00  0.00    +0.000 A 
ATOM      5  C   UNL     1      -7.153   1.549 123.681  0.00  0.00    +0.000 A 
ATOM      6  N   UNL     1      -6.452   2.697 123.851  0.00  0.00    +0.000 NA
ATOM      7  C   UNL     1      -5.830   2.862 125.025  0.00  0.00    +0.000 A 
ATOM      8  N   UNL     1      -5.040   4.012 125.194  0.00  0.00    +0.000 N 
ATOM      9  C   UNL     1      -4.445   4.382 126.415  0.00  0.00    +0.000 A 
ATOM     10  N   UNL     1      -4.838   5.479 127.093  0.00  0.00    +0.000 NA
ATOM     11  C   UNL     1      -4.265   5.688 128.327  0.00  0.00    +0.000 A 
ATOM     12  C   UNL     1      -3.258   4.914 128.916  0.00  0.00    +0.000 A 
ATOM     13  C   UNL     1      -2.832   3.839 128.145  0.00  0.00    +0.000 A 
ATOM     14  C   UNL     1      -3.435   3.563 126.914  0.00  0.00    +0.000 A 
ATOM     15  N   UNL     1      -5.917   1.950 126.012  0.00  0.00    +0.000 NA
ATOM     16  C   UNL     1      -6.643   0.823 125.827  0.00  0.00    +0.000 A 
ATOM     17  N   UNL     1      -6.736  -0.127 126.893  0.00  0.00    +0.000 N 
ATOM     18  C   UNL     1      -7.429  -1.317 126.736  0.00  0.00    +0.000 A 
ATOM     19  O   UNL     1      -7.483  -2.196 127.606  0.00  0.00    +0.000 OA
ATOM     20  H   UNL     1      -5.374   4.776 124.625  0.00  0.00    +0.000 HD
ENDROOT
BRANCH  12  21
ATOM     21  N   UNL     1      -2.722   5.197 130.150  0.00  0.00    +0.000 N 
ATOM     22  C   UNL     1      -1.955   6.422 130.415  0.00  0.00    +0.000 C 
ATOM     23  C   UNL     1      -2.657   7.259 131.521  0.00  0.00    +0.000 C 
ATOM     24  N   UNL     1      -2.899   6.493 132.763  0.00  0.00    +0.000 NA
ATOM     25  C   UNL     1      -3.683   5.283 132.437  0.00  0.00    +0.000 C 
ATOM     26  C   UNL     1      -3.021   4.406 131.350  0.00  0.00    +0.000 C 
ATOM     27  H   UNL     1      -3.421   7.068 133.422  0.00  0.00    +0.000 HD
ENDBRANCH  12  21
BRANCH  17  28
ATOM     28  C   UNL     1      -6.068   0.159 128.175  0.00  0.00    +0.000 C 
ATOM     29  C   UNL     1      -7.043   0.344 129.348  0.00  0.00    +0.000 C 
ATOM     30  C   UNL     1      -6.178   0.181 130.589  0.00  0.00    +0.000 C 
ATOM     31  C   UNL     1      -5.034  -0.748 130.186  0.00  0.00    +0.000 C 
ATOM     32  C   UNL     1      -5.149  -0.964 128.676  0.00  0.00    +0.000 C 
ENDBRANCH  17  28
BRANCH   1  34
ATOM     33  C   UNL     1      -8.270  -4.040 124.735  0.00  0.00    +0.000 C 
ATOM     34  C   UNL     1      -8.946  -2.830 125.331  0.00  0.00    +0.000 C 
ATOM     35  O   UNL     1     -10.106  -2.888 125.736  0.00  0.00    +0.000 OA
ENDBRANCH   1  34
TORSDOF 3
ENDMDL
MODEL 2
REMARK VINA RESULT:      -8.4      2.241      4.403
REMARK  Name = Palbociclib
REMARK  5 active torsions:
REMARK  status: ('A' for Active; 'I' for Inactive)
REMARK    1  A    between atoms: C_1  and  C_2
REMARK    2  A    between atoms: C_2  and  C_4
REMARK    3  A    between atoms: C_5  and  C_6
REMARK    4  A    between atoms: C_15  and  N_18
REMARK    5  A    between atoms: N_26  and  C_27
REMARK                            x       y       z     vdW  Elec       q    Type
REMARK                         _______ _______ _______ _____ _____    ______ ____
ROOT
ATOM      1  C   UNL     1      -8.260  -2.139 126.570  0.00  0.00    +0.000 A 
ATOM      2  C   UNL     1      -8.214  -2.615 127.832  0.00  0.00    +0.000 A 
ATOM      3  C   UNL     1      -8.700  -3.985 128.222  0.00  0.00    +0.000 C 
ATOM      4  C   UNL     1      -7.644  -1.750 128.888  0.00  0.00    +0.000 A 
ATOM      5  C   UNL     1      -7.518  -2.115 130.219  0.00  0.00    +0.000 A 
ATOM      6  N   UNL     1      -6.985  -1.338 131.194  0.00  0.00    +0.000 NA
ATOM      7  C   UNL     1      -6.575  -0.113 130.840  0.00  0.00    +0.000 A 
ATOM      8  N   UNL     1      -6.086   0.733 131.850  0.00  0.00    +0.000 N 
ATOM      9  C   UNL     1      -5.496   1.987 131.603  0.00  0.00    +0.000 A 
ATOM     10  N   UNL     1      -4.188   2.215 131.835  0.00  0.00    +0.000 NA
ATOM     11  C   UNL     1      -3.692   3.442 131.458  0.00  0.00    +0.000 A 
ATOM     12  C   UNL     1      -4.429   4.507 130.927  0.00  0.00    +0.000 A 
ATOM     13  C   UNL     1      -5.787   4.251 130.779  0.00  0.00    +0.000 A 
ATOM     14  C   UNL     1      -6.313   2.995 131.095  0.00  0.00    +0.000 A 
ATOM     15  N   UNL     1      -6.653   0.325 129.568  0.00  0.00    +0.000 NA
ATOM     16  C   UNL     1      -7.167  -0.480 128.609  0.00  0.00    +0.000 A 
ATOM     17  N   UNL     1      -7.228  -0.001 127.262  0.00  0.00    +0.000 N 
ATOM     18  C   UNL     1      -7.787  -0.769 126.252  0.00  0.00    +0.000 A 
ATOM     19  O   UNL     1      -7.919  -0.374 125.087  0.00  0.00    +0.000 OA
ATOM     20  H   UNL     1      -5.683   0.206 132.610  0.00  0.00    +0.000 HD
ENDROOT
BRANCH  12  21
ATOM     21  N   UNL     1      -3.863   5.714 130.589  0.00  0.00    +0.000 N 
ATOM     22  C   UNL     1      -2.977   5.873 129.428  0.00  0.00    +0.000 C 
ATOM     23  C   UNL     1      -3.588   6.895 128.429  0.00  0.00    +0.000 C 
ATOM     24  N   UNL     1      -3.901   8.199 129.054  0.00  0.00    +0.000 NA
ATOM     25  C   UNL     1      -4.803   7.978 130.205  0.00  0.00    +0.000 C 
ATOM     26  C   UNL     1      -4.235   6.978 131.236  0.00  0.00    +0.000 C 
ATOM     27  H   UNL     1      -4.361   8.802 128.373  0.00  0.00    +0.000 HD
ENDBRANCH  12  21
BRANCH  17  28
ATOM     28  C   UNL     1      -6.701   1.339 126.946  0.00  0.00    +0.000 C 
ATOM     29  C   UNL     1      -5.584   1.327 125.892  0.00  0.00    +0.000 C 
ATOM     30  C   UNL     1      -5.507   2.766 125.405  0.00  0.00    +0.000 C 
ATOM     31  C   UNL     1      -6.910   3.345 125.581  0.00  0.00    +0.000 C 
ATOM     32  C   UNL     1      -7.731   2.297 126.332  0.00  0.00    +0.000 C 
ENDBRANCH  17  28
BRANCH   1  34
ATOM     33  C   UNL     1      -7.838  -3.858 124.693  0.00  0.00    +0.000 C 
ATOM     34  C   UNL     1      -8.803  -2.982 125.453  0.00  0.00    +0.000 C 
ATOM     35  O   UNL     1     -10.005  -2.990 125.195  0.00  0.00    +0.000 OA
ENDBRANCH   1  34
TORSDOF 3
ENDMDL
MODEL 3
REMARK VINA RESULT:      -8.3      4.116      8.824
REMARK  Name = Palbociclib
REMARK  5 active torsions:
REMARK  status: ('A' for Active; 'I' for Inactive)
REMARK    1  A    between atoms: C_1  and  C_2
REMARK    2  A    between atoms: C_2  and  C_4
REMARK    3  A    between atoms: C_5  and  C_6
REMARK    4  A    between atoms: C_15  and  N_18
REMARK    5  A    between atoms: N_26  and  C_27
REMARK                            x       y       z     vdW  Elec       q    Type
REMARK                         _______ _______ _______ _____ _____    ______ ____
ROOT
ATOM      1  C   UNL     1      -8.597   4.266 131.024  0.00  0.00    +0.000 A 
ATOM      2  C   UNL     1      -8.724   3.261 131.916  0.00  0.00    +0.000 A 
ATOM      3  C   UNL     1      -9.062   3.473 133.367  0.00  0.00    +0.000 C 
ATOM      4  C   UNL     1      -8.532   1.873 131.439  0.00  0.00    +0.000 A 
ATOM      5  C   UNL     1      -8.649   0.746 132.237  0.00  0.00    +0.000 A 
ATOM      6  N   UNL     1      -8.490  -0.532 131.811  0.00  0.00    +0.000 NA
ATOM      7  C   UNL     1      -8.168  -0.708 130.523  0.00  0.00    +0.000 A 
ATOM      8  N   UNL     1      -7.929  -2.020 130.079  0.00  0.00    +0.000 N 
ATOM      9  C   UNL     1      -7.720  -2.365 128.732  0.00  0.00    +0.000 A 
ATOM     10  N   UNL     1      -8.609  -3.107 128.041  0.00  0.00    +0.000 NA
ATOM     11  C   UNL     1      -8.358  -3.295 126.702  0.00  0.00    +0.000 A 
ATOM     12  C   UNL     1      -7.231  -2.855 125.998  0.00  0.00    +0.000 A 
ATOM     13  C   UNL     1      -6.306  -2.161 126.770  0.00  0.00    +0.000 A 
ATOM     14  C   UNL     1      -6.557  -1.900 128.120  0.00  0.00    +0.000 A 
ATOM     15  N   UNL     1      -8.039   0.328 129.673  0.00  0.00    +0.000 NA
ATOM     16  C   UNL     1      -8.227   1.593 130.117  0.00  0.00    +0.000 A 
ATOM     17  N   UNL     1      -8.100   2.679 129.195  0.00  0.00    +0.000 N 
ATOM     18  C   UNL     1      -8.237   3.994 129.611  0.00  0.00    +0.000 A 
ATOM     19  O   UNL     1      -8.073   4.968 128.864  0.00  0.00    +0.000 OA
ATOM     20  H   UNL     1      -8.445  -2.694 130.625  0.00  0.00    +0.000 HD
ENDROOT
BRANCH  12  21
ATOM     21  N   UNL     1      -7.043  -3.097 124.658  0.00  0.00    +0.000 N 
ATOM     22  C   UNL     1      -8.030  -2.711 123.640  0.00  0.00    +0.000 C 
ATOM     23  C   UNL     1      -7.393  -1.711 122.635  0.00  0.00    +0.000 C 
ATOM     24  N   UNL     1      -6.150  -2.223 122.017  0.00  0.00    +0.000 NA
ATOM     25  C   UNL     1      -5.193  -2.581 123.085  0.00  0.00    +0.000 C 
ATOM     26  C   UNL     1      -5.773  -3.586 124.106  0.00  0.00    +0.000 C 
ATOM     27  H   UNL     1      -5.742  -1.501 121.425  0.00  0.00    +0.000 HD
ENDBRANCH  12  21
BRANCH  17  28
ATOM     28  C   UNL     1      -7.800   2.395 127.780  0.00  0.00    +0.000 C 
ATOM     29  C   UNL     1      -6.388   1.835 127.551  0.00  0.00    +0.000 C 
ATOM     30  C   UNL     1      -6.446   1.215 126.163  0.00  0.00    +0.000 C 
ATOM     31  C   UNL     1      -7.897   0.782 125.956  0.00  0.00    +0.000 C 
ATOM     32  C   UNL     1      -8.693   1.319 127.146  0.00  0.00    +0.000 C 
ENDBRANCH  17  28
BRANCH   1  34
ATOM     33  C   UNL     1      -7.600   6.491 131.869  0.00  0.00    +0.000 C 
ATOM     34  C   UNL     1      -8.807   5.691 131.445  0.00  0.00    +0.000 C 
ATOM     35  O   UNL     1      -9.924   6.204 131.404  0.00  0.00    +0.000 OA
ENDBRANCH   1  34
TORSDOF 3
ENDMDL
MODEL 4
REMARK VINA RESULT:      -8.0      3.048      3.362
REMARK  Name = Palbociclib
REMARK  5 active torsions:
REMARK  status: ('A' for Active; 'I' for Inactive)
REMARK    1  A    between atoms: C_1  and  C_2
REMARK    2  A    between atoms: C_2  and  C_4
REMARK    3  A    between atoms: C_5  and  C_6
REMARK    4  A    between atoms: C_15  and  N_18
REMARK    5  A    between atoms: N_26  and  C_27
REMARK                            x       y       z     vdW  Elec       q    Type
REMARK                         _______ _______ _______ _____ _____    ______ ____
ROOT
ATOM      1  C   UNL     1      -6.260  -2.056 124.838  0.00  0.00    +0.000 A 
ATOM      2  C   UNL     1      -6.525  -1.042 123.987  0.00  0.00    +0.000 A 
ATOM      3  C   UNL     1      -6.599  -1.206 122.493  0.00  0.00    +0.000 C 
ATOM      4  C   UNL     1      -6.769   0.303 124.555  0.00  0.00    +0.000 A 
ATOM      5  C   UNL     1      -7.070   1.429 123.804  0.00  0.00    +0.000 A 
ATOM      6  N   UNL     1      -7.310   2.663 124.311  0.00  0.00    +0.000 NA
ATOM      7  C   UNL     1      -7.221   2.803 125.640  0.00  0.00    +0.000 A 
ATOM      8  N   UNL     1      -7.396   4.089 126.179  0.00  0.00    +0.000 N 
ATOM      9  C   UNL     1      -7.466   4.358 127.558  0.00  0.00    +0.000 A 
ATOM     10  N   UNL     1      -8.603   4.789 128.141  0.00  0.00    +0.000 NA
ATOM     11  C   UNL     1      -8.592   4.917 129.511  0.00  0.00    +0.000 A 
ATOM     12  C   UNL     1      -7.493   4.717 130.355  0.00  0.00    +0.000 A 
ATOM     13  C   UNL     1      -6.324   4.349 129.699  0.00  0.00    +0.000 A 
ATOM     14  C   UNL     1      -6.315   4.151 128.315  0.00  0.00    +0.000 A 
ATOM     15  N   UNL     1      -6.939   1.763 126.449  0.00  0.00    +0.000 NA
ATOM     16  C   UNL     1      -6.729   0.535 125.920  0.00  0.00    +0.000 A 
ATOM     17  N   UNL     1      -6.445  -0.559 126.797  0.00  0.00    +0.000 N 
ATOM     18  C   UNL     1      -6.176  -1.826 126.300  0.00  0.00    +0.000 A 
ATOM     19  O   UNL     1      -5.864  -2.787 127.015  0.00  0.00    +0.000 OA
ATOM     20  H   UNL     1      -7.993   4.655 125.595  0.00  0.00    +0.000 HD
ENDROOT
BRANCH  12  21
ATOM     21  N   UNL     1      -7.556   4.882 131.718  0.00  0.00    +0.000 N 
ATOM     22  C   UNL     1      -8.112   6.091 132.342  0.00  0.00    +0.000 C 
ATOM     23  C   UNL     1      -9.332   5.717 133.229  0.00  0.00    +0.000 C 
ATOM     24  N   UNL     1      -9.019   4.682 134.239  0.00  0.00    +0.000 NA
ATOM     25  C   UNL     1      -8.477   3.489 133.554  0.00  0.00    +0.000 C 
ATOM     26  C   UNL     1      -7.252   3.804 132.667  0.00  0.00    +0.000 C 
ATOM     27  H   UNL     1      -9.869   4.428 134.741  0.00  0.00    +0.000 HD
ENDBRANCH  12  21
BRANCH  17  28
ATOM     28  C   UNL     1      -6.423  -0.332 128.253  0.00  0.00    +0.000 C 
ATOM     29  C   UNL     1      -7.529  -1.084 129.009  0.00  0.00    +0.000 C 
ATOM     30  C   UNL     1      -7.067  -1.077 130.459  0.00  0.00    +0.000 C 
ATOM     31  C   UNL     1      -5.541  -1.026 130.415  0.00  0.00    +0.000 C 
ATOM     32  C   UNL     1      -5.146  -0.820 128.952  0.00  0.00    +0.000 C 
ENDBRANCH  17  28
BRANCH   1  34
ATOM     33  C   UNL     1      -4.632  -3.824 123.898  0.00  0.00    +0.000 C 
ATOM     34  C   UNL     1      -6.030  -3.446 124.321  0.00  0.00    +0.000 C 
ATOM     35  O   UNL     1      -6.947  -4.265 124.284  0.00  0.00    +0.000 OA
ENDBRANCH   1  34
TORSDOF 3
ENDMDL
MODEL 5
REMARK VINA RESULT:      -8.0      3.493      9.002
REMARK  Name = Palbociclib
REMARK  5 active torsions:
REMARK  status: ('A' for Active; 'I' for Inactive)
REMARK    1  A    between atoms: C_1  and  C_2
REMARK    2  A    between atoms: C_2  and  C_4
REMARK    3  A    between atoms: C_5  and  C_6
REMARK    4  A    between atoms: C_15  and  N_18
REMARK    5  A    between atoms: N_26  and  C_27
REMARK                            x       y       z     vdW  Elec       q    Type
REMARK                         _______ _______ _______ _____ _____    ______ ____
ROOT
ATOM      1  C   UNL     1      -2.404   5.662 131.118  0.00  0.00    +0.000 A 
ATOM      2  C   UNL     1      -2.771   4.609 131.879  0.00  0.00    +0.000 A 
ATOM      3  C   UNL     1      -2.414   4.469 133.334  0.00  0.00    +0.000 C 
ATOM      4  C   UNL     1      -3.577   3.538 131.252  0.00  0.00    +0.000 A 
ATOM      5  C   UNL     1      -4.038   2.412 131.915  0.00  0.00    +0.000 A 
ATOM      6  N   UNL     1      -4.790   1.431 131.357  0.00  0.00    +0.000 NA
ATOM      7  C   UNL     1      -5.083   1.555 130.056  0.00  0.00    +0.000 A 
ATOM      8  N   UNL     1      -5.801   0.513 129.442  0.00  0.00    +0.000 N 
ATOM      9  C   UNL     1      -6.295   0.572 128.126  0.00  0.00    +0.000 A 
ATOM     10  N   UNL     1      -7.617   0.612 127.865  0.00  0.00    +0.000 NA
ATOM     11  C   UNL     1      -7.987   0.777 126.550  0.00  0.00    +0.000 A 
ATOM     12  C   UNL     1      -7.129   0.832 125.445  0.00  0.00    +0.000 A 
ATOM     13  C   UNL     1      -5.780   0.709 125.759  0.00  0.00    +0.000 A 
ATOM     14  C   UNL     1      -5.364   0.600 127.089  0.00  0.00    +0.000 A 
ATOM     15  N   UNL     1      -4.683   2.619 129.333  0.00  0.00    +0.000 NA
ATOM     16  C   UNL     1      -3.955   3.597 129.920  0.00  0.00    +0.000 A 
ATOM     17  N   UNL     1      -3.552   4.726 129.139  0.00  0.00    +0.000 N 
ATOM     18  C   UNL     1      -2.766   5.730 129.681  0.00  0.00    +0.000 A 
ATOM     19  O   UNL     1      -2.340   6.693 129.029  0.00  0.00    +0.000 OA
ATOM     20  H   UNL     1      -6.387   0.029 130.105  0.00  0.00    +0.000 HD
ENDROOT
BRANCH  12  21
ATOM     21  N   UNL     1      -7.578   0.982 124.154  0.00  0.00    +0.000 N 
ATOM     22  C   UNL     1      -8.732   0.241 123.629  0.00  0.00    +0.000 C 
ATOM     23  C   UNL     1      -9.842   1.233 123.182  0.00  0.00    +0.000 C 
ATOM     24  N   UNL     1      -9.361   2.242 122.213  0.00  0.00    +0.000 NA
ATOM     25  C   UNL     1      -8.211   2.963 122.799  0.00  0.00    +0.000 C 
ATOM     26  C   UNL     1      -7.071   2.021 123.250  0.00  0.00    +0.000 C 
ATOM     27  H   UNL     1     -10.108   2.904 122.011  0.00  0.00    +0.000 HD
ENDBRANCH  12  21
BRANCH  17  28
ATOM     28  C   UNL     1      -3.966   4.813 127.727  0.00  0.00    +0.000 C 
ATOM     29  C   UNL     1      -3.305   3.759 126.826  0.00  0.00    +0.000 C 
ATOM     30  C   UNL     1      -4.171   3.733 125.575  0.00  0.00    +0.000 C 
ATOM     31  C   UNL     1      -5.574   4.138 126.025  0.00  0.00    +0.000 C 
ATOM     32  C   UNL     1      -5.463   4.567 127.489  0.00  0.00    +0.000 C 
ENDBRANCH  17  28
BRANCH   1  34
ATOM     33  C   UNL     1      -2.360   7.973 132.265  0.00  0.00    +0.000 C 
ATOM     34  C   UNL     1      -1.608   6.790 131.707  0.00  0.00    +0.000 C 
ATOM     35  O   UNL     1      -0.381   6.731 131.771  0.00  0.00    +0.000 OA
ENDBRANCH   1  34
TORSDOF 3
ENDMDL
MODEL 6
REMARK VINA RESULT:      -7.9      4.679      7.753
REMARK  Name = Palbociclib
REMARK  5 active torsions:
REMARK  status: ('A' for Active; 'I' for Inactive)
REMARK    1  A    between atoms: C_1  and  C_2
REMARK    2  A    between atoms: C_2  and  C_4
REMARK    3  A    between atoms: C_5  and  C_6
REMARK    4  A    between atoms: C_15  and  N_18
REMARK    5  A    between atoms: N_26  and  C_27
REMARK                            x       y       z     vdW  Elec       q    Type
REMARK                         _______ _______ _______ _____ _____    ______ ____
ROOT
ATOM      1  C   UNL     1     -10.129   5.232 130.323  0.00  0.00    +0.000 A 
ATOM      2  C   UNL     1      -8.980   5.937 130.397  0.00  0.00    +0.000 A 
ATOM      3  C   UNL     1      -8.915   7.436 130.287  0.00  0.00    +0.000 C 
ATOM      4  C   UNL     1      -7.716   5.197 130.610  0.00  0.00    +0.000 A 
ATOM      5  C   UNL     1      -6.468   5.791 130.723  0.00  0.00    +0.000 A 
ATOM      6  N   UNL     1      -5.305   5.127 130.932  0.00  0.00    +0.000 NA
ATOM      7  C   UNL     1      -5.371   3.791 131.007  0.00  0.00    +0.000 A 
ATOM      8  N   UNL     1      -4.167   3.081 131.152  0.00  0.00    +0.000 N 
ATOM      9  C   UNL     1      -4.098   1.695 131.382  0.00  0.00    +0.000 A 
ATOM     10  N   UNL     1      -3.651   1.189 132.549  0.00  0.00    +0.000 NA
ATOM     11  C   UNL     1      -3.727  -0.176 132.707  0.00  0.00    +0.000 A 
ATOM     12  C   UNL     1      -4.153  -1.101 131.747  0.00  0.00    +0.000 A 
ATOM     13  C   UNL     1      -4.531  -0.538 130.533  0.00  0.00    +0.000 A 
ATOM     14  C   UNL     1      -4.524   0.850 130.359  0.00  0.00    +0.000 A 
ATOM     15  N   UNL     1      -6.541   3.129 130.914  0.00  0.00    +0.000 NA
ATOM     16  C   UNL     1      -7.691   3.817 130.730  0.00  0.00    +0.000 A 
ATOM     17  N   UNL     1      -8.925   3.097 130.648  0.00  0.00    +0.000 N 
ATOM     18  C   UNL     1     -10.125   3.752 130.414  0.00  0.00    +0.000 A 
ATOM     19  O   UNL     1     -11.206   3.166 130.273  0.00  0.00    +0.000 OA
ATOM     20  H   UNL     1      -3.467   3.634 131.623  0.00  0.00    +0.000 HD
ENDROOT
BRANCH  12  21
ATOM     21  N   UNL     1      -4.185  -2.456 131.975  0.00  0.00    +0.000 N 
ATOM     22  C   UNL     1      -4.764  -3.038 133.194  0.00  0.00    +0.000 C 
ATOM     23  C   UNL     1      -5.947  -3.976 132.825  0.00  0.00    +0.000 C 
ATOM     24  N   UNL     1      -5.574  -5.024 131.849  0.00  0.00    +0.000 NA
ATOM     25  C   UNL     1      -5.011  -4.380 130.643  0.00  0.00    +0.000 C 
ATOM     26  C   UNL     1      -3.821  -3.446 130.953  0.00  0.00    +0.000 C 
ATOM     27  H   UNL     1      -6.401  -5.561 131.593  0.00  0.00    +0.000 HD
ENDBRANCH  12  21
BRANCH  17  28
ATOM     28  C   UNL     1      -8.917   1.631 130.800  0.00  0.00    +0.000 C 
ATOM     29  C   UNL     1      -8.148   0.902 129.687  0.00  0.00    +0.000 C 
ATOM     30  C   UNL     1      -7.887  -0.485 130.253  0.00  0.00    +0.000 C 
ATOM     31  C   UNL     1      -7.821  -0.316 131.771  0.00  0.00    +0.000 C 
ATOM     32  C   UNL     1      -8.223   1.128 132.073  0.00  0.00    +0.000 C 
ENDBRANCH  17  28
BRANCH   1  34
ATOM     33  C   UNL     1     -12.104   6.538 131.348  0.00  0.00    +0.000 C 
ATOM     34  C   UNL     1     -11.443   5.931 130.135  0.00  0.00    +0.000 C 
ATOM     35  O   UNL     1     -11.945   6.041 129.018  0.00  0.00    +0.000 OA
ENDBRANCH   1  34
TORSDOF 3
ENDMDL
MODEL 7
REMARK VINA RESULT:      -7.9      3.418      9.187
REMARK  Name = Palbociclib
REMARK  5 active torsions:
REMARK  status: ('A' for Active; 'I' for Inactive)
REMARK    1  A    between atoms: C_1  and  C_2
REMARK    2  A    between atoms: C_2  and  C_4
REMARK    3  A    between atoms: C_5  and  C_6
REMARK    4  A    between atoms: C_15  and  N_18
REMARK    5  A    between atoms: N_26  and  C_27
REMARK                            x       y       z     vdW  Elec       q    Type
REMARK                         _______ _______ _______ _____ _____    ______ ____
ROOT
ATOM      1  C   UNL     1      -3.493   3.669 131.684  0.00  0.00    +0.000 A 
ATOM      2  C   UNL     1      -3.628   2.595 132.491  0.00  0.00    +0.000 A 
ATOM      3  C   UNL     1      -3.270   2.602 133.953  0.00  0.00    +0.000 C 
ATOM      4  C   UNL     1      -4.170   1.346 131.911  0.00  0.00    +0.000 A 
ATOM      5  C   UNL     1      -4.379   0.176 132.623  0.00  0.00    +0.000 A 
ATOM      6  N   UNL     1      -4.887  -0.971 132.108  0.00  0.00    +0.000 NA
ATOM      7  C   UNL     1      -5.182  -0.973 130.802  0.00  0.00    +0.000 A 
ATOM      8  N   UNL     1      -5.643  -2.173 130.234  0.00  0.00    +0.000 N 
ATOM      9  C   UNL     1      -6.120  -2.283 128.915  0.00  0.00    +0.000 A 
ATOM     10  N   UNL     1      -7.414  -2.549 128.647  0.00  0.00    +0.000 NA
ATOM     11  C   UNL     1      -7.794  -2.528 127.324  0.00  0.00    +0.000 A 
ATOM     12  C   UNL     1      -6.953  -2.333 126.222  0.00  0.00    +0.000 A 
ATOM     13  C   UNL     1      -5.615  -2.141 126.545  0.00  0.00    +0.000 A 
ATOM     14  C   UNL     1      -5.204  -2.096 127.881  0.00  0.00    +0.000 A 
ATOM     15  N   UNL     1      -5.018   0.121 130.032  0.00  0.00    +0.000 NA
ATOM     16  C   UNL     1      -4.532   1.261 130.576  0.00  0.00    +0.000 A 
ATOM     17  N   UNL     1      -4.377   2.415 129.745  0.00  0.00    +0.000 N 
ATOM     18  C   UNL     1      -3.841   3.592 130.244  0.00  0.00    +0.000 A 
ATOM     19  O   UNL     1      -3.630   4.595 129.550  0.00  0.00    +0.000 OA
ATOM     20  H   UNL     1      -6.118  -2.745 130.916  0.00  0.00    +0.000 HD
ENDROOT
BRANCH  12  21
ATOM     21  N   UNL     1      -7.406  -2.343 124.923  0.00  0.00    +0.000 N 
ATOM     22  C   UNL     1      -7.972  -3.544 124.295  0.00  0.00    +0.000 C 
ATOM     23  C   UNL     1      -9.440  -3.275 123.861  0.00  0.00    +0.000 C 
ATOM     24  N   UNL     1      -9.578  -2.090 122.986  0.00  0.00    +0.000 NA
ATOM     25  C   UNL     1      -9.005  -0.914 123.675  0.00  0.00    +0.000 C 
ATOM     26  C   UNL     1      -7.539  -1.124 124.116  0.00  0.00    +0.000 C 
ATOM     27  H   UNL     1     -10.564  -1.922 122.793  0.00  0.00    +0.000 HD
ENDBRANCH  12  21
BRANCH  17  28
ATOM     28  C   UNL     1      -4.781   2.346 128.330  0.00  0.00    +0.000 C 
ATOM     29  C   UNL     1      -5.926   3.306 127.969  0.00  0.00    +0.000 C 
ATOM     30  C   UNL     1      -5.878   3.400 126.452  0.00  0.00    +0.000 C 
ATOM     31  C   UNL     1      -4.421   3.157 126.061  0.00  0.00    +0.000 C 
ATOM     32  C   UNL     1      -3.682   2.747 127.336  0.00  0.00    +0.000 C 
ENDBRANCH  17  28
BRANCH   1  34
ATOM     33  C   UNL     1      -1.480   5.175 132.266  0.00  0.00    +0.000 C 
ATOM     34  C   UNL     1      -2.974   4.970 132.224  0.00  0.00    +0.000 C 
ATOM     35  O   UNL     1      -3.747   5.858 132.581  0.00  0.00    +0.000 OA
ENDBRANCH   1  34
TORSDOF 3
ENDMDL
MODEL 8
REMARK VINA RESULT:      -7.8      3.717      7.876
REMARK  Name = Palbociclib
REMARK  5 active torsions:
REMARK  status: ('A' for Active; 'I' for Inactive)
REMARK    1  A    between atoms: C_1  and  C_2
REMARK    2  A    between atoms: C_2  and  C_4
REMARK    3  A    between atoms: C_5  and  C_6
REMARK    4  A    between atoms: C_15  and  N_18
REMARK    5  A    between atoms: N_26  and  C_27
REMARK                            x       y       z     vdW  Elec       q    Type
REMARK                         _______ _______ _______ _____ _____    ______ ____
ROOT
ATOM      1  C   UNL     1      -5.079  -3.628 132.485  0.00  0.00    +0.000 A 
ATOM      2  C   UNL     1      -4.960  -2.375 132.972  0.00  0.00    +0.000 A 
ATOM      3  C   UNL     1      -4.424  -2.062 134.343  0.00  0.00    +0.000 C 
ATOM      4  C   UNL     1      -5.365  -1.244 132.106  0.00  0.00    +0.000 A 
ATOM      5  C   UNL     1      -5.279   0.091 132.468  0.00  0.00    +0.000 A 
ATOM      6  N   UNL     1      -5.633   1.136 131.680  0.00  0.00    +0.000 NA
ATOM      7  C   UNL     1      -6.128   0.847 130.470  0.00  0.00    +0.000 A 
ATOM      8  N   UNL     1      -6.567   1.913 129.667  0.00  0.00    +0.000 N 
ATOM      9  C   UNL     1      -6.977   1.769 128.329  0.00  0.00    +0.000 A 
ATOM     10  N   UNL     1      -6.269   2.292 127.308  0.00  0.00    +0.000 NA
ATOM     11  C   UNL     1      -6.701   2.000 126.035  0.00  0.00    +0.000 A 
ATOM     12  C   UNL     1      -7.849   1.275 125.693  0.00  0.00    +0.000 A 
ATOM     13  C   UNL     1      -8.588   0.823 126.780  0.00  0.00    +0.000 A 
ATOM     14  C   UNL     1      -8.146   1.050 128.087  0.00  0.00    +0.000 A 
ATOM     15  N   UNL     1      -6.242  -0.422 130.032  0.00  0.00    +0.000 NA
ATOM     16  C   UNL     1      -5.858  -1.447 130.828  0.00  0.00    +0.000 A 
ATOM     17  N   UNL     1      -5.974  -2.787 130.339  0.00  0.00    +0.000 N 
ATOM     18  C   UNL     1      -5.638  -3.873 131.133  0.00  0.00    +0.000 A 
ATOM     19  O   UNL     1      -5.780  -5.049 130.776  0.00  0.00    +0.000 OA
ATOM     20  H   UNL     1      -6.068   2.764 129.879  0.00  0.00    +0.000 HD
ENDROOT
BRANCH  12  21
ATOM     21  N   UNL     1      -8.226   1.039 124.392  0.00  0.00    +0.000 N 
ATOM     22  C   UNL     1      -7.870  -0.197 123.680  0.00  0.00    +0.000 C 
ATOM     23  C   UNL     1      -9.159  -0.951 123.249  0.00  0.00    +0.000 C 
ATOM     24  N   UNL     1     -10.082  -0.113 122.452  0.00  0.00    +0.000 NA
ATOM     25  C   UNL     1     -10.413   1.105 123.222  0.00  0.00    +0.000 C 
ATOM     26  C   UNL     1      -9.164   1.901 123.664  0.00  0.00    +0.000 C 
ATOM     27  H   UNL     1     -10.936  -0.634 122.260  0.00  0.00    +0.000 HD
ENDBRANCH  12  21
BRANCH  17  28
ATOM     28  C   UNL     1      -6.474  -3.016 128.971  0.00  0.00    +0.000 C 
ATOM     29  C   UNL     1      -7.952  -2.640 128.786  0.00  0.00    +0.000 C 
ATOM     30  C   UNL     1      -8.128  -2.527 127.280  0.00  0.00    +0.000 C 
ATOM     31  C   UNL     1      -6.764  -2.118 126.725  0.00  0.00    +0.000 C 
ATOM     32  C   UNL     1      -5.777  -2.177 127.891  0.00  0.00    +0.000 C 
ENDBRANCH  17  28
BRANCH   1  34
ATOM     33  C   UNL     1      -5.700  -5.480 134.170  0.00  0.00    +0.000 C 
ATOM     34  C   UNL     1      -4.659  -4.811 133.307  0.00  0.00    +0.000 C 
ATOM     35  O   UNL     1      -3.511  -5.246 133.246  0.00  0.00    +0.000 OA
ENDBRANCH   1  34
TORSDOF 3
ENDMDL
MODEL 9
REMARK VINA RESULT:      -7.7      3.365      6.621
REMARK  Name = Palbociclib
REMARK  5 active torsions:
REMARK  status: ('A' for Active; 'I' for Inactive)
REMARK    1  A    between atoms: C_1  and  C_2
REMARK    2  A    between atoms: C_2  and  C_4
REMARK    3  A    between atoms: C_5  and  C_6
REMARK    4  A    between atoms: C_15  and  N_18
REMARK    5  A    between atoms: N_26  and  C_27
REMARK                            x       y       z     vdW  Elec       q    Type
REMARK                         _______ _______ _______ _____ _____    ______ ____
ROOT
ATOM      1  C   UNL     1      -6.724   2.350 123.698  0.00  0.00    +0.000 A 
ATOM      2  C   UNL     1      -6.002   3.219 124.437  0.00  0.00    +0.000 A 
ATOM      3  C   UNL     1      -5.587   4.581 123.951  0.00  0.00    +0.000 C 
ATOM      4  C   UNL     1      -5.606   2.815 125.805  0.00  0.00    +0.000 A 
ATOM      5  C   UNL     1      -4.881   3.610 126.679  0.00  0.00    +0.000 A 
ATOM      6  N   UNL     1      -4.524   3.259 127.939  0.00  0.00    +0.000 NA
ATOM      7  C   UNL     1      -4.880   2.037 128.354  0.00  0.00    +0.000 A 
ATOM      8  N   UNL     1      -4.458   1.628 129.631  0.00  0.00    +0.000 N 
ATOM      9  C   UNL     1      -4.873   0.433 130.247  0.00  0.00    +0.000 A 
ATOM     10  N   UNL     1      -5.658   0.434 131.343  0.00  0.00    +0.000 NA
ATOM     11  C   UNL     1      -6.092  -0.789 131.800  0.00  0.00    +0.000 A 
ATOM     12  C   UNL     1      -5.738  -2.042 131.285  0.00  0.00    +0.000 A 
ATOM     13  C   UNL     1      -4.865  -1.994 130.204  0.00  0.00    +0.000 A 
ATOM     14  C   UNL     1      -4.452  -0.767 129.676  0.00  0.00    +0.000 A 
ATOM     15  N   UNL     1      -5.591   1.198 127.575  0.00  0.00    +0.000 NA
ATOM     16  C   UNL     1      -5.956   1.582 126.330  0.00  0.00    +0.000 A 
ATOM     17  N   UNL     1      -6.723   0.683 125.523  0.00  0.00    +0.000 N 
ATOM     18  C   UNL     1      -7.082   1.011 124.225  0.00  0.00    +0.000 A 
ATOM     19  O   UNL     1      -7.689   0.241 123.469  0.00  0.00    +0.000 OA
ATOM     20  H   UNL     1      -4.336   2.416 130.249  0.00  0.00    +0.000 HD
ENDROOT
BRANCH  12  21
ATOM     21  N   UNL     1      -6.202  -3.225 131.810  0.00  0.00    +0.000 N 
ATOM     22  C   UNL     1      -5.601  -4.524 131.477  0.00  0.00    +0.000 C 
ATOM     23  C   UNL     1      -5.055  -5.202 132.765  0.00  0.00    +0.000 C 
ATOM     24  N   UNL     1      -6.077  -5.334 133.828  0.00  0.00    +0.000 NA
ATOM     25  C   UNL     1      -6.635  -3.998 134.127  0.00  0.00    +0.000 C 
ATOM     26  C   UNL     1      -7.204  -3.285 132.880  0.00  0.00    +0.000 C 
ATOM     27  H   UNL     1      -5.647  -5.718 134.668  0.00  0.00    +0.000 HD
ENDBRANCH  12  21
BRANCH  17  28
ATOM     28  C   UNL     1      -7.124  -0.623 126.078  0.00  0.00    +0.000 C 
ATOM     29  C   UNL     1      -8.643  -0.854 126.070  0.00  0.00    +0.000 C 
ATOM     30  C   UNL     1      -8.798  -2.356 126.247  0.00  0.00    +0.000 C 
ATOM     31  C   UNL     1      -7.541  -2.984 125.646  0.00  0.00    +0.000 C 
ATOM     32  C   UNL     1      -6.596  -1.834 125.295  0.00  0.00    +0.000 C 
ENDBRANCH  17  28
BRANCH   1  34
ATOM     33  C   UNL     1      -8.620   3.107 122.120  0.00  0.00    +0.000 C 
ATOM     34  C   UNL     1      -7.176   2.716 122.314  0.00  0.00    +0.000 C 
ATOM     35  O   UNL     1      -6.382   2.736 121.376  0.00  0.00    +0.000 OA
ENDBRANCH   1  34
TORSDOF 3
ENDMDL
