MODEL 1
REMARK VINA RESULT:      -9.8      0.000      0.000
REMARK  Name = Paliperidone
REMARK  6 active torsions:
REMARK  status: ('A' for Active; 'I' for Inactive)
REMARK    1  A    between atoms: C_1  and  C_2
REMARK    2  A    between atoms: C_3  and  C_4
REMARK    3  A    between atoms: C_4  and  C_5
REMARK    4  A    between atoms: C_5  and  N_6
REMARK    5  A    between atoms: C_9  and  C_12
REMARK    6  A    between atoms: C_28  and  O_29
REMARK                            x       y       z     vdW  Elec       q    Type
REMARK                         _______ _______ _______ _____ _____    ______ ____
ROOT
ATOM      1  C   UNL     1      -7.524   2.737 127.690  0.00  0.00    +0.000 C 
ENDROOT
BRANCH   1   2
ATOM      2  N   UNL     1      -7.698   3.051 129.131  0.00  0.00    +0.000 NA
ATOM      3  C   UNL     1      -7.388   4.469 129.366  0.00  0.00    +0.000 C 
ATOM      4  C   UNL     1      -7.451   4.870 130.878  0.00  0.00    +0.000 C 
ATOM      5  C   UNL     1      -8.903   4.733 131.582  0.00  0.00    +0.000 C 
ATOM      6  C   UNL     1      -9.219   3.202 131.138  0.00  0.00    +0.000 C 
ATOM      7  C   UNL     1      -9.025   2.751 129.655  0.00  0.00    +0.000 C 
BRANCH   5   8
ATOM      8  C   UNL     1      -9.815   6.118 131.117  0.00  0.00    +0.000 A 
ATOM      9  N   UNL     1     -10.783   6.130 132.026  0.00  0.00    +0.000 NA
ATOM     10  O   UNL     1     -11.722   6.921 131.535  0.00  0.00    +0.000 OA
ATOM     11  C   UNL     1     -11.496   6.979 130.227  0.00  0.00    +0.000 A 
ATOM     12  C   UNL     1     -10.121   7.217 129.886  0.00  0.00    +0.000 A 
ATOM     13  C   UNL     1     -10.573   8.205 128.784  0.00  0.00    +0.000 A 
ATOM     14  C   UNL     1     -11.792   8.212 127.949  0.00  0.00    +0.000 A 
ATOM     15  C   UNL     1     -12.681   7.216 128.182  0.00  0.00    +0.000 A 
ATOM     16  F   UNL     1     -13.766   6.977 127.435  0.00  0.00    +0.000 F 
ATOM     17  C   UNL     1     -12.530   6.585 129.371  0.00  0.00    +0.000 A 
ENDBRANCH   5   8
ENDBRANCH   1   2
BRANCH   1  18
ATOM     18  C   UNL     1      -7.996   3.663 126.562  0.00  0.00    +0.000 C 
BRANCH  18  21
ATOM     19  C   UNL     1      -4.861   4.705 126.518  0.00  0.00    +0.000 C 
ATOM     20  C   UNL     1      -5.748   4.281 125.362  0.00  0.00    +0.000 A 
ATOM     21  C   UNL     1      -7.031   3.856 125.399  0.00  0.00    +0.000 A 
ATOM     22  C   UNL     1      -7.658   3.539 124.074  0.00  0.00    +0.000 A 
ATOM     23  O   UNL     1      -8.824   3.089 124.028  0.00  0.00    +0.000 OA
ATOM     24  N   UNL     1      -6.912   3.752 122.940  0.00  0.00    +0.000 N 
ATOM     25  C   UNL     1      -7.509   3.362 121.662  0.00  0.00    +0.000 C 
ATOM     26  C   UNL     1      -6.771   3.888 120.444  0.00  0.00    +0.000 C 
ATOM     27  C   UNL     1      -5.294   3.564 120.596  0.00  0.00    +0.000 C 
ATOM     28  C   UNL     1      -4.745   4.315 121.797  0.00  0.00    +0.000 C 
ATOM     29  C   UNL     1      -5.598   4.126 123.062  0.00  0.00    +0.000 A 
ATOM     30  N   UNL     1      -5.038   4.388 124.193  0.00  0.00    +0.000 NA
BRANCH  28  31
ATOM     31  O   UNL     1      -4.606   5.695 121.467  0.00  0.00    +0.000 OA
ATOM     32  H   UNL     1      -3.991   5.772 120.719  0.00  0.00    +0.000 HD
ENDBRANCH  28  31
ENDBRANCH  18  21
ENDBRANCH   1  18
TORSDOF 5
ENDMDL
MODEL 2
REMARK VINA RESULT:      -9.7      3.158      4.086
REMARK  Name = Paliperidone
REMARK  6 active torsions:
REMARK  status: ('A' for Active; 'I' for Inactive)
REMARK    1  A    between atoms: C_1  and  C_2
REMARK    2  A    between atoms: C_3  and  C_4
REMARK    3  A    between atoms: C_4  and  C_5
REMARK    4  A    between atoms: C_5  and  N_6
REMARK    5  A    between atoms: C_9  and  C_12
REMARK    6  A    between atoms: C_28  and  O_29
REMARK                            x       y       z     vdW  Elec       q    Type
REMARK                         _______ _______ _______ _____ _____    ______ ____
ROOT
ATOM      1  C   UNL     1      -8.703   1.923 128.811  0.00  0.00    +0.000 C 
ENDROOT
BRANCH   1   2
ATOM      2  N   UNL     1      -8.456   2.723 130.037  0.00  0.00    +0.000 NA
ATOM      3  C   UNL     1      -8.050   4.086 129.662  0.00  0.00    +0.000 C 
ATOM      4  C   UNL     1      -7.674   4.976 130.892  0.00  0.00    +0.000 C 
ATOM      5  C   UNL     1      -8.873   5.270 131.940  0.00  0.00    +0.000 C 
ATOM      6  C   UNL     1      -9.347   3.733 132.170  0.00  0.00    +0.000 C 
ATOM      7  C   UNL     1      -9.591   2.789 130.950  0.00  0.00    +0.000 C 
BRANCH   5   8
ATOM      8  C   UNL     1      -9.838   6.522 131.255  0.00  0.00    +0.000 A 
ATOM      9  N   UNL     1     -10.862   6.576 132.099  0.00  0.00    +0.000 NA
ATOM     10  O   UNL     1     -11.814   7.235 131.460  0.00  0.00    +0.000 OA
ATOM     11  C   UNL     1     -11.507   7.152 130.171  0.00  0.00    +0.000 A 
ATOM     12  C   UNL     1     -10.130   7.442 129.883  0.00  0.00    +0.000 A 
ATOM     13  C   UNL     1     -10.569   8.257 128.642  0.00  0.00    +0.000 A 
ATOM     14  C   UNL     1     -11.729   8.079 127.744  0.00  0.00    +0.000 A 
ATOM     15  C   UNL     1     -12.568   7.058 128.047  0.00  0.00    +0.000 A 
ATOM     16  F   UNL     1     -13.584   6.656 127.274  0.00  0.00    +0.000 F 
ATOM     17  C   UNL     1     -12.455   6.586 129.312  0.00  0.00    +0.000 A 
ENDBRANCH   5   8
ENDBRANCH   1   2
BRANCH   1  18
ATOM     18  C   UNL     1      -7.622   1.078 128.122  0.00  0.00    +0.000 C 
BRANCH  18  21
ATOM     19  C   UNL     1      -7.882   2.804 125.316  0.00  0.00    +0.000 C 
ATOM     20  C   UNL     1      -8.037   1.311 125.543  0.00  0.00    +0.000 A 
ATOM     21  C   UNL     1      -7.927   0.621 126.700  0.00  0.00    +0.000 A 
ATOM     22  C   UNL     1      -8.171  -0.856 126.613  0.00  0.00    +0.000 A 
ATOM     23  O   UNL     1      -8.035  -1.572 127.629  0.00  0.00    +0.000 OA
ATOM     24  N   UNL     1      -8.536  -1.377 125.395  0.00  0.00    +0.000 N 
ATOM     25  C   UNL     1      -8.692  -2.830 125.308  0.00  0.00    +0.000 C 
ATOM     26  C   UNL     1      -9.372  -3.308 124.038  0.00  0.00    +0.000 C 
ATOM     27  C   UNL     1      -8.688  -2.656 122.848  0.00  0.00    +0.000 C 
ATOM     28  C   UNL     1      -8.901  -1.153 122.918  0.00  0.00    +0.000 C 
ATOM     29  C   UNL     1      -8.544  -0.562 124.291  0.00  0.00    +0.000 A 
ATOM     30  N   UNL     1      -8.322   0.706 124.345  0.00  0.00    +0.000 NA
BRANCH  28  31
ATOM     31  O   UNL     1     -10.245  -0.850 122.556  0.00  0.00    +0.000 OA
ATOM     32  H   UNL     1     -10.488   0.002 122.954  0.00  0.00    +0.000 HD
ENDBRANCH  28  31
ENDBRANCH  18  21
ENDBRANCH   1  18
TORSDOF 5
ENDMDL
MODEL 3
REMARK VINA RESULT:      -9.7      3.447      4.520
REMARK  Name = Paliperidone
REMARK  6 active torsions:
REMARK  status: ('A' for Active; 'I' for Inactive)
REMARK    1  A    between atoms: C_1  and  C_2
REMARK    2  A    between atoms: C_3  and  C_4
REMARK    3  A    between atoms: C_4  and  C_5
REMARK    4  A    between atoms: C_5  and  N_6
REMARK    5  A    between atoms: C_9  and  C_12
REMARK    6  A    between atoms: C_28  and  O_29
REMARK                            x       y       z     vdW  Elec       q    Type
REMARK                         _______ _______ _______ _____ _____    ______ ____
ROOT
ATOM      1  C   UNL     1      -8.608   1.955 128.619  0.00  0.00    +0.000 C 
ENDROOT
BRANCH   1   2
ATOM      2  N   UNL     1      -8.406   2.703 129.886  0.00  0.00    +0.000 NA
ATOM      3  C   UNL     1      -7.979   4.078 129.583  0.00  0.00    +0.000 C 
ATOM      4  C   UNL     1      -7.648   4.915 130.863  0.00  0.00    +0.000 C 
ATOM      5  C   UNL     1      -8.887   5.175 131.873  0.00  0.00    +0.000 C 
ATOM      6  C   UNL     1      -9.377   3.632 132.021  0.00  0.00    +0.000 C 
ATOM      7  C   UNL     1      -9.577   2.740 130.755  0.00  0.00    +0.000 C 
BRANCH   5   8
ATOM      8  C   UNL     1      -9.817   6.460 131.202  0.00  0.00    +0.000 A 
ATOM      9  N   UNL     1     -10.843   6.528 132.043  0.00  0.00    +0.000 NA
ATOM     10  O   UNL     1     -11.776   7.218 131.410  0.00  0.00    +0.000 OA
ATOM     11  C   UNL     1     -11.466   7.145 130.120  0.00  0.00    +0.000 A 
ATOM     12  C   UNL     1     -10.081   7.404 129.841  0.00  0.00    +0.000 A 
ATOM     13  C   UNL     1     -10.496   8.246 128.610  0.00  0.00    +0.000 A 
ATOM     14  C   UNL     1     -11.656   8.109 127.705  0.00  0.00    +0.000 A 
ATOM     15  C   UNL     1     -12.522   7.106 127.993  0.00  0.00    +0.000 A 
ATOM     16  F   UNL     1     -13.545   6.740 127.211  0.00  0.00    +0.000 F 
ATOM     17  C   UNL     1     -12.426   6.615 129.251  0.00  0.00    +0.000 A 
ENDBRANCH   5   8
ENDBRANCH   1   2
BRANCH   1  18
ATOM     18  C   UNL     1      -7.466   1.281 127.847  0.00  0.00    +0.000 C 
BRANCH  18  21
ATOM     19  C   UNL     1      -7.601  -1.800 129.033  0.00  0.00    +0.000 C 
ATOM     20  C   UNL     1      -7.863  -1.302 127.624  0.00  0.00    +0.000 A 
ATOM     21  C   UNL     1      -7.804  -0.035 127.156  0.00  0.00    +0.000 A 
ATOM     22  C   UNL     1      -8.084   0.140 125.693  0.00  0.00    +0.000 A 
ATOM     23  O   UNL     1      -8.102   1.288 125.195  0.00  0.00    +0.000 OA
ATOM     24  N   UNL     1      -8.322  -0.986 124.943  0.00  0.00    +0.000 N 
ATOM     25  C   UNL     1      -8.674  -0.791 123.536  0.00  0.00    +0.000 C 
ATOM     26  C   UNL     1      -8.633  -2.060 122.703  0.00  0.00    +0.000 C 
ATOM     27  C   UNL     1      -9.423  -3.139 123.427  0.00  0.00    +0.000 C 
ATOM     28  C   UNL     1      -8.733  -3.458 124.742  0.00  0.00    +0.000 C 
ATOM     29  C   UNL     1      -8.415  -2.202 125.570  0.00  0.00    +0.000 A 
ATOM     30  N   UNL     1      -8.192  -2.370 126.829  0.00  0.00    +0.000 NA
BRANCH  28  31
ATOM     31  O   UNL     1      -7.557  -4.221 124.485  0.00  0.00    +0.000 OA
ATOM     32  H   UNL     1      -7.334  -4.724 125.285  0.00  0.00    +0.000 HD
ENDBRANCH  28  31
ENDBRANCH  18  21
ENDBRANCH   1  18
TORSDOF 5
ENDMDL
MODEL 4
REMARK VINA RESULT:      -9.6      4.880      8.823
REMARK  Name = Paliperidone
REMARK  6 active torsions:
REMARK  status: ('A' for Active; 'I' for Inactive)
REMARK    1  A    between atoms: C_1  and  C_2
REMARK    2  A    between atoms: C_3  and  C_4
REMARK    3  A    between atoms: C_4  and  C_5
REMARK    4  A    between atoms: C_5  and  N_6
REMARK    5  A    between atoms: C_9  and  C_12
REMARK    6  A    between atoms: C_28  and  O_29
REMARK                            x       y       z     vdW  Elec       q    Type
REMARK                         _______ _______ _______ _____ _____    ______ ____
ROOT
ATOM      1  C   UNL     1      -5.483   3.585 125.202  0.00  0.00    +0.000 C 
ENDROOT
BRANCH   1   2
ATOM      2  N   UNL     1      -6.835   3.463 124.601  0.00  0.00    +0.000 NA
ATOM      3  C   UNL     1      -6.736   2.772 123.306  0.00  0.00    +0.000 C 
ATOM      4  C   UNL     1      -8.104   2.683 122.552  0.00  0.00    +0.000 C 
ATOM      5  C   UNL     1      -9.261   1.825 123.291  0.00  0.00    +0.000 C 
ATOM      6  C   UNL     1      -9.184   2.554 124.741  0.00  0.00    +0.000 C 
ATOM      7  C   UNL     1      -7.807   2.776 125.444  0.00  0.00    +0.000 C 
BRANCH   5   8
ATOM      8  C   UNL     1      -8.919   0.164 122.989  0.00  0.00    +0.000 A 
ATOM      9  N   UNL     1     -10.117  -0.311 122.665  0.00  0.00    +0.000 NA
ATOM     10  O   UNL     1     -10.021  -1.625 122.779  0.00  0.00    +0.000 OA
ATOM     11  C   UNL     1      -8.972  -1.843 123.563  0.00  0.00    +0.000 A 
ATOM     12  C   UNL     1      -7.810  -1.077 123.205  0.00  0.00    +0.000 A 
ATOM     13  C   UNL     1      -6.923  -2.320 123.454  0.00  0.00    +0.000 A 
ATOM     14  C   UNL     1      -7.089  -3.438 124.406  0.00  0.00    +0.000 A 
ATOM     15  C   UNL     1      -8.200  -3.400 125.183  0.00  0.00    +0.000 A 
ATOM     16  F   UNL     1      -8.447  -4.241 126.194  0.00  0.00    +0.000 F 
ATOM     17  C   UNL     1      -9.179  -2.578 124.736  0.00  0.00    +0.000 A 
ENDBRANCH   5   8
ENDBRANCH   1   2
BRANCH   1  18
ATOM     18  C   UNL     1      -5.108   2.989 126.566  0.00  0.00    +0.000 C 
BRANCH  18  21
ATOM     19  C   UNL     1      -1.829   3.327 126.786  0.00  0.00    +0.000 C 
ATOM     20  C   UNL     1      -2.921   4.018 127.581  0.00  0.00    +0.000 A 
ATOM     21  C   UNL     1      -4.260   3.868 127.477  0.00  0.00    +0.000 A 
ATOM     22  C   UNL     1      -5.089   4.671 128.434  0.00  0.00    +0.000 A 
ATOM     23  O   UNL     1      -6.337   4.628 128.365  0.00  0.00    +0.000 OA
ATOM     24  N   UNL     1      -4.434   5.443 129.363  0.00  0.00    +0.000 N 
ATOM     25  C   UNL     1      -5.257   6.282 130.236  0.00  0.00    +0.000 C 
ATOM     26  C   UNL     1      -4.508   6.874 131.417  0.00  0.00    +0.000 C 
ATOM     27  C   UNL     1      -3.233   7.523 130.905  0.00  0.00    +0.000 C 
ATOM     28  C   UNL     1      -2.336   6.451 130.311  0.00  0.00    +0.000 C 
ATOM     29  C   UNL     1      -3.068   5.547 129.306  0.00  0.00    +0.000 A 
ATOM     30  N   UNL     1      -2.340   4.876 128.481  0.00  0.00    +0.000 NA
BRANCH  28  31
ATOM     31  O   UNL     1      -1.752   5.689 131.365  0.00  0.00    +0.000 OA
ATOM     32  H   UNL     1      -0.963   6.156 131.683  0.00  0.00    +0.000 HD
ENDBRANCH  28  31
ENDBRANCH  18  21
ENDBRANCH   1  18
TORSDOF 5
ENDMDL
MODEL 5
REMARK VINA RESULT:      -9.5      3.880      7.923
REMARK  Name = Paliperidone
REMARK  6 active torsions:
REMARK  status: ('A' for Active; 'I' for Inactive)
REMARK    1  A    between atoms: C_1  and  C_2
REMARK    2  A    between atoms: C_3  and  C_4
REMARK    3  A    between atoms: C_4  and  C_5
REMARK    4  A    between atoms: C_5  and  N_6
REMARK    5  A    between atoms: C_9  and  C_12
REMARK    6  A    between atoms: C_28  and  O_29
REMARK                            x       y       z     vdW  Elec       q    Type
REMARK                         _______ _______ _______ _____ _____    ______ ____
ROOT
ATOM      1  C   UNL     1      -7.598   4.211 131.965  0.00  0.00    +0.000 C 
ENDROOT
BRANCH   1   2
ATOM      2  N   UNL     1      -6.295   4.899 132.143  0.00  0.00    +0.000 NA
ATOM      3  C   UNL     1      -5.230   4.106 131.511  0.00  0.00    +0.000 C 
ATOM      4  C   UNL     1      -3.802   4.706 131.733  0.00  0.00    +0.000 C 
ATOM      5  C   UNL     1      -3.545   6.169 131.087  0.00  0.00    +0.000 C 
ATOM      6  C   UNL     1      -4.844   6.917 131.715  0.00  0.00    +0.000 C 
ATOM      7  C   UNL     1      -6.258   6.261 131.624  0.00  0.00    +0.000 C 
BRANCH   5   8
ATOM      8  C   UNL     1      -3.246   5.927 129.408  0.00  0.00    +0.000 A 
ATOM      9  N   UNL     1      -3.968   6.895 128.855  0.00  0.00    +0.000 NA
ATOM     10  O   UNL     1      -4.095   6.561 127.582  0.00  0.00    +0.000 OA
ATOM     11  C   UNL     1      -3.852   5.256 127.526  0.00  0.00    +0.000 A 
ATOM     12  C   UNL     1      -2.679   4.852 128.250  0.00  0.00    +0.000 A 
ATOM     13  C   UNL     1      -2.299   3.903 127.089  0.00  0.00    +0.000 A 
ATOM     14  C   UNL     1      -3.156   3.157 126.144  0.00  0.00    +0.000 A 
ATOM     15  C   UNL     1      -4.493   3.336 126.282  0.00  0.00    +0.000 A 
ATOM     16  F   UNL     1      -5.424   2.641 125.618  0.00  0.00    +0.000 F 
ATOM     17  C   UNL     1      -4.850   4.432 126.993  0.00  0.00    +0.000 A 
ENDBRANCH   5   8
ENDBRANCH   1   2
BRANCH   1  18
ATOM     18  C   UNL     1      -8.952   4.909 132.148  0.00  0.00    +0.000 C 
BRANCH  18  21
ATOM     19  C   UNL     1      -8.170   4.546 128.958  0.00  0.00    +0.000 C 
ATOM     20  C   UNL     1      -9.260   5.393 129.589  0.00  0.00    +0.000 A 
ATOM     21  C   UNL     1      -9.566   5.529 130.898  0.00  0.00    +0.000 A 
ATOM     22  C   UNL     1     -10.685   6.475 131.218  0.00  0.00    +0.000 A 
ATOM     23  O   UNL     1     -11.064   6.615 132.401  0.00  0.00    +0.000 OA
ATOM     24  N   UNL     1     -11.267   7.160 130.178  0.00  0.00    +0.000 N 
ATOM     25  C   UNL     1     -12.409   8.018 130.497  0.00  0.00    +0.000 C 
ATOM     26  C   UNL     1     -12.812   8.960 129.377  0.00  0.00    +0.000 C 
ATOM     27  C   UNL     1     -12.941   8.157 128.092  0.00  0.00    +0.000 C 
ATOM     28  C   UNL     1     -11.579   7.596 127.722  0.00  0.00    +0.000 C 
ATOM     29  C   UNL     1     -10.893   6.869 128.891  0.00  0.00    +0.000 A 
ATOM     30  N   UNL     1      -9.944   6.048 128.596  0.00  0.00    +0.000 NA
BRANCH  28  31
ATOM     31  O   UNL     1     -10.760   8.645 127.211  0.00  0.00    +0.000 OA
ATOM     32  H   UNL     1      -9.998   8.757 127.803  0.00  0.00    +0.000 HD
ENDBRANCH  28  31
ENDBRANCH  18  21
ENDBRANCH   1  18
TORSDOF 5
ENDMDL
MODEL 6
REMARK VINA RESULT:      -9.4      5.622      8.089
REMARK  Name = Paliperidone
REMARK  6 active torsions:
REMARK  status: ('A' for Active; 'I' for Inactive)
REMARK    1  A    between atoms: C_1  and  C_2
REMARK    2  A    between atoms: C_3  and  C_4
REMARK    3  A    between atoms: C_4  and  C_5
REMARK    4  A    between atoms: C_5  and  N_6
REMARK    5  A    between atoms: C_9  and  C_12
REMARK    6  A    between atoms: C_28  and  O_29
REMARK                            x       y       z     vdW  Elec       q    Type
REMARK                         _______ _______ _______ _____ _____    ______ ____
ROOT
ATOM      1  C   UNL     1      -8.944   4.500 133.442  0.00  0.00    +0.000 C 
ENDROOT
BRANCH   1   2
ATOM      2  N   UNL     1      -7.789   4.257 134.342  0.00  0.00    +0.000 NA
ATOM      3  C   UNL     1      -6.765   3.479 133.629  0.00  0.00    +0.000 C 
ATOM      4  C   UNL     1      -5.547   3.092 134.531  0.00  0.00    +0.000 C 
ATOM      5  C   UNL     1      -4.674   4.329 135.105  0.00  0.00    +0.000 C 
ATOM      6  C   UNL     1      -5.900   5.193 135.729  0.00  0.00    +0.000 C 
ATOM      7  C   UNL     1      -7.185   5.469 134.885  0.00  0.00    +0.000 C 
BRANCH   5   8
ATOM      8  C   UNL     1      -3.638   4.842 133.827  0.00  0.00    +0.000 A 
ATOM      9  N   UNL     1      -2.798   5.654 134.460  0.00  0.00    +0.000 NA
ATOM     10  O   UNL     1      -2.214   6.369 133.515  0.00  0.00    +0.000 OA
ATOM     11  C   UNL     1      -3.012   6.287 132.456  0.00  0.00    +0.000 A 
ATOM     12  C   UNL     1      -3.452   4.951 132.163  0.00  0.00    +0.000 A 
ATOM     13  C   UNL     1      -3.230   5.217 130.655  0.00  0.00    +0.000 A 
ATOM     14  C   UNL     1      -3.350   6.467 129.877  0.00  0.00    +0.000 A 
ATOM     15  C   UNL     1      -3.687   7.577 130.579  0.00  0.00    +0.000 A 
ATOM     16  F   UNL     1      -3.980   8.762 130.030  0.00  0.00    +0.000 F 
ATOM     17  C   UNL     1      -3.501   7.482 131.917  0.00  0.00    +0.000 A 
ENDBRANCH   5   8
ENDBRANCH   1   2
BRANCH   1  18
ATOM     18  C   UNL     1      -9.577   5.882 133.236  0.00  0.00    +0.000 C 
BRANCH  18  21
ATOM     19  C   UNL     1      -7.304   6.734 130.994  0.00  0.00    +0.000 C 
ATOM     20  C   UNL     1      -8.816   6.697 130.862  0.00  0.00    +0.000 A 
ATOM     21  C   UNL     1      -9.732   6.345 131.792  0.00  0.00    +0.000 A 
ATOM     22  C   UNL     1     -11.168   6.444 131.372  0.00  0.00    +0.000 A 
ATOM     23  O   UNL     1     -12.073   6.085 132.157  0.00  0.00    +0.000 OA
ATOM     24  N   UNL     1     -11.440   6.929 130.115  0.00  0.00    +0.000 N 
ATOM     25  C   UNL     1     -12.841   6.944 129.692  0.00  0.00    +0.000 C 
ATOM     26  C   UNL     1     -13.102   7.752 128.434  0.00  0.00    +0.000 C 
ATOM     27  C   UNL     1     -12.106   7.324 127.368  0.00  0.00    +0.000 C 
ATOM     28  C   UNL     1     -10.704   7.679 127.832  0.00  0.00    +0.000 C 
ATOM     29  C   UNL     1     -10.402   7.187 129.257  0.00  0.00    +0.000 A 
ATOM     30  N   UNL     1      -9.162   7.092 129.595  0.00  0.00    +0.000 NA
BRANCH  28  31
ATOM     31  O   UNL     1     -10.513   9.087 127.719  0.00  0.00    +0.000 OA
ATOM     32  H   UNL     1      -9.869   9.255 127.011  0.00  0.00    +0.000 HD
ENDBRANCH  28  31
ENDBRANCH  18  21
ENDBRANCH   1  18
TORSDOF 5
ENDMDL
MODEL 7
REMARK VINA RESULT:      -9.0      4.111      9.153
REMARK  Name = Paliperidone
REMARK  6 active torsions:
REMARK  status: ('A' for Active; 'I' for Inactive)
REMARK    1  A    between atoms: C_1  and  C_2
REMARK    2  A    between atoms: C_3  and  C_4
REMARK    3  A    between atoms: C_4  and  C_5
REMARK    4  A    between atoms: C_5  and  N_6
REMARK    5  A    between atoms: C_9  and  C_12
REMARK    6  A    between atoms: C_28  and  O_29
REMARK                            x       y       z     vdW  Elec       q    Type
REMARK                         _______ _______ _______ _____ _____    ______ ____
ROOT
ATOM      1  C   UNL     1      -8.172   3.368 128.659  0.00  0.00    +0.000 C 
ENDROOT
BRANCH   1   2
ATOM      2  N   UNL     1      -7.566   2.912 127.383  0.00  0.00    +0.000 NA
ATOM      3  C   UNL     1      -6.358   2.122 127.666  0.00  0.00    +0.000 C 
ATOM      4  C   UNL     1      -5.596   1.678 126.373  0.00  0.00    +0.000 C 
ATOM      5  C   UNL     1      -6.408   0.687 125.383  0.00  0.00    +0.000 C 
ATOM      6  C   UNL     1      -7.769   1.567 125.258  0.00  0.00    +0.000 C 
ATOM      7  C   UNL     1      -8.464   2.136 126.535  0.00  0.00    +0.000 C 
BRANCH   5   8
ATOM      8  C   UNL     1      -6.298  -0.893 126.060  0.00  0.00    +0.000 A 
ATOM      9  N   UNL     1      -6.349  -1.662 124.979  0.00  0.00    +0.000 NA
ATOM     10  O   UNL     1      -6.642  -2.874 125.418  0.00  0.00    +0.000 OA
ATOM     11  C   UNL     1      -7.178  -2.701 126.621  0.00  0.00    +0.000 A 
ATOM     12  C   UNL     1      -6.437  -1.804 127.463  0.00  0.00    +0.000 A 
ATOM     13  C   UNL     1      -6.659  -2.757 128.662  0.00  0.00    +0.000 A 
ATOM     14  C   UNL     1      -7.787  -3.660 128.968  0.00  0.00    +0.000 A 
ATOM     15  C   UNL     1      -8.791  -3.692 128.057  0.00  0.00    +0.000 A 
ATOM     16  F   UNL     1      -9.952  -4.335 128.229  0.00  0.00    +0.000 F 
ATOM     17  C   UNL     1      -8.467  -3.202 126.836  0.00  0.00    +0.000 A 
ENDBRANCH   5   8
ENDBRANCH   1   2
BRANCH   1  18
ATOM     18  C   UNL     1      -7.809   4.696 129.338  0.00  0.00    +0.000 C 
BRANCH  18  21
ATOM     19  C   UNL     1      -8.837   5.087 132.454  0.00  0.00    +0.000 C 
ATOM     20  C   UNL     1      -9.405   5.674 131.175  0.00  0.00    +0.000 A 
ATOM     21  C   UNL     1      -8.971   5.503 129.906  0.00  0.00    +0.000 A 
ATOM     22  C   UNL     1      -9.768   6.191 128.839  0.00  0.00    +0.000 A 
ATOM     23  O   UNL     1      -9.398   6.126 127.645  0.00  0.00    +0.000 OA
ATOM     24  N   UNL     1     -10.891   6.885 129.219  0.00  0.00    +0.000 N 
ATOM     25  C   UNL     1     -11.611   7.617 128.177  0.00  0.00    +0.000 C 
ATOM     26  C   UNL     1     -12.984   8.110 128.598  0.00  0.00    +0.000 C 
ATOM     27  C   UNL     1     -12.851   8.836 129.927  0.00  0.00    +0.000 C 
ATOM     28  C   UNL     1     -12.398   7.846 130.987  0.00  0.00    +0.000 C 
ATOM     29  C   UNL     1     -11.172   7.026 130.555  0.00  0.00    +0.000 A 
ATOM     30  N   UNL     1     -10.489   6.454 131.487  0.00  0.00    +0.000 NA
BRANCH  28  31
ATOM     31  O   UNL     1     -13.490   7.000 131.339  0.00  0.00    +0.000 OA
ATOM     32  H   UNL     1     -13.265   6.530 132.158  0.00  0.00    +0.000 HD
ENDBRANCH  28  31
ENDBRANCH  18  21
ENDBRANCH   1  18
TORSDOF 5
ENDMDL
MODEL 8
REMARK VINA RESULT:      -8.8      4.491      8.830
REMARK  Name = Paliperidone
REMARK  6 active torsions:
REMARK  status: ('A' for Active; 'I' for Inactive)
REMARK    1  A    between atoms: C_1  and  C_2
REMARK    2  A    between atoms: C_3  and  C_4
REMARK    3  A    between atoms: C_4  and  C_5
REMARK    4  A    between atoms: C_5  and  N_6
REMARK    5  A    between atoms: C_9  and  C_12
REMARK    6  A    between atoms: C_28  and  O_29
REMARK                            x       y       z     vdW  Elec       q    Type
REMARK                         _______ _______ _______ _____ _____    ______ ____
ROOT
ATOM      1  C   UNL     1      -5.471   3.555 125.151  0.00  0.00    +0.000 C 
ENDROOT
BRANCH   1   2
ATOM      2  N   UNL     1      -6.834   3.432 124.573  0.00  0.00    +0.000 NA
ATOM      3  C   UNL     1      -6.757   2.743 123.276  0.00  0.00    +0.000 C 
ATOM      4  C   UNL     1      -8.138   2.653 122.545  0.00  0.00    +0.000 C 
ATOM      5  C   UNL     1      -9.280   1.791 123.304  0.00  0.00    +0.000 C 
ATOM      6  C   UNL     1      -9.179   2.519 124.753  0.00  0.00    +0.000 C 
ATOM      7  C   UNL     1      -7.790   2.742 125.432  0.00  0.00    +0.000 C 
BRANCH   5   8
ATOM      8  C   UNL     1      -8.941   0.131 122.992  0.00  0.00    +0.000 A 
ATOM      9  N   UNL     1     -10.140  -0.341 122.668  0.00  0.00    +0.000 NA
ATOM     10  O   UNL     1     -10.045  -1.655 122.776  0.00  0.00    +0.000 OA
ATOM     11  C   UNL     1      -8.995  -1.878 123.558  0.00  0.00    +0.000 A 
ATOM     12  C   UNL     1      -7.833  -1.111 123.201  0.00  0.00    +0.000 A 
ATOM     13  C   UNL     1      -6.947  -2.357 123.442  0.00  0.00    +0.000 A 
ATOM     14  C   UNL     1      -7.112  -3.479 124.389  0.00  0.00    +0.000 A 
ATOM     15  C   UNL     1      -8.221  -3.444 125.168  0.00  0.00    +0.000 A 
ATOM     16  F   UNL     1      -8.468  -4.290 126.176  0.00  0.00    +0.000 F 
ATOM     17  C   UNL     1      -9.200  -2.618 124.726  0.00  0.00    +0.000 A 
ENDBRANCH   5   8
ENDBRANCH   1   2
BRANCH   1  18
ATOM     18  C   UNL     1      -5.064   2.932 126.493  0.00  0.00    +0.000 C 
BRANCH  18  21
ATOM     19  C   UNL     1      -7.399   2.753 128.824  0.00  0.00    +0.000 C 
ATOM     20  C   UNL     1      -6.245   3.730 128.695  0.00  0.00    +0.000 A 
ATOM     21  C   UNL     1      -5.297   3.788 127.732  0.00  0.00    +0.000 A 
ATOM     22  C   UNL     1      -4.298   4.899 127.859  0.00  0.00    +0.000 A 
ATOM     23  O   UNL     1      -3.358   4.988 127.038  0.00  0.00    +0.000 OA
ATOM     24  N   UNL     1      -4.451   5.789 128.894  0.00  0.00    +0.000 N 
ATOM     25  C   UNL     1      -3.423   6.819 129.050  0.00  0.00    +0.000 C 
ATOM     26  C   UNL     1      -3.798   7.932 130.011  0.00  0.00    +0.000 C 
ATOM     27  C   UNL     1      -4.295   7.309 131.305  0.00  0.00    +0.000 C 
ATOM     28  C   UNL     1      -5.568   6.529 131.021  0.00  0.00    +0.000 C 
ATOM     29  C   UNL     1      -5.426   5.565 129.833  0.00  0.00    +0.000 A 
ATOM     30  N   UNL     1      -6.284   4.606 129.749  0.00  0.00    +0.000 NA
BRANCH  28  31
ATOM     31  O   UNL     1      -6.644   7.442 130.823  0.00  0.00    +0.000 OA
ATOM     32  H   UNL     1      -6.280   8.340 130.761  0.00  0.00    +0.000 HD
ENDBRANCH  28  31
ENDBRANCH  18  21
ENDBRANCH   1  18
TORSDOF 5
ENDMDL
MODEL 9
REMARK VINA RESULT:      -8.8      4.928      6.980
REMARK  Name = Paliperidone
REMARK  6 active torsions:
REMARK  status: ('A' for Active; 'I' for Inactive)
REMARK    1  A    between atoms: C_1  and  C_2
REMARK    2  A    between atoms: C_3  and  C_4
REMARK    3  A    between atoms: C_4  and  C_5
REMARK    4  A    between atoms: C_5  and  N_6
REMARK    5  A    between atoms: C_9  and  C_12
REMARK    6  A    between atoms: C_28  and  O_29
REMARK                            x       y       z     vdW  Elec       q    Type
REMARK                         _______ _______ _______ _____ _____    ______ ____
ROOT
ATOM      1  C   UNL     1      -6.378   4.250 129.857  0.00  0.00    +0.000 C 
ENDROOT
BRANCH   1   2
ATOM      2  N   UNL     1      -7.399   4.373 130.928  0.00  0.00    +0.000 NA
ATOM      3  C   UNL     1      -7.626   5.795 131.230  0.00  0.00    +0.000 C 
ATOM      4  C   UNL     1      -8.619   6.019 132.419  0.00  0.00    +0.000 C 
ATOM      5  C   UNL     1     -10.131   5.492 132.182  0.00  0.00    +0.000 C 
ATOM      6  C   UNL     1      -9.765   3.981 131.709  0.00  0.00    +0.000 C 
ATOM      7  C   UNL     1      -8.673   3.734 130.621  0.00  0.00    +0.000 C 
BRANCH   5   8
ATOM      8  C   UNL     1     -10.927   6.676 131.217  0.00  0.00    +0.000 A 
ATOM      9  N   UNL     1     -12.181   6.585 131.644  0.00  0.00    +0.000 NA
ATOM     10  O   UNL     1     -12.916   7.178 130.719  0.00  0.00    +0.000 OA
ATOM     11  C   UNL     1     -12.169   7.193 129.620  0.00  0.00    +0.000 A 
ATOM     12  C   UNL     1     -10.819   7.632 129.842  0.00  0.00    +0.000 A 
ATOM     13  C   UNL     1     -10.884   8.462 128.538  0.00  0.00    +0.000 A 
ATOM     14  C   UNL     1     -11.628   8.217 127.284  0.00  0.00    +0.000 A 
ATOM     15  C   UNL     1     -12.402   7.105 127.258  0.00  0.00    +0.000 A 
ATOM     16  F   UNL     1     -13.032   6.644 126.170  0.00  0.00    +0.000 F 
ATOM     17  C   UNL     1     -12.688   6.581 128.474  0.00  0.00    +0.000 A 
ENDBRANCH   5   8
ENDBRANCH   1   2
BRANCH   1  18
ATOM     18  C   UNL     1      -5.329   5.330 129.563  0.00  0.00    +0.000 C 
BRANCH  18  21
ATOM     19  C   UNL     1      -3.510   2.989 131.023  0.00  0.00    +0.000 C 
ATOM     20  C   UNL     1      -3.426   4.498 131.165  0.00  0.00    +0.000 A 
ATOM     21  C   UNL     1      -4.179   5.442 130.558  0.00  0.00    +0.000 A 
ATOM     22  C   UNL     1      -3.878   6.863 130.929  0.00  0.00    +0.000 A 
ATOM     23  O   UNL     1      -4.495   7.798 130.371  0.00  0.00    +0.000 OA
ATOM     24  N   UNL     1      -2.914   7.091 131.882  0.00  0.00    +0.000 N 
ATOM     25  C   UNL     1      -2.576   8.484 132.174  0.00  0.00    +0.000 C 
ATOM     26  C   UNL     1      -1.734   8.672 133.423  0.00  0.00    +0.000 C 
ATOM     27  C   UNL     1      -0.553   7.717 133.358  0.00  0.00    +0.000 C 
ATOM     28  C   UNL     1      -1.070   6.289 133.390  0.00  0.00    +0.000 C 
ATOM     29  C   UNL     1      -2.185   6.033 132.364  0.00  0.00    +0.000 A 
ATOM     30  N   UNL     1      -2.420   4.806 132.044  0.00  0.00    +0.000 NA
BRANCH  28  31
ATOM     31  O   UNL     1      -1.499   5.973 134.712  0.00  0.00    +0.000 OA
ATOM     32  H   UNL     1      -0.715   5.863 135.274  0.00  0.00    +0.000 HD
ENDBRANCH  28  31
ENDBRANCH  18  21
ENDBRANCH   1  18
TORSDOF 5
ENDMDL
