MODEL 1
REMARK VINA RESULT:      -8.6      0.000      0.000
REMARK  Name = Palonosetron
REMARK  1 active torsions:
REMARK  status: ('A' for Active; 'I' for Inactive)
REMARK    1  A    between atoms: N_14  and  C_16
REMARK                            x       y       z     vdW  Elec       q    Type
REMARK                         _______ _______ _______ _____ _____    ______ ____
ROOT
ATOM      1  C   UNL     1      -9.976   3.872 130.522  0.00  0.00    +0.000 C 
ATOM      2  C   UNL     1      -9.304   2.579 130.043  0.00  0.00    +0.000 C 
ATOM      3  C   UNL     1      -9.116   1.523 131.145  0.00  0.00    +0.000 C 
ATOM      4  C   UNL     1      -9.596   1.958 132.533  0.00  0.00    +0.000 C 
ATOM      5  C   UNL     1      -9.123   3.356 132.819  0.00  0.00    +0.000 A 
ATOM      6  C   UNL     1      -9.309   4.314 131.809  0.00  0.00    +0.000 A 
ATOM      7  C   UNL     1      -8.858   5.624 131.994  0.00  0.00    +0.000 A 
ATOM      8  C   UNL     1      -8.258   5.991 133.205  0.00  0.00    +0.000 A 
ATOM      9  C   UNL     1      -8.086   5.036 134.215  0.00  0.00    +0.000 A 
ATOM     10  C   UNL     1      -8.511   3.718 134.020  0.00  0.00    +0.000 A 
ATOM     11  C   UNL     1      -9.030   6.592 130.869  0.00  0.00    +0.000 C 
ATOM     12  O   UNL     1      -8.215   7.488 130.670  0.00  0.00    +0.000 OA
ATOM     13  N   UNL     1     -10.067   6.266 130.003  0.00  0.00    +0.000 N 
ATOM     14  C   UNL     1      -9.896   4.947 129.434  0.00  0.00    +0.000 C 
ENDROOT
BRANCH  13  15
ATOM     15  C   UNL     1     -11.311   7.052 129.781  0.00  0.00    +0.000 C 
ATOM     16  C   UNL     1     -12.433   6.259 129.055  0.00  0.00    +0.000 C 
ATOM     17  N   UNL     1     -12.937   6.955 127.840  0.00  0.00    +0.000 NA
ATOM     18  C   UNL     1     -13.496   8.268 128.218  0.00  0.00    +0.000 C 
ATOM     19  C   UNL     1     -12.448   9.144 128.923  0.00  0.00    +0.000 C 
ATOM     20  C   UNL     1     -11.098   8.387 129.005  0.00  0.00    +0.000 C 
ATOM     21  C   UNL     1     -10.719   8.072 127.552  0.00  0.00    +0.000 C 
ATOM     22  C   UNL     1     -11.794   7.170 126.925  0.00  0.00    +0.000 C 
ENDBRANCH  13  15
TORSDOF 1
ENDMDL
MODEL 2
REMARK VINA RESULT:      -8.3      7.484     10.020
REMARK  Name = Palonosetron
REMARK  1 active torsions:
REMARK  status: ('A' for Active; 'I' for Inactive)
REMARK    1  A    between atoms: N_14  and  C_16
REMARK                            x       y       z     vdW  Elec       q    Type
REMARK                         _______ _______ _______ _____ _____    ______ ____
ROOT
ATOM      1  C   UNL     1      -8.374   2.431 121.963  0.00  0.00    +0.000 C 
ATOM      2  C   UNL     1      -8.875   3.440 120.923  0.00  0.00    +0.000 C 
ATOM      3  C   UNL     1      -7.754   4.149 120.144  0.00  0.00    +0.000 C 
ATOM      4  C   UNL     1      -6.336   3.751 120.565  0.00  0.00    +0.000 C 
ATOM      5  C   UNL     1      -6.238   3.734 122.065  0.00  0.00    +0.000 A 
ATOM      6  C   UNL     1      -7.262   3.077 122.766  0.00  0.00    +0.000 A 
ATOM      7  C   UNL     1      -7.253   3.056 124.163  0.00  0.00    +0.000 A 
ATOM      8  C   UNL     1      -6.200   3.655 124.864  0.00  0.00    +0.000 A 
ATOM      9  C   UNL     1      -5.173   4.298 124.161  0.00  0.00    +0.000 A 
ATOM     10  C   UNL     1      -5.195   4.345 122.763  0.00  0.00    +0.000 A 
ATOM     11  C   UNL     1      -8.394   2.391 124.863  0.00  0.00    +0.000 C 
ATOM     12  O   UNL     1      -8.798   2.797 125.949  0.00  0.00    +0.000 OA
ATOM     13  N   UNL     1      -9.034   1.424 124.098  0.00  0.00    +0.000 N 
ATOM     14  C   UNL     1      -9.531   1.966 122.853  0.00  0.00    +0.000 C 
ENDROOT
BRANCH  13  15
ATOM     15  C   UNL     1      -9.083  -0.037 124.383  0.00  0.00    +0.000 C 
ATOM     16  C   UNL     1      -8.405  -0.438 125.722  0.00  0.00    +0.000 C 
ATOM     17  N   UNL     1      -7.371  -1.495 125.551  0.00  0.00    +0.000 NA
ATOM     18  C   UNL     1      -7.993  -2.709 124.988  0.00  0.00    +0.000 C 
ATOM     19  C   UNL     1      -8.672  -2.421 123.639  0.00  0.00    +0.000 C 
ATOM     20  C   UNL     1      -8.476  -0.930 123.259  0.00  0.00    +0.000 C 
ATOM     21  C   UNL     1      -6.957  -0.719 123.210  0.00  0.00    +0.000 C 
ATOM     22  C   UNL     1      -6.355  -0.995 124.597  0.00  0.00    +0.000 C 
ENDBRANCH  13  15
TORSDOF 1
ENDMDL
MODEL 3
REMARK VINA RESULT:      -8.2      1.915      3.316
REMARK  Name = Palonosetron
REMARK  1 active torsions:
REMARK  status: ('A' for Active; 'I' for Inactive)
REMARK    1  A    between atoms: N_14  and  C_16
REMARK                            x       y       z     vdW  Elec       q    Type
REMARK                         _______ _______ _______ _____ _____    ______ ____
ROOT
ATOM      1  C   UNL     1      -9.021   6.225 131.855  0.00  0.00    +0.000 C 
ATOM      2  C   UNL     1      -8.210   5.999 133.138  0.00  0.00    +0.000 C 
ATOM      3  C   UNL     1      -6.687   6.005 132.928  0.00  0.00    +0.000 C 
ATOM      4  C   UNL     1      -6.245   6.199 131.474  0.00  0.00    +0.000 C 
ATOM      5  C   UNL     1      -7.068   5.324 130.572  0.00  0.00    +0.000 A 
ATOM      6  C   UNL     1      -8.459   5.332 130.766  0.00  0.00    +0.000 A 
ATOM      7  C   UNL     1      -9.280   4.513 129.987  0.00  0.00    +0.000 A 
ATOM      8  C   UNL     1      -8.719   3.714 128.984  0.00  0.00    +0.000 A 
ATOM      9  C   UNL     1      -7.333   3.718 128.785  0.00  0.00    +0.000 A 
ATOM     10  C   UNL     1      -6.506   4.515 129.582  0.00  0.00    +0.000 A 
ATOM     11  C   UNL     1     -10.748   4.517 130.269  0.00  0.00    +0.000 C 
ATOM     12  O   UNL     1     -11.428   3.507 130.118  0.00  0.00    +0.000 OA
ATOM     13  N   UNL     1     -11.199   5.686 130.870  0.00  0.00    +0.000 N 
ATOM     14  C   UNL     1     -10.507   5.955 132.110  0.00  0.00    +0.000 C 
ENDROOT
BRANCH  13  15
ATOM     15  C   UNL     1     -12.145   6.673 130.279  0.00  0.00    +0.000 C 
ATOM     16  C   UNL     1     -12.802   6.197 128.954  0.00  0.00    +0.000 C 
ATOM     17  N   UNL     1     -12.621   7.167 127.840  0.00  0.00    +0.000 NA
ATOM     18  C   UNL     1     -13.240   8.458 128.203  0.00  0.00    +0.000 C 
ATOM     19  C   UNL     1     -12.634   9.029 129.496  0.00  0.00    +0.000 C 
ATOM     20  C   UNL     1     -11.527   8.080 130.022  0.00  0.00    +0.000 C 
ATOM     21  C   UNL     1     -10.500   7.982 128.885  0.00  0.00    +0.000 C 
ATOM     22  C   UNL     1     -11.169   7.375 127.642  0.00  0.00    +0.000 C 
ENDBRANCH  13  15
TORSDOF 1
ENDMDL
MODEL 4
REMARK VINA RESULT:      -8.0      1.806      2.892
REMARK  Name = Palonosetron
REMARK  1 active torsions:
REMARK  status: ('A' for Active; 'I' for Inactive)
REMARK    1  A    between atoms: N_14  and  C_16
REMARK                            x       y       z     vdW  Elec       q    Type
REMARK                         _______ _______ _______ _____ _____    ______ ____
ROOT
ATOM      1  C   UNL     1      -7.615   6.224 130.731  0.00  0.00    +0.000 C 
ATOM      2  C   UNL     1      -6.302   6.929 131.091  0.00  0.00    +0.000 C 
ATOM      3  C   UNL     1      -5.177   5.977 131.532  0.00  0.00    +0.000 C 
ATOM      4  C   UNL     1      -5.573   4.498 131.570  0.00  0.00    +0.000 C 
ATOM      5  C   UNL     1      -6.913   4.347 132.233  0.00  0.00    +0.000 A 
ATOM      6  C   UNL     1      -7.935   5.215 131.817  0.00  0.00    +0.000 A 
ATOM      7  C   UNL     1      -9.195   5.155 132.419  0.00  0.00    +0.000 A 
ATOM      8  C   UNL     1      -9.450   4.200 133.410  0.00  0.00    +0.000 A 
ATOM      9  C   UNL     1      -8.431   3.327 133.813  0.00  0.00    +0.000 A 
ATOM     10  C   UNL     1      -7.162   3.405 133.232  0.00  0.00    +0.000 A 
ATOM     11  C   UNL     1     -10.232   6.137 131.979  0.00  0.00    +0.000 C 
ATOM     12  O   UNL     1     -11.072   6.569 132.762  0.00  0.00    +0.000 OA
ATOM     13  N   UNL     1     -10.033   6.623 130.692  0.00  0.00    +0.000 N 
ATOM     14  C   UNL     1      -8.738   7.250 130.550  0.00  0.00    +0.000 C 
ENDROOT
BRANCH  13  15
ATOM     15  C   UNL     1     -10.923   6.405 129.519  0.00  0.00    +0.000 C 
ATOM     16  C   UNL     1     -10.452   7.134 128.230  0.00  0.00    +0.000 C 
ATOM     17  N   UNL     1     -11.509   8.000 127.639  0.00  0.00    +0.000 NA
ATOM     18  C   UNL     1     -12.680   7.176 127.280  0.00  0.00    +0.000 C 
ATOM     19  C   UNL     1     -13.241   6.430 128.502  0.00  0.00    +0.000 C 
ATOM     20  C   UNL     1     -12.413   6.790 129.763  0.00  0.00    +0.000 C 
ATOM     21  C   UNL     1     -12.525   8.314 129.902  0.00  0.00    +0.000 C 
ATOM     22  C   UNL     1     -11.919   8.988 128.662  0.00  0.00    +0.000 C 
ENDBRANCH  13  15
TORSDOF 1
ENDMDL
MODEL 5
REMARK VINA RESULT:      -7.7      8.324     10.787
REMARK  Name = Palonosetron
REMARK  1 active torsions:
REMARK  status: ('A' for Active; 'I' for Inactive)
REMARK    1  A    between atoms: N_14  and  C_16
REMARK                            x       y       z     vdW  Elec       q    Type
REMARK                         _______ _______ _______ _____ _____    ______ ____
ROOT
ATOM      1  C   UNL     1      -7.968  -3.276 127.506  0.00  0.00    +0.000 C 
ATOM      2  C   UNL     1      -9.143  -3.373 126.525  0.00  0.00    +0.000 C 
ATOM      3  C   UNL     1      -8.725  -3.419 125.045  0.00  0.00    +0.000 C 
ATOM      4  C   UNL     1      -7.215  -3.322 124.808  0.00  0.00    +0.000 C 
ATOM      5  C   UNL     1      -6.635  -2.230 125.662  0.00  0.00    +0.000 A 
ATOM      6  C   UNL     1      -7.016  -2.204 127.014  0.00  0.00    +0.000 A 
ATOM      7  C   UNL     1      -6.544  -1.193 127.856  0.00  0.00    +0.000 A 
ATOM      8  C   UNL     1      -5.657  -0.230 127.361  0.00  0.00    +0.000 A 
ATOM      9  C   UNL     1      -5.268  -0.267 126.016  0.00  0.00    +0.000 A 
ATOM     10  C   UNL     1      -5.762  -1.261 125.165  0.00  0.00    +0.000 A 
ATOM     11  C   UNL     1      -7.024  -1.177 129.271  0.00  0.00    +0.000 C 
ATOM     12  O   UNL     1      -7.179  -0.122 129.879  0.00  0.00    +0.000 OA
ATOM     13  N   UNL     1      -7.430  -2.421 129.739  0.00  0.00    +0.000 N 
ATOM     14  C   UNL     1      -8.480  -2.985 128.921  0.00  0.00    +0.000 C 
ENDROOT
BRANCH  13  15
ATOM     15  C   UNL     1      -6.790  -3.206 130.830  0.00  0.00    +0.000 C 
ATOM     16  C   UNL     1      -5.970  -2.340 131.827  0.00  0.00    +0.000 C 
ATOM     17  N   UNL     1      -4.569  -2.817 131.986  0.00  0.00    +0.000 NA
ATOM     18  C   UNL     1      -4.572  -4.201 132.499  0.00  0.00    +0.000 C 
ATOM     19  C   UNL     1      -5.341  -5.147 131.562  0.00  0.00    +0.000 C 
ATOM     20  C   UNL     1      -5.867  -4.359 130.335  0.00  0.00    +0.000 C 
ATOM     21  C   UNL     1      -4.620  -3.760 129.671  0.00  0.00    +0.000 C 
ATOM     22  C   UNL     1      -3.924  -2.805 130.654  0.00  0.00    +0.000 C 
ENDBRANCH  13  15
TORSDOF 1
ENDMDL
MODEL 6
REMARK VINA RESULT:      -7.7      7.344     10.683
REMARK  Name = Palonosetron
REMARK  1 active torsions:
REMARK  status: ('A' for Active; 'I' for Inactive)
REMARK    1  A    between atoms: N_14  and  C_16
REMARK                            x       y       z     vdW  Elec       q    Type
REMARK                         _______ _______ _______ _____ _____    ______ ____
ROOT
ATOM      1  C   UNL     1      -5.974  -2.224 125.520  0.00  0.00    +0.000 C 
ATOM      2  C   UNL     1      -4.855  -2.972 124.783  0.00  0.00    +0.000 C 
ATOM      3  C   UNL     1      -4.931  -2.866 123.251  0.00  0.00    +0.000 C 
ATOM      4  C   UNL     1      -6.127  -2.065 122.726  0.00  0.00    +0.000 C 
ATOM      5  C   UNL     1      -7.374  -2.476 123.458  0.00  0.00    +0.000 A 
ATOM      6  C   UNL     1      -7.296  -2.561 124.858  0.00  0.00    +0.000 A 
ATOM      7  C   UNL     1      -8.407  -2.974 125.598  0.00  0.00    +0.000 A 
ATOM      8  C   UNL     1      -9.612  -3.263 124.946  0.00  0.00    +0.000 A 
ATOM      9  C   UNL     1      -9.689  -3.164 123.551  0.00  0.00    +0.000 A 
ATOM     10  C   UNL     1      -8.570  -2.779 122.806  0.00  0.00    +0.000 A 
ATOM     11  C   UNL     1      -8.257  -3.101 127.079  0.00  0.00    +0.000 C 
ATOM     12  O   UNL     1      -8.874  -3.954 127.711  0.00  0.00    +0.000 OA
ATOM     13  N   UNL     1      -7.250  -2.304 127.611  0.00  0.00    +0.000 N 
ATOM     14  C   UNL     1      -5.967  -2.588 127.008  0.00  0.00    +0.000 C 
ENDROOT
BRANCH  13  15
ATOM     15  C   UNL     1      -7.430  -1.166 128.554  0.00  0.00    +0.000 C 
ATOM     16  C   UNL     1      -6.148  -0.313 128.759  0.00  0.00    +0.000 C 
ATOM     17  N   UNL     1      -5.774  -0.173 130.193  0.00  0.00    +0.000 NA
ATOM     18  C   UNL     1      -6.869   0.490 130.928  0.00  0.00    +0.000 C 
ATOM     19  C   UNL     1      -8.185  -0.297 130.807  0.00  0.00    +0.000 C 
ATOM     20  C   UNL     1      -7.957  -1.576 129.962  0.00  0.00    +0.000 C 
ATOM     21  C   UNL     1      -6.867  -2.364 130.700  0.00  0.00    +0.000 C 
ATOM     22  C   UNL     1      -5.578  -1.529 130.753  0.00  0.00    +0.000 C 
ENDBRANCH  13  15
TORSDOF 1
ENDMDL
MODEL 7
REMARK VINA RESULT:      -7.5      5.953      8.393
REMARK  Name = Palonosetron
REMARK  1 active torsions:
REMARK  status: ('A' for Active; 'I' for Inactive)
REMARK    1  A    between atoms: N_14  and  C_16
REMARK                            x       y       z     vdW  Elec       q    Type
REMARK                         _______ _______ _______ _____ _____    ______ ____
ROOT
ATOM      1  C   UNL     1      -6.755  -1.566 125.551  0.00  0.00    +0.000 C 
ATOM      2  C   UNL     1      -6.354  -2.652 124.545  0.00  0.00    +0.000 C 
ATOM      3  C   UNL     1      -7.444  -3.707 124.292  0.00  0.00    +0.000 C 
ATOM      4  C   UNL     1      -8.722  -3.512 125.112  0.00  0.00    +0.000 C 
ATOM      5  C   UNL     1      -8.368  -3.206 126.540  0.00  0.00    +0.000 A 
ATOM      6  C   UNL     1      -7.378  -2.235 126.761  0.00  0.00    +0.000 A 
ATOM      7  C   UNL     1      -6.973  -1.929 128.063  0.00  0.00    +0.000 A 
ATOM      8  C   UNL     1      -7.584  -2.563 129.151  0.00  0.00    +0.000 A 
ATOM      9  C   UNL     1      -8.581  -3.523 128.928  0.00  0.00    +0.000 A 
ATOM     10  C   UNL     1      -8.967  -3.850 127.624  0.00  0.00    +0.000 A 
ATOM     11  C   UNL     1      -5.878  -0.928 128.241  0.00  0.00    +0.000 C 
ATOM     12  O   UNL     1      -5.079  -1.018 129.169  0.00  0.00    +0.000 OA
ATOM     13  N   UNL     1      -5.758  -0.034 127.185  0.00  0.00    +0.000 N 
ATOM     14  C   UNL     1      -5.538  -0.715 125.928  0.00  0.00    +0.000 C 
ENDROOT
BRANCH  13  15
ATOM     15  C   UNL     1      -5.991   1.435 127.242  0.00  0.00    +0.000 C 
ATOM     16  C   UNL     1      -6.181   1.985 128.683  0.00  0.00    +0.000 C 
ATOM     17  N   UNL     1      -7.440   2.762 128.842  0.00  0.00    +0.000 NA
ATOM     18  C   UNL     1      -7.428   3.918 127.924  0.00  0.00    +0.000 C 
ATOM     19  C   UNL     1      -7.270   3.474 126.460  0.00  0.00    +0.000 C 
ATOM     20  C   UNL     1      -7.196   1.928 126.385  0.00  0.00    +0.000 C 
ATOM     21  C   UNL     1      -8.503   1.426 127.014  0.00  0.00    +0.000 C 
ATOM     22  C   UNL     1      -8.573   1.881 128.480  0.00  0.00    +0.000 C 
ENDBRANCH  13  15
TORSDOF 1
ENDMDL
MODEL 8
REMARK VINA RESULT:      -7.4      7.054      9.840
REMARK  Name = Palonosetron
REMARK  1 active torsions:
REMARK  status: ('A' for Active; 'I' for Inactive)
REMARK    1  A    between atoms: N_14  and  C_16
REMARK                            x       y       z     vdW  Elec       q    Type
REMARK                         _______ _______ _______ _____ _____    ______ ____
ROOT
ATOM      1  C   UNL     1      -5.613  -2.149 125.469  0.00  0.00    +0.000 C 
ATOM      2  C   UNL     1      -4.676  -3.088 124.699  0.00  0.00    +0.000 C 
ATOM      3  C   UNL     1      -4.977  -3.181 123.194  0.00  0.00    +0.000 C 
ATOM      4  C   UNL     1      -6.178  -2.350 122.732  0.00  0.00    +0.000 C 
ATOM      5  C   UNL     1      -7.325  -2.543 123.684  0.00  0.00    +0.000 A 
ATOM      6  C   UNL     1      -7.041  -2.447 125.056  0.00  0.00    +0.000 A 
ATOM      7  C   UNL     1      -8.053  -2.653 125.998  0.00  0.00    +0.000 A 
ATOM      8  C   UNL     1      -9.361  -2.914 125.571  0.00  0.00    +0.000 A 
ATOM      9  C   UNL     1      -9.643  -2.996 124.201  0.00  0.00    +0.000 A 
ATOM     10  C   UNL     1      -8.626  -2.819 123.258  0.00  0.00    +0.000 A 
ATOM     11  C   UNL     1      -7.688  -2.594 127.446  0.00  0.00    +0.000 C 
ATOM     12  O   UNL     1      -8.261  -3.295 128.275  0.00  0.00    +0.000 OA
ATOM     13  N   UNL     1      -6.558  -1.831 127.708  0.00  0.00    +0.000 N 
ATOM     14  C   UNL     1      -5.405  -2.310 126.978  0.00  0.00    +0.000 C 
ENDROOT
BRANCH  13  15
ATOM     15  C   UNL     1      -6.510  -0.565 128.491  0.00  0.00    +0.000 C 
ATOM     16  C   UNL     1      -7.857  -0.198 129.173  0.00  0.00    +0.000 C 
ATOM     17  N   UNL     1      -8.321   1.174 128.829  0.00  0.00    +0.000 NA
ATOM     18  C   UNL     1      -7.317   2.161 129.271  0.00  0.00    +0.000 C 
ATOM     19  C   UNL     1      -5.946   1.898 128.627  0.00  0.00    +0.000 C 
ATOM     20  C   UNL     1      -6.037   0.676 127.677  0.00  0.00    +0.000 C 
ATOM     21  C   UNL     1      -7.112   1.042 126.644  0.00  0.00    +0.000 C 
ATOM     22  C   UNL     1      -8.456   1.259 127.357  0.00  0.00    +0.000 C 
ENDBRANCH  13  15
TORSDOF 1
ENDMDL
MODEL 9
REMARK VINA RESULT:      -7.4      6.581      8.790
REMARK  Name = Palonosetron
REMARK  1 active torsions:
REMARK  status: ('A' for Active; 'I' for Inactive)
REMARK    1  A    between atoms: N_14  and  C_16
REMARK                            x       y       z     vdW  Elec       q    Type
REMARK                         _______ _______ _______ _____ _____    ______ ____
ROOT
ATOM      1  C   UNL     1      -6.591  -1.496 125.484  0.00  0.00    +0.000 C 
ATOM      2  C   UNL     1      -6.094  -2.611 124.556  0.00  0.00    +0.000 C 
ATOM      3  C   UNL     1      -7.131  -3.716 124.290  0.00  0.00    +0.000 C 
ATOM      4  C   UNL     1      -8.462  -3.530 125.025  0.00  0.00    +0.000 C 
ATOM      5  C   UNL     1      -8.205  -3.147 126.454  0.00  0.00    +0.000 A 
ATOM      6  C   UNL     1      -7.263  -2.131 126.685  0.00  0.00    +0.000 A 
ATOM      7  C   UNL     1      -6.947  -1.751 127.993  0.00  0.00    +0.000 A 
ATOM      8  C   UNL     1      -7.601  -2.357 129.072  0.00  0.00    +0.000 A 
ATOM      9  C   UNL     1      -8.549  -3.361 128.838  0.00  0.00    +0.000 A 
ATOM     10  C   UNL     1      -8.845  -3.762 127.532  0.00  0.00    +0.000 A 
ATOM     11  C   UNL     1      -5.898  -0.704 128.187  0.00  0.00    +0.000 C 
ATOM     12  O   UNL     1      -5.154  -0.722 129.163  0.00  0.00    +0.000 OA
ATOM     13  N   UNL     1      -5.746   0.144 127.097  0.00  0.00    +0.000 N 
ATOM     14  C   UNL     1      -5.428  -0.585 125.889  0.00  0.00    +0.000 C 
ENDROOT
BRANCH  13  15
ATOM     15  C   UNL     1      -6.031   1.605 127.070  0.00  0.00    +0.000 C 
ATOM     16  C   UNL     1      -5.699   2.284 125.712  0.00  0.00    +0.000 C 
ATOM     17  N   UNL     1      -4.790   3.453 125.860  0.00  0.00    +0.000 NA
ATOM     18  C   UNL     1      -5.428   4.470 126.719  0.00  0.00    +0.000 C 
ATOM     19  C   UNL     1      -5.773   3.900 128.105  0.00  0.00    +0.000 C 
ATOM     20  C   UNL     1      -5.321   2.420 128.192  0.00  0.00    +0.000 C 
ATOM     21  C   UNL     1      -3.810   2.439 127.924  0.00  0.00    +0.000 C 
ATOM     22  C   UNL     1      -3.546   2.990 126.514  0.00  0.00    +0.000 C 
ENDBRANCH  13  15
TORSDOF 1
ENDMDL
