MODEL 1
REMARK VINA RESULT:      -8.9      0.000      0.000
REMARK  Name = Palovarotene
REMARK  10 active torsions:
REMARK  status: ('A' for Active; 'I' for Inactive)
REMARK    1  A    between atoms: C_1  and  C_2
REMARK    2  A    between atoms: C_2  and  C_3
REMARK    3  A    between atoms: C_6  and  C_7
REMARK    4  A    between atoms: C_6  and  C_8
REMARK    5  A    between atoms: C_12  and  C_13
REMARK    6  A    between atoms: C_13  and  N_14
REMARK    7  A    between atoms: C_19  and  C_20
REMARK    8  A    between atoms: C_21  and  C_22
REMARK    9  A    between atoms: C_25  and  C_28
REMARK   10  A    between atoms: C_28  and  O_29
REMARK                            x       y       z     vdW  Elec       q    Type
REMARK                         _______ _______ _______ _____ _____    ______ ____
ROOT
ATOM      1  C   UNL     1      -6.175  -3.628 130.080  0.00  0.00    +0.000 C 
ATOM      2  C   UNL     1      -7.326  -2.626 129.815  0.00  0.00    +0.000 C 
ATOM      3  C   UNL     1      -8.567  -3.409 129.301  0.00  0.00    +0.000 C 
ATOM      4  C   UNL     1      -7.782  -1.995 131.129  0.00  0.00    +0.000 C 
ATOM      5  C   UNL     1      -7.219  -0.641 131.487  0.00  0.00    +0.000 C 
ATOM      6  C   UNL     1      -6.923   0.373 130.354  0.00  0.00    +0.000 C 
ATOM      7  C   UNL     1      -5.603   1.059 130.779  0.00  0.00    +0.000 C 
ATOM      8  C   UNL     1      -8.052   1.422 130.341  0.00  0.00    +0.000 C 
ATOM      9  C   UNL     1      -6.743  -0.243 128.975  0.00  0.00    +0.000 A 
ATOM     10  C   UNL     1      -6.884  -1.611 128.779  0.00  0.00    +0.000 A 
ATOM     11  C   UNL     1      -6.558  -2.125 127.529  0.00  0.00    +0.000 A 
ATOM     12  C   UNL     1      -6.196  -1.364 126.419  0.00  0.00    +0.000 A 
ATOM     13  C   UNL     1      -6.109   0.028 126.570  0.00  0.00    +0.000 A 
ATOM     14  C   UNL     1      -6.373   0.561 127.855  0.00  0.00    +0.000 A 
ENDROOT
BRANCH  13  15
ATOM     15  C   UNL     1      -5.744   0.974 125.485  0.00  0.00    +0.000 C 
ATOM     16  C   UNL     1      -6.587   1.797 124.843  0.00  0.00    +0.000 C 
BRANCH  16  17
ATOM     17  C   UNL     1      -6.308   2.701 123.749  0.00  0.00    +0.000 A 
ATOM     18  C   UNL     1      -6.598   2.278 122.444  0.00  0.00    +0.000 A 
ATOM     19  C   UNL     1      -6.165   3.031 121.359  0.00  0.00    +0.000 A 
ATOM     20  C   UNL     1      -5.517   4.251 121.582  0.00  0.00    +0.000 A 
ATOM     21  C   UNL     1      -5.194   4.633 122.898  0.00  0.00    +0.000 A 
ATOM     22  C   UNL     1      -5.571   3.851 123.979  0.00  0.00    +0.000 A 
BRANCH  20  23
ATOM     23  C   UNL     1      -5.192   5.217 120.501  0.00  0.00    +0.000 C 
ATOM     24  O   UNL     1      -4.419   6.151 120.689  0.00  0.00    +0.000 OA
BRANCH  23  25
ATOM     25  O   UNL     1      -5.824   5.052 119.324  0.00  0.00    +0.000 OA
ATOM     26  H   UNL     1      -6.793   5.023 119.321  0.00  0.00    +0.000 HD
ENDBRANCH  23  25
ENDBRANCH  20  23
ENDBRANCH  16  17
ENDBRANCH  13  15
BRANCH  12  27
ATOM     27  C   UNL     1      -5.922  -2.087 125.125  0.00  0.00    +0.000 C 
BRANCH  27  28
ATOM     28  N   UNL     1      -7.042  -2.231 124.207  0.00  0.00    +0.000 N 
ATOM     29  C   UNL     1      -8.153  -3.002 124.406  0.00  0.00    +0.000 A 
ATOM     30  C   UNL     1      -8.871  -2.915 123.241  0.00  0.00    +0.000 A 
ATOM     31  C   UNL     1      -8.160  -1.997 122.447  0.00  0.00    +0.000 A 
ATOM     32  N   UNL     1      -7.048  -1.565 123.040  0.00  0.00    +0.000 NA
ENDBRANCH  27  28
ENDBRANCH  12  27
TORSDOF 6
ENDMDL
MODEL 2
REMARK VINA RESULT:      -8.5      6.088      8.665
REMARK  Name = Palovarotene
REMARK  10 active torsions:
REMARK  status: ('A' for Active; 'I' for Inactive)
REMARK    1  A    between atoms: C_1  and  C_2
REMARK    2  A    between atoms: C_2  and  C_3
REMARK    3  A    between atoms: C_6  and  C_7
REMARK    4  A    between atoms: C_6  and  C_8
REMARK    5  A    between atoms: C_12  and  C_13
REMARK    6  A    between atoms: C_13  and  N_14
REMARK    7  A    between atoms: C_19  and  C_20
REMARK    8  A    between atoms: C_21  and  C_22
REMARK    9  A    between atoms: C_25  and  C_28
REMARK   10  A    between atoms: C_28  and  O_29
REMARK                            x       y       z     vdW  Elec       q    Type
REMARK                         _______ _______ _______ _____ _____    ______ ____
ROOT
ATOM      1  C   UNL     1      -7.553  -1.944 130.009  0.00  0.00    +0.000 C 
ATOM      2  C   UNL     1      -6.731  -0.682 129.647  0.00  0.00    +0.000 C 
ATOM      3  C   UNL     1      -5.576  -0.520 130.675  0.00  0.00    +0.000 C 
ATOM      4  C   UNL     1      -6.031  -0.883 128.305  0.00  0.00    +0.000 C 
ATOM      5  C   UNL     1      -6.699  -0.315 127.075  0.00  0.00    +0.000 C 
ATOM      6  C   UNL     1      -7.494   1.009 127.196  0.00  0.00    +0.000 C 
ATOM      7  C   UNL     1      -8.731   0.807 126.291  0.00  0.00    +0.000 C 
ATOM      8  C   UNL     1      -6.627   2.143 126.615  0.00  0.00    +0.000 C 
ATOM      9  C   UNL     1      -7.956   1.352 128.604  0.00  0.00    +0.000 A 
ATOM     10  C   UNL     1      -7.634   0.535 129.681  0.00  0.00    +0.000 A 
ATOM     11  C   UNL     1      -8.214   0.824 130.911  0.00  0.00    +0.000 A 
ATOM     12  C   UNL     1      -9.017   1.931 131.178  0.00  0.00    +0.000 A 
ATOM     13  C   UNL     1      -9.306   2.810 130.124  0.00  0.00    +0.000 A 
ATOM     14  C   UNL     1      -8.777   2.493 128.849  0.00  0.00    +0.000 A 
ENDROOT
BRANCH  13  15
ATOM     15  C   UNL     1     -10.139   4.034 130.248  0.00  0.00    +0.000 C 
ATOM     16  C   UNL     1      -9.976   5.169 129.551  0.00  0.00    +0.000 C 
BRANCH  16  17
ATOM     17  C   UNL     1     -10.714   6.407 129.659  0.00  0.00    +0.000 A 
ATOM     18  C   UNL     1     -11.754   6.483 130.597  0.00  0.00    +0.000 A 
ATOM     19  C   UNL     1     -12.611   7.578 130.595  0.00  0.00    +0.000 A 
ATOM     20  C   UNL     1     -12.373   8.637 129.711  0.00  0.00    +0.000 A 
ATOM     21  C   UNL     1     -11.353   8.518 128.747  0.00  0.00    +0.000 A 
ATOM     22  C   UNL     1     -10.538   7.398 128.709  0.00  0.00    +0.000 A 
BRANCH  20  23
ATOM     23  C   UNL     1     -13.105   9.928 129.763  0.00  0.00    +0.000 C 
ATOM     24  O   UNL     1     -13.263  10.533 130.820  0.00  0.00    +0.000 OA
BRANCH  23  25
ATOM     25  O   UNL     1     -13.633  10.379 128.610  0.00  0.00    +0.000 OA
ATOM     26  H   UNL     1     -14.271  11.108 128.649  0.00  0.00    +0.000 HD
ENDBRANCH  23  25
ENDBRANCH  20  23
ENDBRANCH  16  17
ENDBRANCH  13  15
BRANCH  12  27
ATOM     27  C   UNL     1      -9.523   2.114 132.586  0.00  0.00    +0.000 C 
BRANCH  27  28
ATOM     28  N   UNL     1      -8.752   2.995 133.450  0.00  0.00    +0.000 N 
ATOM     29  C   UNL     1      -9.226   4.092 134.112  0.00  0.00    +0.000 A 
ATOM     30  C   UNL     1      -8.130   4.665 134.702  0.00  0.00    +0.000 A 
ATOM     31  C   UNL     1      -7.067   3.788 134.416  0.00  0.00    +0.000 A 
ATOM     32  N   UNL     1      -7.447   2.757 133.663  0.00  0.00    +0.000 NA
ENDBRANCH  27  28
ENDBRANCH  12  27
TORSDOF 6
ENDMDL
MODEL 3
REMARK VINA RESULT:      -8.4      5.506      9.752
REMARK  Name = Palovarotene
REMARK  10 active torsions:
REMARK  status: ('A' for Active; 'I' for Inactive)
REMARK    1  A    between atoms: C_1  and  C_2
REMARK    2  A    between atoms: C_2  and  C_3
REMARK    3  A    between atoms: C_6  and  C_7
REMARK    4  A    between atoms: C_6  and  C_8
REMARK    5  A    between atoms: C_12  and  C_13
REMARK    6  A    between atoms: C_13  and  N_14
REMARK    7  A    between atoms: C_19  and  C_20
REMARK    8  A    between atoms: C_21  and  C_22
REMARK    9  A    between atoms: C_25  and  C_28
REMARK   10  A    between atoms: C_28  and  O_29
REMARK                            x       y       z     vdW  Elec       q    Type
REMARK                         _______ _______ _______ _____ _____    ______ ____
ROOT
ATOM      1  C   UNL     1      -7.280   1.295 123.820  0.00  0.00    +0.000 C 
ATOM      2  C   UNL     1      -8.530   0.428 124.109  0.00  0.00    +0.000 C 
ATOM      3  C   UNL     1      -9.759   1.362 124.300  0.00  0.00    +0.000 C 
ATOM      4  C   UNL     1      -8.872  -0.419 122.886  0.00  0.00    +0.000 C 
ATOM      5  C   UNL     1      -8.379  -1.846 122.862  0.00  0.00    +0.000 C 
ATOM      6  C   UNL     1      -8.302  -2.636 124.193  0.00  0.00    +0.000 C 
ATOM      7  C   UNL     1      -7.000  -3.462 124.082  0.00  0.00    +0.000 C 
ATOM      8  C   UNL     1      -9.504  -3.600 124.248  0.00  0.00    +0.000 C 
ATOM      9  C   UNL     1      -8.242  -1.776 125.445  0.00  0.00    +0.000 A 
ATOM     10  C   UNL     1      -8.298  -0.390 125.364  0.00  0.00    +0.000 A 
ATOM     11  C   UNL     1      -8.087   0.337 126.530  0.00  0.00    +0.000 A 
ATOM     12  C   UNL     1      -7.923  -0.214 127.800  0.00  0.00    +0.000 A 
ATOM     13  C   UNL     1      -7.928  -1.610 127.922  0.00  0.00    +0.000 A 
ATOM     14  C   UNL     1      -8.076  -2.367 126.733  0.00  0.00    +0.000 A 
ENDROOT
BRANCH  13  15
ATOM     15  C   UNL     1      -7.772  -2.348 129.202  0.00  0.00    +0.000 C 
ATOM     16  C   UNL     1      -6.632  -2.875 129.671  0.00  0.00    +0.000 C 
BRANCH  16  17
ATOM     17  C   UNL     1      -6.423  -3.645 130.878  0.00  0.00    +0.000 A 
ATOM     18  C   UNL     1      -6.980  -3.172 132.074  0.00  0.00    +0.000 A 
ATOM     19  C   UNL     1      -6.641  -3.770 133.282  0.00  0.00    +0.000 A 
ATOM     20  C   UNL     1      -5.810  -4.897 133.282  0.00  0.00    +0.000 A 
ATOM     21  C   UNL     1      -5.223  -5.325 132.076  0.00  0.00    +0.000 A 
ATOM     22  C   UNL     1      -5.514  -4.689 130.879  0.00  0.00    +0.000 A 
BRANCH  20  23
ATOM     23  C   UNL     1      -5.547  -5.721 134.490  0.00  0.00    +0.000 C 
ATOM     24  O   UNL     1      -4.431  -6.179 134.721  0.00  0.00    +0.000 OA
BRANCH  23  25
ATOM     25  O   UNL     1      -6.596  -5.987 135.289  0.00  0.00    +0.000 OA
ATOM     26  H   UNL     1      -6.747  -6.906 135.561  0.00  0.00    +0.000 HD
ENDBRANCH  23  25
ENDBRANCH  20  23
ENDBRANCH  16  17
ENDBRANCH  13  15
BRANCH  12  27
ATOM     27  C   UNL     1      -7.751   0.730 128.963  0.00  0.00    +0.000 C 
BRANCH  27  28
ATOM     28  N   UNL     1      -6.488   0.659 129.682  0.00  0.00    +0.000 N 
ATOM     29  C   UNL     1      -5.240   0.719 129.127  0.00  0.00    +0.000 A 
ATOM     30  C   UNL     1      -4.369   0.501 130.163  0.00  0.00    +0.000 A 
ATOM     31  C   UNL     1      -5.183   0.418 131.307  0.00  0.00    +0.000 A 
ATOM     32  N   UNL     1      -6.479   0.529 131.019  0.00  0.00    +0.000 NA
ENDBRANCH  27  28
ENDBRANCH  12  27
TORSDOF 6
ENDMDL
MODEL 4
REMARK VINA RESULT:      -8.4      1.614      2.052
REMARK  Name = Palovarotene
REMARK  10 active torsions:
REMARK  status: ('A' for Active; 'I' for Inactive)
REMARK    1  A    between atoms: C_1  and  C_2
REMARK    2  A    between atoms: C_2  and  C_3
REMARK    3  A    between atoms: C_6  and  C_7
REMARK    4  A    between atoms: C_6  and  C_8
REMARK    5  A    between atoms: C_12  and  C_13
REMARK    6  A    between atoms: C_13  and  N_14
REMARK    7  A    between atoms: C_19  and  C_20
REMARK    8  A    between atoms: C_21  and  C_22
REMARK    9  A    between atoms: C_25  and  C_28
REMARK   10  A    between atoms: C_28  and  O_29
REMARK                            x       y       z     vdW  Elec       q    Type
REMARK                         _______ _______ _______ _____ _____    ______ ____
ROOT
ATOM      1  C   UNL     1      -6.118  -3.077 129.282  0.00  0.00    +0.000 C 
ATOM      2  C   UNL     1      -7.443  -2.274 129.303  0.00  0.00    +0.000 C 
ATOM      3  C   UNL     1      -8.637  -3.270 129.312  0.00  0.00    +0.000 C 
ATOM      4  C   UNL     1      -7.567  -1.508 130.618  0.00  0.00    +0.000 C 
ATOM      5  C   UNL     1      -7.151  -0.056 130.624  0.00  0.00    +0.000 C 
ATOM      6  C   UNL     1      -7.389   0.799 129.354  0.00  0.00    +0.000 C 
ATOM      7  C   UNL     1      -6.134   1.696 129.247  0.00  0.00    +0.000 C 
ATOM      8  C   UNL     1      -8.622   1.689 129.600  0.00  0.00    +0.000 C 
ATOM      9  C   UNL     1      -7.545   0.004 128.067  0.00  0.00    +0.000 A 
ATOM     10  C   UNL     1      -7.514  -1.386 128.077  0.00  0.00    +0.000 A 
ATOM     11  C   UNL     1      -7.511  -2.043 126.852  0.00  0.00    +0.000 A 
ATOM     12  C   UNL     1      -7.639  -1.424 125.610  0.00  0.00    +0.000 A 
ATOM     13  C   UNL     1      -7.738  -0.026 125.573  0.00  0.00    +0.000 A 
ATOM     14  C   UNL     1      -7.676   0.664 126.809  0.00  0.00    +0.000 A 
ENDROOT
BRANCH  13  15
ATOM     15  C   UNL     1      -7.886   0.779 124.333  0.00  0.00    +0.000 C 
ATOM     16  C   UNL     1      -6.987   1.649 123.850  0.00  0.00    +0.000 C 
BRANCH  16  17
ATOM     17  C   UNL     1      -7.089   2.498 122.683  0.00  0.00    +0.000 A 
ATOM     18  C   UNL     1      -8.367   2.858 122.232  0.00  0.00    +0.000 A 
ATOM     19  C   UNL     1      -8.514   3.503 121.010  0.00  0.00    +0.000 A 
ATOM     20  C   UNL     1      -7.375   3.864 120.280  0.00  0.00    +0.000 A 
ATOM     21  C   UNL     1      -6.106   3.450 120.728  0.00  0.00    +0.000 A 
ATOM     22  C   UNL     1      -5.964   2.752 121.917  0.00  0.00    +0.000 A 
BRANCH  20  23
ATOM     23  C   UNL     1      -7.416   4.722 119.068  0.00  0.00    +0.000 C 
ATOM     24  O   UNL     1      -6.461   5.425 118.749  0.00  0.00    +0.000 OA
BRANCH  23  25
ATOM     25  O   UNL     1      -8.563   4.735 118.366  0.00  0.00    +0.000 OA
ATOM     26  H   UNL     1      -9.190   4.005 118.493  0.00  0.00    +0.000 HD
ENDBRANCH  23  25
ENDBRANCH  20  23
ENDBRANCH  16  17
ENDBRANCH  13  15
BRANCH  12  27
ATOM     27  C   UNL     1      -7.663  -2.300 124.383  0.00  0.00    +0.000 C 
BRANCH  27  28
ATOM     28  N   UNL     1      -6.424  -2.982 124.041  0.00  0.00    +0.000 N 
ATOM     29  C   UNL     1      -6.108  -4.278 124.341  0.00  0.00    +0.000 A 
ATOM     30  C   UNL     1      -4.812  -4.443 123.925  0.00  0.00    +0.000 A 
ATOM     31  C   UNL     1      -4.474  -3.225 123.305  0.00  0.00    +0.000 A 
ATOM     32  N   UNL     1      -5.463  -2.334 123.361  0.00  0.00    +0.000 NA
ENDBRANCH  27  28
ENDBRANCH  12  27
TORSDOF 6
ENDMDL
MODEL 5
REMARK VINA RESULT:      -8.4      4.554      7.490
REMARK  Name = Palovarotene
REMARK  10 active torsions:
REMARK  status: ('A' for Active; 'I' for Inactive)
REMARK    1  A    between atoms: C_1  and  C_2
REMARK    2  A    between atoms: C_2  and  C_3
REMARK    3  A    between atoms: C_6  and  C_7
REMARK    4  A    between atoms: C_6  and  C_8
REMARK    5  A    between atoms: C_12  and  C_13
REMARK    6  A    between atoms: C_13  and  N_14
REMARK    7  A    between atoms: C_19  and  C_20
REMARK    8  A    between atoms: C_21  and  C_22
REMARK    9  A    between atoms: C_25  and  C_28
REMARK   10  A    between atoms: C_28  and  O_29
REMARK                            x       y       z     vdW  Elec       q    Type
REMARK                         _______ _______ _______ _____ _____    ______ ____
ROOT
ATOM      1  C   UNL     1      -4.884  -2.487 124.262  0.00  0.00    +0.000 C 
ATOM      2  C   UNL     1      -6.396  -2.282 123.993  0.00  0.00    +0.000 C 
ATOM      3  C   UNL     1      -6.584  -1.773 122.536  0.00  0.00    +0.000 C 
ATOM      4  C   UNL     1      -7.119  -3.626 124.030  0.00  0.00    +0.000 C 
ATOM      5  C   UNL     1      -7.807  -4.015 125.317  0.00  0.00    +0.000 C 
ATOM      6  C   UNL     1      -8.457  -2.909 126.185  0.00  0.00    +0.000 C 
ATOM      7  C   UNL     1      -8.148  -3.325 127.643  0.00  0.00    +0.000 C 
ATOM      8  C   UNL     1      -9.981  -2.957 125.962  0.00  0.00    +0.000 C 
ATOM      9  C   UNL     1      -7.920  -1.507 125.942  0.00  0.00    +0.000 A 
ATOM     10  C   UNL     1      -6.951  -1.270 124.975  0.00  0.00    +0.000 A 
ATOM     11  C   UNL     1      -6.398   0.003 124.909  0.00  0.00    +0.000 A 
ATOM     12  C   UNL     1      -6.809   1.096 125.670  0.00  0.00    +0.000 A 
ATOM     13  C   UNL     1      -7.832   0.903 126.609  0.00  0.00    +0.000 A 
ATOM     14  C   UNL     1      -8.361  -0.405 126.735  0.00  0.00    +0.000 A 
ENDROOT
BRANCH  13  15
ATOM     15  C   UNL     1      -8.384   1.965 127.489  0.00  0.00    +0.000 C 
ATOM     16  C   UNL     1      -8.033   2.190 128.764  0.00  0.00    +0.000 C 
BRANCH  16  17
ATOM     17  C   UNL     1      -8.566   3.169 129.686  0.00  0.00    +0.000 A 
ATOM     18  C   UNL     1      -9.255   2.711 130.818  0.00  0.00    +0.000 A 
ATOM     19  C   UNL     1      -9.947   3.611 131.620  0.00  0.00    +0.000 A 
ATOM     20  C   UNL     1      -9.878   4.980 131.335  0.00  0.00    +0.000 A 
ATOM     21  C   UNL     1      -9.221   5.413 130.168  0.00  0.00    +0.000 A 
ATOM     22  C   UNL     1      -8.582   4.508 129.334  0.00  0.00    +0.000 A 
BRANCH  20  23
ATOM     23  C   UNL     1     -10.415   6.033 132.236  0.00  0.00    +0.000 C 
ATOM     24  O   UNL     1     -11.459   6.626 131.976  0.00  0.00    +0.000 OA
BRANCH  23  25
ATOM     25  O   UNL     1      -9.681   6.344 133.320  0.00  0.00    +0.000 OA
ATOM     26  H   UNL     1      -8.931   6.949 133.211  0.00  0.00    +0.000 HD
ENDBRANCH  23  25
ENDBRANCH  20  23
ENDBRANCH  16  17
ENDBRANCH  13  15
BRANCH  12  27
ATOM     27  C   UNL     1      -6.127   2.420 125.432  0.00  0.00    +0.000 C 
BRANCH  27  28
ATOM     28  N   UNL     1      -4.950   2.703 126.239  0.00  0.00    +0.000 N 
ATOM     29  C   UNL     1      -4.595   2.070 127.398  0.00  0.00    +0.000 A 
ATOM     30  C   UNL     1      -3.490   2.738 127.856  0.00  0.00    +0.000 A 
ATOM     31  C   UNL     1      -3.203   3.687 126.857  0.00  0.00    +0.000 A 
ATOM     32  N   UNL     1      -4.085   3.659 125.859  0.00  0.00    +0.000 NA
ENDBRANCH  27  28
ENDBRANCH  12  27
TORSDOF 6
ENDMDL
MODEL 6
REMARK VINA RESULT:      -8.3      4.522      7.966
REMARK  Name = Palovarotene
REMARK  10 active torsions:
REMARK  status: ('A' for Active; 'I' for Inactive)
REMARK    1  A    between atoms: C_1  and  C_2
REMARK    2  A    between atoms: C_2  and  C_3
REMARK    3  A    between atoms: C_6  and  C_7
REMARK    4  A    between atoms: C_6  and  C_8
REMARK    5  A    between atoms: C_12  and  C_13
REMARK    6  A    between atoms: C_13  and  N_14
REMARK    7  A    between atoms: C_19  and  C_20
REMARK    8  A    between atoms: C_21  and  C_22
REMARK    9  A    between atoms: C_25  and  C_28
REMARK   10  A    between atoms: C_28  and  O_29
REMARK                            x       y       z     vdW  Elec       q    Type
REMARK                         _______ _______ _______ _____ _____    ______ ____
ROOT
ATOM      1  C   UNL     1      -9.389  -3.591 124.453  0.00  0.00    +0.000 C 
ATOM      2  C   UNL     1      -8.160  -2.663 124.282  0.00  0.00    +0.000 C 
ATOM      3  C   UNL     1      -6.877  -3.537 124.187  0.00  0.00    +0.000 C 
ATOM      4  C   UNL     1      -8.236  -1.939 122.940  0.00  0.00    +0.000 C 
ATOM      5  C   UNL     1      -8.796  -0.537 122.933  0.00  0.00    +0.000 C 
ATOM      6  C   UNL     1      -8.529   0.385 124.149  0.00  0.00    +0.000 C 
ATOM      7  C   UNL     1      -9.854   1.159 124.351  0.00  0.00    +0.000 C 
ATOM      8  C   UNL     1      -7.421   1.383 123.761  0.00  0.00    +0.000 C 
ATOM      9  C   UNL     1      -8.175  -0.341 125.437  0.00  0.00    +0.000 A 
ATOM     10  C   UNL     1      -8.066  -1.726 125.470  0.00  0.00    +0.000 A 
ATOM     11  C   UNL     1      -7.889  -2.334 126.708  0.00  0.00    +0.000 A 
ATOM     12  C   UNL     1      -7.709  -1.659 127.914  0.00  0.00    +0.000 A 
ATOM     13  C   UNL     1      -7.749  -0.258 127.901  0.00  0.00    +0.000 A 
ATOM     14  C   UNL     1      -7.995   0.376 126.658  0.00  0.00    +0.000 A 
ENDROOT
BRANCH  13  15
ATOM     15  C   UNL     1      -7.570   0.604 129.098  0.00  0.00    +0.000 C 
ATOM     16  C   UNL     1      -8.542   1.264 129.744  0.00  0.00    +0.000 C 
BRANCH  16  17
ATOM     17  C   UNL     1      -8.429   2.155 130.877  0.00  0.00    +0.000 A 
ATOM     18  C   UNL     1      -9.214   1.896 132.010  0.00  0.00    +0.000 A 
ATOM     19  C   UNL     1      -9.282   2.832 133.035  0.00  0.00    +0.000 A 
ATOM     20  C   UNL     1      -8.496   3.988 132.965  0.00  0.00    +0.000 A 
ATOM     21  C   UNL     1      -7.753   4.251 131.799  0.00  0.00    +0.000 A 
ATOM     22  C   UNL     1      -7.734   3.346 130.749  0.00  0.00    +0.000 A 
BRANCH  20  23
ATOM     23  C   UNL     1      -8.348   4.948 134.090  0.00  0.00    +0.000 C 
ATOM     24  O   UNL     1      -7.811   4.620 135.144  0.00  0.00    +0.000 OA
BRANCH  23  25
ATOM     25  O   UNL     1      -8.875   6.174 133.921  0.00  0.00    +0.000 OA
ATOM     26  H   UNL     1      -8.372   6.940 134.237  0.00  0.00    +0.000 HD
ENDBRANCH  23  25
ENDBRANCH  20  23
ENDBRANCH  16  17
ENDBRANCH  13  15
BRANCH  12  27
ATOM     27  C   UNL     1      -7.483  -2.481 129.157  0.00  0.00    +0.000 C 
BRANCH  27  28
ATOM     28  N   UNL     1      -6.122  -2.937 129.400  0.00  0.00    +0.000 N 
ATOM     29  C   UNL     1      -4.993  -2.468 128.789  0.00  0.00    +0.000 A 
ATOM     30  C   UNL     1      -3.973  -3.261 129.247  0.00  0.00    +0.000 A 
ATOM     31  C   UNL     1      -4.574  -4.108 130.197  0.00  0.00    +0.000 A 
ATOM     32  N   UNL     1      -5.886  -3.903 130.304  0.00  0.00    +0.000 NA
ENDBRANCH  27  28
ENDBRANCH  12  27
TORSDOF 6
ENDMDL
MODEL 7
REMARK VINA RESULT:      -8.2      2.021      3.151
REMARK  Name = Palovarotene
REMARK  10 active torsions:
REMARK  status: ('A' for Active; 'I' for Inactive)
REMARK    1  A    between atoms: C_1  and  C_2
REMARK    2  A    between atoms: C_2  and  C_3
REMARK    3  A    between atoms: C_6  and  C_7
REMARK    4  A    between atoms: C_6  and  C_8
REMARK    5  A    between atoms: C_12  and  C_13
REMARK    6  A    between atoms: C_13  and  N_14
REMARK    7  A    between atoms: C_19  and  C_20
REMARK    8  A    between atoms: C_21  and  C_22
REMARK    9  A    between atoms: C_25  and  C_28
REMARK   10  A    between atoms: C_28  and  O_29
REMARK                            x       y       z     vdW  Elec       q    Type
REMARK                         _______ _______ _______ _____ _____    ______ ____
ROOT
ATOM      1  C   UNL     1      -7.005  -0.491 130.265  0.00  0.00    +0.000 C 
ATOM      2  C   UNL     1      -7.275   1.034 130.258  0.00  0.00    +0.000 C 
ATOM      3  C   UNL     1      -8.676   1.301 130.875  0.00  0.00    +0.000 C 
ATOM      4  C   UNL     1      -6.297   1.741 131.194  0.00  0.00    +0.000 C 
ATOM      5  C   UNL     1      -5.063   2.359 130.581  0.00  0.00    +0.000 C 
ATOM      6  C   UNL     1      -5.158   2.975 129.162  0.00  0.00    +0.000 C 
ATOM      7  C   UNL     1      -3.825   2.588 128.479  0.00  0.00    +0.000 C 
ATOM      8  C   UNL     1      -5.220   4.507 129.308  0.00  0.00    +0.000 C 
ATOM      9  C   UNL     1      -6.316   2.465 128.319  0.00  0.00    +0.000 A 
ATOM     10  C   UNL     1      -7.226   1.549 128.833  0.00  0.00    +0.000 A 
ATOM     11  C   UNL     1      -8.168   1.012 127.963  0.00  0.00    +0.000 A 
ATOM     12  C   UNL     1      -8.342   1.395 126.634  0.00  0.00    +0.000 A 
ATOM     13  C   UNL     1      -7.480   2.367 126.107  0.00  0.00    +0.000 A 
ATOM     14  C   UNL     1      -6.471   2.875 126.961  0.00  0.00    +0.000 A 
ENDROOT
BRANCH  13  15
ATOM     15  C   UNL     1      -7.540   2.884 124.715  0.00  0.00    +0.000 C 
ATOM     16  C   UNL     1      -6.630   2.663 123.755  0.00  0.00    +0.000 C 
BRANCH  16  17
ATOM     17  C   UNL     1      -6.603   3.176 122.403  0.00  0.00    +0.000 A 
ATOM     18  C   UNL     1      -5.432   3.800 121.951  0.00  0.00    +0.000 A 
ATOM     19  C   UNL     1      -5.430   4.477 120.737  0.00  0.00    +0.000 A 
ATOM     20  C   UNL     1      -6.578   4.455 119.935  0.00  0.00    +0.000 A 
ATOM     21  C   UNL     1      -7.756   3.863 120.429  0.00  0.00    +0.000 A 
ATOM     22  C   UNL     1      -7.774   3.241 121.668  0.00  0.00    +0.000 A 
BRANCH  20  23
ATOM     23  C   UNL     1      -6.617   4.976 118.545  0.00  0.00    +0.000 C 
ATOM     24  O   UNL     1      -7.357   4.484 117.698  0.00  0.00    +0.000 OA
BRANCH  23  25
ATOM     25  O   UNL     1      -5.767   5.974 118.241  0.00  0.00    +0.000 OA
ATOM     26  H   UNL     1      -6.135   6.849 118.042  0.00  0.00    +0.000 HD
ENDBRANCH  23  25
ENDBRANCH  20  23
ENDBRANCH  16  17
ENDBRANCH  13  15
BRANCH  12  27
ATOM     27  C   UNL     1      -9.449   0.739 125.849  0.00  0.00    +0.000 C 
BRANCH  27  28
ATOM     28  N   UNL     1      -9.127  -0.517 125.189  0.00  0.00    +0.000 N 
ATOM     29  C   UNL     1      -8.410  -0.660 124.033  0.00  0.00    +0.000 A 
ATOM     30  C   UNL     1      -8.457  -1.997 123.737  0.00  0.00    +0.000 A 
ATOM     31  C   UNL     1      -9.138  -2.583 124.820  0.00  0.00    +0.000 A 
ATOM     32  N   UNL     1      -9.536  -1.682 125.718  0.00  0.00    +0.000 NA
ENDBRANCH  27  28
ENDBRANCH  12  27
TORSDOF 6
ENDMDL
MODEL 8
REMARK VINA RESULT:      -8.1      4.313      7.457
REMARK  Name = Palovarotene
REMARK  10 active torsions:
REMARK  status: ('A' for Active; 'I' for Inactive)
REMARK    1  A    between atoms: C_1  and  C_2
REMARK    2  A    between atoms: C_2  and  C_3
REMARK    3  A    between atoms: C_6  and  C_7
REMARK    4  A    between atoms: C_6  and  C_8
REMARK    5  A    between atoms: C_12  and  C_13
REMARK    6  A    between atoms: C_13  and  N_14
REMARK    7  A    between atoms: C_19  and  C_20
REMARK    8  A    between atoms: C_21  and  C_22
REMARK    9  A    between atoms: C_25  and  C_28
REMARK   10  A    between atoms: C_28  and  O_29
REMARK                            x       y       z     vdW  Elec       q    Type
REMARK                         _______ _______ _______ _____ _____    ______ ____
ROOT
ATOM      1  C   UNL     1      -6.699  -1.609 122.698  0.00  0.00    +0.000 C 
ATOM      2  C   UNL     1      -7.923  -1.938 123.589  0.00  0.00    +0.000 C 
ATOM      3  C   UNL     1      -9.209  -1.891 122.716  0.00  0.00    +0.000 C 
ATOM      4  C   UNL     1      -7.839  -3.382 124.078  0.00  0.00    +0.000 C 
ATOM      5  C   UNL     1      -7.272  -3.622 125.457  0.00  0.00    +0.000 C 
ATOM      6  C   UNL     1      -7.540  -2.578 126.571  0.00  0.00    +0.000 C 
ATOM      7  C   UNL     1      -6.213  -2.503 127.362  0.00  0.00    +0.000 C 
ATOM      8  C   UNL     1      -8.643  -3.133 127.493  0.00  0.00    +0.000 C 
ATOM      9  C   UNL     1      -7.902  -1.188 126.071  0.00  0.00    +0.000 A 
ATOM     10  C   UNL     1      -8.018  -0.924 124.712  0.00  0.00    +0.000 A 
ATOM     11  C   UNL     1      -8.202   0.397 124.320  0.00  0.00    +0.000 A 
ATOM     12  C   UNL     1      -8.383   1.472 125.188  0.00  0.00    +0.000 A 
ATOM     13  C   UNL     1      -8.337   1.225 126.568  0.00  0.00    +0.000 A 
ATOM     14  C   UNL     1      -8.083  -0.106 126.983  0.00  0.00    +0.000 A 
ENDROOT
BRANCH  13  15
ATOM     15  C   UNL     1      -8.517   2.260 127.618  0.00  0.00    +0.000 C 
ATOM     16  C   UNL     1      -7.983   2.231 128.849  0.00  0.00    +0.000 C 
BRANCH  16  17
ATOM     17  C   UNL     1      -8.159   3.175 129.930  0.00  0.00    +0.000 A 
ATOM     18  C   UNL     1      -7.280   3.110 131.021  0.00  0.00    +0.000 A 
ATOM     19  C   UNL     1      -7.534   3.862 132.162  0.00  0.00    +0.000 A 
ATOM     20  C   UNL     1      -8.621   4.743 132.178  0.00  0.00    +0.000 A 
ATOM     21  C   UNL     1      -9.517   4.757 131.092  0.00  0.00    +0.000 A 
ATOM     22  C   UNL     1      -9.298   3.961 129.978  0.00  0.00    +0.000 A 
BRANCH  20  23
ATOM     23  C   UNL     1      -8.863   5.727 133.264  0.00  0.00    +0.000 C 
ATOM     24  O   UNL     1      -8.078   5.853 134.200  0.00  0.00    +0.000 OA
BRANCH  23  25
ATOM     25  O   UNL     1     -10.005   6.435 133.205  0.00  0.00    +0.000 OA
ATOM     26  H   UNL     1     -10.455   6.516 132.349  0.00  0.00    +0.000 HD
ENDBRANCH  23  25
ENDBRANCH  20  23
ENDBRANCH  16  17
ENDBRANCH  13  15
BRANCH  12  27
ATOM     27  C   UNL     1      -8.618   2.834 124.587  0.00  0.00    +0.000 C 
BRANCH  27  28
ATOM     28  N   UNL     1      -7.747   3.223 123.487  0.00  0.00    +0.000 N 
ATOM     29  C   UNL     1      -8.078   3.228 122.161  0.00  0.00    +0.000 A 
ATOM     30  C   UNL     1      -6.923   3.554 121.498  0.00  0.00    +0.000 A 
ATOM     31  C   UNL     1      -5.987   3.818 122.514  0.00  0.00    +0.000 A 
ATOM     32  N   UNL     1      -6.491   3.631 123.733  0.00  0.00    +0.000 NA
ENDBRANCH  27  28
ENDBRANCH  12  27
TORSDOF 6
ENDMDL
MODEL 9
REMARK VINA RESULT:      -8.0      5.411      9.558
REMARK  Name = Palovarotene
REMARK  10 active torsions:
REMARK  status: ('A' for Active; 'I' for Inactive)
REMARK    1  A    between atoms: C_1  and  C_2
REMARK    2  A    between atoms: C_2  and  C_3
REMARK    3  A    between atoms: C_6  and  C_7
REMARK    4  A    between atoms: C_6  and  C_8
REMARK    5  A    between atoms: C_12  and  C_13
REMARK    6  A    between atoms: C_13  and  N_14
REMARK    7  A    between atoms: C_19  and  C_20
REMARK    8  A    between atoms: C_21  and  C_22
REMARK    9  A    between atoms: C_25  and  C_28
REMARK   10  A    between atoms: C_28  and  O_29
REMARK                            x       y       z     vdW  Elec       q    Type
REMARK                         _______ _______ _______ _____ _____    ______ ____
ROOT
ATOM      1  C   UNL     1      -7.886   1.589 123.306  0.00  0.00    +0.000 C 
ATOM      2  C   UNL     1      -8.917   0.640 123.968  0.00  0.00    +0.000 C 
ATOM      3  C   UNL     1     -10.147   1.474 124.426  0.00  0.00    +0.000 C 
ATOM      4  C   UNL     1      -9.472  -0.332 122.931  0.00  0.00    +0.000 C 
ATOM      5  C   UNL     1      -8.851  -1.707 122.857  0.00  0.00    +0.000 C 
ATOM      6  C   UNL     1      -8.346  -2.374 124.162  0.00  0.00    +0.000 C 
ATOM      7  C   UNL     1      -7.036  -3.087 123.753  0.00  0.00    +0.000 C 
ATOM      8  C   UNL     1      -9.380  -3.432 124.591  0.00  0.00    +0.000 C 
ATOM      9  C   UNL     1      -8.055  -1.410 125.302  0.00  0.00    +0.000 A 
ATOM     10  C   UNL     1      -8.279  -0.046 125.160  0.00  0.00    +0.000 A 
ATOM     11  C   UNL     1      -7.852   0.792 126.183  0.00  0.00    +0.000 A 
ATOM     12  C   UNL     1      -7.304   0.366 127.392  0.00  0.00    +0.000 A 
ATOM     13  C   UNL     1      -7.127  -1.011 127.590  0.00  0.00    +0.000 A 
ATOM     14  C   UNL     1      -7.496  -1.875 126.530  0.00  0.00    +0.000 A 
ENDROOT
BRANCH  13  15
ATOM     15  C   UNL     1      -6.565  -1.622 128.822  0.00  0.00    +0.000 C 
ATOM     16  C   UNL     1      -7.038  -2.712 129.445  0.00  0.00    +0.000 C 
BRANCH  16  17
ATOM     17  C   UNL     1      -6.572  -3.326 130.668  0.00  0.00    +0.000 A 
ATOM     18  C   UNL     1      -5.692  -4.413 130.575  0.00  0.00    +0.000 A 
ATOM     19  C   UNL     1      -5.378  -5.151 131.711  0.00  0.00    +0.000 A 
ATOM     20  C   UNL     1      -5.878  -4.747 132.954  0.00  0.00    +0.000 A 
ATOM     21  C   UNL     1      -6.797  -3.682 133.018  0.00  0.00    +0.000 A 
ATOM     22  C   UNL     1      -7.159  -2.985 131.875  0.00  0.00    +0.000 A 
BRANCH  20  23
ATOM     23  C   UNL     1      -5.448  -5.345 134.244  0.00  0.00    +0.000 C 
ATOM     24  O   UNL     1      -6.106  -5.194 135.270  0.00  0.00    +0.000 OA
BRANCH  23  25
ATOM     25  O   UNL     1      -4.281  -6.014 134.249  0.00  0.00    +0.000 OA
ATOM     26  H   UNL     1      -3.567  -5.700 133.673  0.00  0.00    +0.000 HD
ENDBRANCH  23  25
ENDBRANCH  20  23
ENDBRANCH  16  17
ENDBRANCH  13  15
BRANCH  12  27
ATOM     27  C   UNL     1      -6.939   1.415 128.411  0.00  0.00    +0.000 C 
BRANCH  27  28
ATOM     28  N   UNL     1      -7.983   1.813 129.343  0.00  0.00    +0.000 N 
ATOM     29  C   UNL     1      -8.218   1.263 130.573  0.00  0.00    +0.000 A 
ATOM     30  C   UNL     1      -9.356   1.873 131.035  0.00  0.00    +0.000 A 
ATOM     31  C   UNL     1      -9.669   2.837 130.058  0.00  0.00    +0.000 A 
ATOM     32  N   UNL     1      -8.823   2.813 129.029  0.00  0.00    +0.000 NA
ENDBRANCH  27  28
ENDBRANCH  12  27
TORSDOF 6
ENDMDL
