MODEL 1
REMARK VINA RESULT:      -5.6      0.000      0.000
REMARK  Name = Pamidronic acid
REMARK  10 active torsions:
REMARK  status: ('A' for Active; 'I' for Inactive)
REMARK    1  A    between atoms: N_1  and  C_2
REMARK    2  A    between atoms: C_2  and  C_3
REMARK    3  A    between atoms: C_3  and  C_4
REMARK    4  A    between atoms: C_4  and  O_5
REMARK    5  A    between atoms: C_4  and  P_6
REMARK    6  A    between atoms: C_4  and  P_10
REMARK    7  A    between atoms: P_6  and  O_7
REMARK    8  A    between atoms: P_6  and  O_8
REMARK    9  A    between atoms: P_10  and  O_11
REMARK   10  A    between atoms: P_10  and  O_12
REMARK                            x       y       z     vdW  Elec       q    Type
REMARK                         _______ _______ _______ _____ _____    ______ ____
ROOT
ATOM      1  C   UNL     1     -11.540   7.239 128.767  0.00  0.00    +0.000 C 
ENDROOT
BRANCH   1   2
ATOM      2  O   UNL     1     -12.504   6.103 128.783  0.00  0.00    +0.000 OA
ATOM      3  H   UNL     1     -12.421   5.627 129.633  0.00  0.00    +0.000 HD
ENDBRANCH   1   2
BRANCH   1   4
ATOM      4  P   UNL     1     -11.149   7.659 127.029  0.00  0.00    +0.000 P 
ATOM      5  O   UNL     1     -10.818   8.014 125.559  0.00  0.00    +0.000 OA
BRANCH   4   6
ATOM      6  O   UNL     1      -9.866   6.648 127.147  0.00  0.00    +0.000 OA
ATOM      7  H   UNL     1      -9.138   6.852 127.789  0.00  0.00    +0.000 HD
ENDBRANCH   4   6
BRANCH   4   8
ATOM      8  O   UNL     1     -12.254   6.519 126.551  0.00  0.00    +0.000 OA
ATOM      9  H   UNL     1     -12.898   6.793 125.870  0.00  0.00    +0.000 HD
ENDBRANCH   4   8
ENDBRANCH   1   4
BRANCH   1  10
ATOM     10  P   UNL     1     -10.240   6.605 129.939  0.00  0.00    +0.000 P 
ATOM     11  O   UNL     1      -8.969   7.399 129.925  0.00  0.00    +0.000 OA
BRANCH  10  12
ATOM     12  O   UNL     1     -10.946   6.498 131.375  0.00  0.00    +0.000 OA
ATOM     13  H   UNL     1     -11.243   7.331 131.784  0.00  0.00    +0.000 HD
ENDBRANCH  10  12
BRANCH  10  14
ATOM     14  O   UNL     1     -10.119   5.051 129.537  0.00  0.00    +0.000 OA
ATOM     15  H   UNL     1     -10.569   4.459 130.175  0.00  0.00    +0.000 HD
ENDBRANCH  10  14
ENDBRANCH   1  10
BRANCH   1  16
ATOM     16  C   UNL     1     -12.254   8.464 129.397  0.00  0.00    +0.000 C 
BRANCH  16  17
ATOM     17  C   UNL     1     -13.268   9.154 128.483  0.00  0.00    +0.000 C 
BRANCH  17  18
ATOM     18  N   UNL     1     -13.412  10.536 128.903  0.00  0.00    +0.000 NA
ATOM     19  H   UNL     1     -14.029  11.033 128.256  0.00  0.00    +0.000 HD
ATOM     20  H   UNL     1     -12.520  11.030 128.867  0.00  0.00    +0.000 HD
ENDBRANCH  17  18
ENDBRANCH  16  17
ENDBRANCH   1  16
TORSDOF 10
ENDMDL
MODEL 2
REMARK VINA RESULT:      -5.4      1.522      2.083
REMARK  Name = Pamidronic acid
REMARK  10 active torsions:
REMARK  status: ('A' for Active; 'I' for Inactive)
REMARK    1  A    between atoms: N_1  and  C_2
REMARK    2  A    between atoms: C_2  and  C_3
REMARK    3  A    between atoms: C_3  and  C_4
REMARK    4  A    between atoms: C_4  and  O_5
REMARK    5  A    between atoms: C_4  and  P_6
REMARK    6  A    between atoms: C_4  and  P_10
REMARK    7  A    between atoms: P_6  and  O_7
REMARK    8  A    between atoms: P_6  and  O_8
REMARK    9  A    between atoms: P_10  and  O_11
REMARK   10  A    between atoms: P_10  and  O_12
REMARK                            x       y       z     vdW  Elec       q    Type
REMARK                         _______ _______ _______ _____ _____    ______ ____
ROOT
ATOM      1  C   UNL     1     -11.241   6.954 128.915  0.00  0.00    +0.000 C 
ENDROOT
BRANCH   1   2
ATOM      2  O   UNL     1     -12.248   5.856 128.952  0.00  0.00    +0.000 OA
ATOM      3  H   UNL     1     -12.829   5.930 128.168  0.00  0.00    +0.000 HD
ENDBRANCH   1   2
BRANCH   1   4
ATOM      4  P   UNL     1     -11.053   7.525 127.186  0.00  0.00    +0.000 P 
ATOM      5  O   UNL     1     -10.893   8.010 125.725  0.00  0.00    +0.000 OA
BRANCH   4   6
ATOM      6  O   UNL     1     -10.251   8.826 127.777  0.00  0.00    +0.000 OA
ATOM      7  H   UNL     1     -10.440   9.141 128.699  0.00  0.00    +0.000 HD
ENDBRANCH   4   6
BRANCH   4   8
ATOM      8  O   UNL     1      -9.734   6.530 127.047  0.00  0.00    +0.000 OA
ATOM      9  H   UNL     1      -8.990   6.863 126.508  0.00  0.00    +0.000 HD
ENDBRANCH   4   8
ENDBRANCH   1   4
BRANCH   1  10
ATOM     10  P   UNL     1      -9.835   6.165 129.846  0.00  0.00    +0.000 P 
ATOM     11  O   UNL     1      -9.447   4.813 129.328  0.00  0.00    +0.000 OA
BRANCH  10  12
ATOM     12  O   UNL     1      -8.648   7.243 129.860  0.00  0.00    +0.000 OA
ATOM     13  H   UNL     1      -8.888   8.167 129.661  0.00  0.00    +0.000 HD
ENDBRANCH  10  12
BRANCH  10  14
ATOM     14  O   UNL     1     -10.333   6.231 131.375  0.00  0.00    +0.000 OA
ATOM     15  H   UNL     1     -10.414   7.150 131.707  0.00  0.00    +0.000 HD
ENDBRANCH  10  14
ENDBRANCH   1  10
BRANCH   1  16
ATOM     16  C   UNL     1     -11.812   8.136 129.741  0.00  0.00    +0.000 C 
BRANCH  16  17
ATOM     17  C   UNL     1     -13.219   7.908 130.298  0.00  0.00    +0.000 C 
BRANCH  17  18
ATOM     18  N   UNL     1     -13.112   7.219 131.571  0.00  0.00    +0.000 NA
ATOM     19  H   UNL     1     -13.677   6.367 131.553  0.00  0.00    +0.000 HD
ATOM     20  H   UNL     1     -13.489   7.784 132.332  0.00  0.00    +0.000 HD
ENDBRANCH  17  18
ENDBRANCH  16  17
ENDBRANCH   1  16
TORSDOF 10
ENDMDL
MODEL 3
REMARK VINA RESULT:      -5.0      2.755      4.486
REMARK  Name = Pamidronic acid
REMARK  10 active torsions:
REMARK  status: ('A' for Active; 'I' for Inactive)
REMARK    1  A    between atoms: N_1  and  C_2
REMARK    2  A    between atoms: C_2  and  C_3
REMARK    3  A    between atoms: C_3  and  C_4
REMARK    4  A    between atoms: C_4  and  O_5
REMARK    5  A    between atoms: C_4  and  P_6
REMARK    6  A    between atoms: C_4  and  P_10
REMARK    7  A    between atoms: P_6  and  O_7
REMARK    8  A    between atoms: P_6  and  O_8
REMARK    9  A    between atoms: P_10  and  O_11
REMARK   10  A    between atoms: P_10  and  O_12
REMARK                            x       y       z     vdW  Elec       q    Type
REMARK                         _______ _______ _______ _____ _____    ______ ____
ROOT
ATOM      1  C   UNL     1     -10.923   6.755 129.578  0.00  0.00    +0.000 C 
ENDROOT
BRANCH   1   2
ATOM      2  O   UNL     1     -10.921   5.267 129.500  0.00  0.00    +0.000 OA
ATOM      3  H   UNL     1     -11.165   4.996 128.592  0.00  0.00    +0.000 HD
ENDBRANCH   1   2
BRANCH   1   4
ATOM      4  P   UNL     1     -12.191   7.283 130.787  0.00  0.00    +0.000 P 
ATOM      5  O   UNL     1     -13.265   7.729 131.809  0.00  0.00    +0.000 OA
BRANCH   4   6
ATOM      6  O   UNL     1     -13.321   6.875 129.674  0.00  0.00    +0.000 OA
ATOM      7  H   UNL     1     -14.086   7.485 129.506  0.00  0.00    +0.000 HD
ENDBRANCH   4   6
BRANCH   4   8
ATOM      8  O   UNL     1     -12.071   5.791 131.499  0.00  0.00    +0.000 OA
ATOM      9  H   UNL     1     -12.891   5.420 131.878  0.00  0.00    +0.000 HD
ENDBRANCH   4   8
ENDBRANCH   1   4
BRANCH   1  10
ATOM     10  P   UNL     1     -11.045   7.196 127.773  0.00  0.00    +0.000 P 
ATOM     11  O   UNL     1     -12.342   6.799 127.138  0.00  0.00    +0.000 OA
BRANCH  10  12
ATOM     12  O   UNL     1     -10.700   8.759 127.671  0.00  0.00    +0.000 OA
ATOM     13  H   UNL     1     -10.285   9.172 128.450  0.00  0.00    +0.000 HD
ENDBRANCH  10  12
BRANCH  10  14
ATOM     14  O   UNL     1      -9.712   6.543 127.151  0.00  0.00    +0.000 OA
ATOM     15  H   UNL     1      -8.892   6.956 127.496  0.00  0.00    +0.000 HD
ENDBRANCH  10  14
ENDBRANCH   1  10
BRANCH   1  16
ATOM     16  C   UNL     1      -9.540   7.193 130.127  0.00  0.00    +0.000 C 
BRANCH  16  17
ATOM     17  C   UNL     1      -8.647   6.045 130.603  0.00  0.00    +0.000 C 
BRANCH  17  18
ATOM     18  N   UNL     1      -7.987   5.456 129.452  0.00  0.00    +0.000 NA
ATOM     19  H   UNL     1      -8.467   4.596 129.178  0.00  0.00    +0.000 HD
ATOM     20  H   UNL     1      -7.030   5.179 129.674  0.00  0.00    +0.000 HD
ENDBRANCH  17  18
ENDBRANCH  16  17
ENDBRANCH   1  16
TORSDOF 10
ENDMDL
MODEL 4
REMARK VINA RESULT:      -5.0      2.577      3.963
REMARK  Name = Pamidronic acid
REMARK  10 active torsions:
REMARK  status: ('A' for Active; 'I' for Inactive)
REMARK    1  A    between atoms: N_1  and  C_2
REMARK    2  A    between atoms: C_2  and  C_3
REMARK    3  A    between atoms: C_3  and  C_4
REMARK    4  A    between atoms: C_4  and  O_5
REMARK    5  A    between atoms: C_4  and  P_6
REMARK    6  A    between atoms: C_4  and  P_10
REMARK    7  A    between atoms: P_6  and  O_7
REMARK    8  A    between atoms: P_6  and  O_8
REMARK    9  A    between atoms: P_10  and  O_11
REMARK   10  A    between atoms: P_10  and  O_12
REMARK                            x       y       z     vdW  Elec       q    Type
REMARK                         _______ _______ _______ _____ _____    ______ ____
ROOT
ATOM      1  C   UNL     1     -11.070   7.387 129.048  0.00  0.00    +0.000 C 
ENDROOT
BRANCH   1   2
ATOM      2  O   UNL     1     -11.569   6.068 128.565  0.00  0.00    +0.000 OA
ATOM      3  H   UNL     1     -12.201   6.216 127.834  0.00  0.00    +0.000 HD
ENDBRANCH   1   2
BRANCH   1   4
ATOM      4  P   UNL     1      -9.672   7.106 130.196  0.00  0.00    +0.000 P 
ATOM      5  O   UNL     1      -8.491   6.868 131.167  0.00  0.00    +0.000 OA
BRANCH   4   6
ATOM      6  O   UNL     1     -10.660   6.110 131.043  0.00  0.00    +0.000 OA
ATOM      7  H   UNL     1     -10.831   5.191 130.711  0.00  0.00    +0.000 HD
ENDBRANCH   4   6
BRANCH   4   8
ATOM      8  O   UNL     1      -9.096   5.961 129.145  0.00  0.00    +0.000 OA
ATOM      9  H   UNL     1      -9.337   5.033 129.334  0.00  0.00    +0.000 HD
ENDBRANCH   4   8
ENDBRANCH   1   4
BRANCH   1  10
ATOM     10  P   UNL     1     -12.661   8.171 129.614  0.00  0.00    +0.000 P 
ATOM     11  O   UNL     1     -12.878   8.105 131.095  0.00  0.00    +0.000 OA
BRANCH  10  12
ATOM     12  O   UNL     1     -12.670   9.654 129.002  0.00  0.00    +0.000 OA
ATOM     13  H   UNL     1     -13.486   9.942 128.553  0.00  0.00    +0.000 HD
ENDBRANCH  10  12
BRANCH  10  14
ATOM     14  O   UNL     1     -13.766   7.450 128.694  0.00  0.00    +0.000 OA
ATOM     15  H   UNL     1     -14.411   8.081 128.310  0.00  0.00    +0.000 HD
ENDBRANCH  10  14
ENDBRANCH   1  10
BRANCH   1  16
ATOM     16  C   UNL     1     -10.520   8.155 127.818  0.00  0.00    +0.000 C 
BRANCH  16  17
ATOM     17  C   UNL     1     -10.798   7.488 126.469  0.00  0.00    +0.000 C 
BRANCH  17  18
ATOM     18  N   UNL     1      -9.844   6.413 126.273  0.00  0.00    +0.000 NA
ATOM     19  H   UNL     1     -10.331   5.514 126.251  0.00  0.00    +0.000 HD
ATOM     20  H   UNL     1      -9.188   6.352 127.053  0.00  0.00    +0.000 HD
ENDBRANCH  17  18
ENDBRANCH  16  17
ENDBRANCH   1  16
TORSDOF 10
ENDMDL
MODEL 5
REMARK VINA RESULT:      -4.9      3.397      4.838
REMARK  Name = Pamidronic acid
REMARK  10 active torsions:
REMARK  status: ('A' for Active; 'I' for Inactive)
REMARK    1  A    between atoms: N_1  and  C_2
REMARK    2  A    between atoms: C_2  and  C_3
REMARK    3  A    between atoms: C_3  and  C_4
REMARK    4  A    between atoms: C_4  and  O_5
REMARK    5  A    between atoms: C_4  and  P_6
REMARK    6  A    between atoms: C_4  and  P_10
REMARK    7  A    between atoms: P_6  and  O_7
REMARK    8  A    between atoms: P_6  and  O_8
REMARK    9  A    between atoms: P_10  and  O_11
REMARK   10  A    between atoms: P_10  and  O_12
REMARK                            x       y       z     vdW  Elec       q    Type
REMARK                         _______ _______ _______ _____ _____    ______ ____
ROOT
ATOM      1  C   UNL     1      -9.892   5.594 130.194  0.00  0.00    +0.000 C 
ENDROOT
BRANCH   1   2
ATOM      2  O   UNL     1      -9.472   5.807 128.780  0.00  0.00    +0.000 OA
ATOM      3  H   UNL     1      -8.618   5.354 128.630  0.00  0.00    +0.000 HD
ENDBRANCH   1   2
BRANCH   1   4
ATOM      4  P   UNL     1      -9.574   3.850 130.650  0.00  0.00    +0.000 P 
ATOM      5  O   UNL     1      -9.306   2.375 131.035  0.00  0.00    +0.000 OA
BRANCH   4   6
ATOM      6  O   UNL     1     -11.197   3.629 130.655  0.00  0.00    +0.000 OA
ATOM      7  H   UNL     1     -11.568   2.721 130.811  0.00  0.00    +0.000 HD
ENDBRANCH   4   6
BRANCH   4   8
ATOM      8  O   UNL     1      -9.338   3.519 129.043  0.00  0.00    +0.000 OA
ATOM      9  H   UNL     1      -8.959   2.644 128.827  0.00  0.00    +0.000 HD
ENDBRANCH   4   8
ENDBRANCH   1   4
BRANCH   1  10
ATOM     10  P   UNL     1     -11.615   6.298 130.152  0.00  0.00    +0.000 P 
ATOM     11  O   UNL     1     -12.485   5.711 129.082  0.00  0.00    +0.000 OA
BRANCH  10  12
ATOM     12  O   UNL     1     -12.194   6.152 131.641  0.00  0.00    +0.000 OA
ATOM     13  H   UNL     1     -13.149   6.303 131.760  0.00  0.00    +0.000 HD
ENDBRANCH  10  12
BRANCH  10  14
ATOM     14  O   UNL     1     -11.355   7.884 130.075  0.00  0.00    +0.000 OA
ATOM     15  H   UNL     1     -11.845   8.382 130.763  0.00  0.00    +0.000 HD
ENDBRANCH  10  14
ENDBRANCH   1  10
BRANCH   1  16
ATOM     16  C   UNL     1      -8.989   6.484 131.087  0.00  0.00    +0.000 C 
BRANCH  16  17
ATOM     17  C   UNL     1      -8.668   5.897 132.463  0.00  0.00    +0.000 C 
BRANCH  17  18
ATOM     18  N   UNL     1      -9.685   6.327 133.405  0.00  0.00    +0.000 NA
ATOM     19  H   UNL     1      -9.338   7.116 133.954  0.00  0.00    +0.000 HD
ATOM     20  H   UNL     1      -9.899   5.593 134.080  0.00  0.00    +0.000 HD
ENDBRANCH  17  18
ENDBRANCH  16  17
ENDBRANCH   1  16
TORSDOF 10
ENDMDL
MODEL 6
REMARK VINA RESULT:      -4.8      3.372      5.145
REMARK  Name = Pamidronic acid
REMARK  10 active torsions:
REMARK  status: ('A' for Active; 'I' for Inactive)
REMARK    1  A    between atoms: N_1  and  C_2
REMARK    2  A    between atoms: C_2  and  C_3
REMARK    3  A    between atoms: C_3  and  C_4
REMARK    4  A    between atoms: C_4  and  O_5
REMARK    5  A    between atoms: C_4  and  P_6
REMARK    6  A    between atoms: C_4  and  P_10
REMARK    7  A    between atoms: P_6  and  O_7
REMARK    8  A    between atoms: P_6  and  O_8
REMARK    9  A    between atoms: P_10  and  O_11
REMARK   10  A    between atoms: P_10  and  O_12
REMARK                            x       y       z     vdW  Elec       q    Type
REMARK                         _______ _______ _______ _____ _____    ______ ____
ROOT
ATOM      1  C   UNL     1     -10.821   5.593 130.938  0.00  0.00    +0.000 C 
ENDROOT
BRANCH   1   2
ATOM      2  O   UNL     1     -12.022   5.958 131.743  0.00  0.00    +0.000 OA
ATOM      3  H   UNL     1     -12.773   5.397 131.465  0.00  0.00    +0.000 HD
ENDBRANCH   1   2
BRANCH   1   4
ATOM      4  P   UNL     1      -9.333   5.750 131.992  0.00  0.00    +0.000 P 
ATOM      5  O   UNL     1      -8.074   5.883 132.882  0.00  0.00    +0.000 OA
BRANCH   4   6
ATOM      6  O   UNL     1      -8.951   7.091 131.133  0.00  0.00    +0.000 OA
ATOM      7  H   UNL     1      -8.004   7.378 131.067  0.00  0.00    +0.000 HD
ENDBRANCH   4   6
BRANCH   4   8
ATOM      8  O   UNL     1     -10.271   6.507 133.129  0.00  0.00    +0.000 OA
ATOM      9  H   UNL     1     -11.111   6.067 133.367  0.00  0.00    +0.000 HD
ENDBRANCH   4   8
ENDBRANCH   1   4
BRANCH   1  10
ATOM     10  P   UNL     1     -11.076   6.662 129.435  0.00  0.00    +0.000 P 
ATOM     11  O   UNL     1     -11.202   8.123 129.743  0.00  0.00    +0.000 OA
BRANCH  10  12
ATOM     12  O   UNL     1      -9.891   6.292 128.418  0.00  0.00    +0.000 OA
ATOM     13  H   UNL     1      -9.789   5.352 128.183  0.00  0.00    +0.000 HD
ENDBRANCH  10  12
BRANCH  10  14
ATOM     14  O   UNL     1     -12.334   5.970 128.709  0.00  0.00    +0.000 OA
ATOM     15  H   UNL     1     -13.182   6.419 128.913  0.00  0.00    +0.000 HD
ENDBRANCH  10  14
ENDBRANCH   1  10
BRANCH   1  16
ATOM     16  C   UNL     1     -10.963   4.100 130.543  0.00  0.00    +0.000 C 
BRANCH  16  17
ATOM     17  C   UNL     1      -9.641   3.334 130.449  0.00  0.00    +0.000 C 
BRANCH  17  18
ATOM     18  N   UNL     1      -9.218   3.298 129.062  0.00  0.00    +0.000 NA
ATOM     19  H   UNL     1      -9.987   3.593 128.456  0.00  0.00    +0.000 HD
ATOM     20  H   UNL     1      -8.984   2.348 128.769  0.00  0.00    +0.000 HD
ENDBRANCH  17  18
ENDBRANCH  16  17
ENDBRANCH   1  16
TORSDOF 10
ENDMDL
MODEL 7
REMARK VINA RESULT:      -4.7      2.402      2.966
REMARK  Name = Pamidronic acid
REMARK  10 active torsions:
REMARK  status: ('A' for Active; 'I' for Inactive)
REMARK    1  A    between atoms: N_1  and  C_2
REMARK    2  A    between atoms: C_2  and  C_3
REMARK    3  A    between atoms: C_3  and  C_4
REMARK    4  A    between atoms: C_4  and  O_5
REMARK    5  A    between atoms: C_4  and  P_6
REMARK    6  A    between atoms: C_4  and  P_10
REMARK    7  A    between atoms: P_6  and  O_7
REMARK    8  A    between atoms: P_6  and  O_8
REMARK    9  A    between atoms: P_10  and  O_11
REMARK   10  A    between atoms: P_10  and  O_12
REMARK                            x       y       z     vdW  Elec       q    Type
REMARK                         _______ _______ _______ _____ _____    ______ ____
ROOT
ATOM      1  C   UNL     1     -10.460   5.991 129.797  0.00  0.00    +0.000 C 
ENDROOT
BRANCH   1   2
ATOM      2  O   UNL     1     -11.587   5.017 129.731  0.00  0.00    +0.000 OA
ATOM      3  H   UNL     1     -12.352   5.382 130.219  0.00  0.00    +0.000 HD
ENDBRANCH   1   2
BRANCH   1   4
ATOM      4  P   UNL     1     -10.610   7.164 128.400  0.00  0.00    +0.000 P 
ATOM      5  O   UNL     1     -10.736   8.157 127.220  0.00  0.00    +0.000 OA
BRANCH   4   6
ATOM      6  O   UNL     1      -9.467   8.078 129.136  0.00  0.00    +0.000 OA
ATOM      7  H   UNL     1      -9.587   8.341 130.086  0.00  0.00    +0.000 HD
ENDBRANCH   4   6
BRANCH   4   8
ATOM      8  O   UNL     1      -9.568   6.205 127.539  0.00  0.00    +0.000 OA
ATOM      9  H   UNL     1      -8.702   6.019 127.953  0.00  0.00    +0.000 HD
ENDBRANCH   4   8
ENDBRANCH   1   4
BRANCH   1  10
ATOM     10  P   UNL     1      -9.011   4.832 129.953  0.00  0.00    +0.000 P 
ATOM     11  O   UNL     1      -8.903   4.172 131.294  0.00  0.00    +0.000 OA
BRANCH  10  12
ATOM     12  O   UNL     1      -9.115   3.818 128.715  0.00  0.00    +0.000 OA
ATOM     13  H   UNL     1      -9.553   4.148 127.909  0.00  0.00    +0.000 HD
ENDBRANCH  10  12
BRANCH  10  14
ATOM     14  O   UNL     1      -7.767   5.747 129.502  0.00  0.00    +0.000 OA
ATOM     15  H   UNL     1      -8.040   6.516 128.959  0.00  0.00    +0.000 HD
ENDBRANCH  10  14
ENDBRANCH   1  10
BRANCH   1  16
ATOM     16  C   UNL     1     -10.622   6.800 131.110  0.00  0.00    +0.000 C 
BRANCH  16  17
ATOM     17  C   UNL     1     -11.858   6.441 131.936  0.00  0.00    +0.000 C 
BRANCH  17  18
ATOM     18  N   UNL     1     -12.995   7.187 131.429  0.00  0.00    +0.000 NA
ATOM     19  H   UNL     1     -12.669   7.977 130.867  0.00  0.00    +0.000 HD
ATOM     20  H   UNL     1     -13.539   7.595 132.189  0.00  0.00    +0.000 HD
ENDBRANCH  17  18
ENDBRANCH  16  17
ENDBRANCH   1  16
TORSDOF 10
ENDMDL
MODEL 8
REMARK VINA RESULT:      -4.7      2.390      3.934
REMARK  Name = Pamidronic acid
REMARK  10 active torsions:
REMARK  status: ('A' for Active; 'I' for Inactive)
REMARK    1  A    between atoms: N_1  and  C_2
REMARK    2  A    between atoms: C_2  and  C_3
REMARK    3  A    between atoms: C_3  and  C_4
REMARK    4  A    between atoms: C_4  and  O_5
REMARK    5  A    between atoms: C_4  and  P_6
REMARK    6  A    between atoms: C_4  and  P_10
REMARK    7  A    between atoms: P_6  and  O_7
REMARK    8  A    between atoms: P_6  and  O_8
REMARK    9  A    between atoms: P_10  and  O_11
REMARK   10  A    between atoms: P_10  and  O_12
REMARK                            x       y       z     vdW  Elec       q    Type
REMARK                         _______ _______ _______ _____ _____    ______ ____
ROOT
ATOM      1  C   UNL     1      -9.913   6.569 129.895  0.00  0.00    +0.000 C 
ENDROOT
BRANCH   1   2
ATOM      2  O   UNL     1      -9.629   5.758 128.677  0.00  0.00    +0.000 OA
ATOM      3  H   UNL     1     -10.254   5.007 128.641  0.00  0.00    +0.000 HD
ENDBRANCH   1   2
BRANCH   1   4
ATOM      4  P   UNL     1      -8.442   6.536 130.984  0.00  0.00    +0.000 P 
ATOM      5  O   UNL     1      -7.199   6.509 131.906  0.00  0.00    +0.000 OA
BRANCH   4   6
ATOM      6  O   UNL     1      -9.472   6.448 132.255  0.00  0.00    +0.000 OA
ATOM      7  H   UNL     1     -10.009   5.626 132.395  0.00  0.00    +0.000 HD
ENDBRANCH   4   6
BRANCH   4   8
ATOM      8  O   UNL     1      -8.330   4.905 130.711  0.00  0.00    +0.000 OA
ATOM      9  H   UNL     1      -8.869   4.328 131.286  0.00  0.00    +0.000 HD
ENDBRANCH   4   8
ENDBRANCH   1   4
BRANCH   1  10
ATOM     10  P   UNL     1     -11.542   5.836 130.424  0.00  0.00    +0.000 P 
ATOM     11  O   UNL     1     -12.214   6.588 131.532  0.00  0.00    +0.000 OA
BRANCH  10  12
ATOM     12  O   UNL     1     -12.418   5.685 129.089  0.00  0.00    +0.000 OA
ATOM     13  H   UNL     1     -11.996   5.953 128.252  0.00  0.00    +0.000 HD
ENDBRANCH  10  12
BRANCH  10  14
ATOM     14  O   UNL     1     -11.166   4.301 130.724  0.00  0.00    +0.000 OA
ATOM     15  H   UNL     1     -10.553   3.924 130.057  0.00  0.00    +0.000 HD
ENDBRANCH  10  14
ENDBRANCH   1  10
BRANCH   1  16
ATOM     16  C   UNL     1     -10.127   8.035 129.438  0.00  0.00    +0.000 C 
BRANCH  16  17
ATOM     17  C   UNL     1     -10.572   8.194 127.983  0.00  0.00    +0.000 C 
BRANCH  17  18
ATOM     18  N   UNL     1     -11.932   8.701 127.961  0.00  0.00    +0.000 NA
ATOM     19  H   UNL     1     -12.304   8.740 128.913  0.00  0.00    +0.000 HD
ATOM     20  H   UNL     1     -12.553   8.074 127.448  0.00  0.00    +0.000 HD
ENDBRANCH  17  18
ENDBRANCH  16  17
ENDBRANCH   1  16
TORSDOF 10
ENDMDL
MODEL 9
REMARK VINA RESULT:      -4.6      4.251      5.400
REMARK  Name = Pamidronic acid
REMARK  10 active torsions:
REMARK  status: ('A' for Active; 'I' for Inactive)
REMARK    1  A    between atoms: N_1  and  C_2
REMARK    2  A    between atoms: C_2  and  C_3
REMARK    3  A    between atoms: C_3  and  C_4
REMARK    4  A    between atoms: C_4  and  O_5
REMARK    5  A    between atoms: C_4  and  P_6
REMARK    6  A    between atoms: C_4  and  P_10
REMARK    7  A    between atoms: P_6  and  O_7
REMARK    8  A    between atoms: P_6  and  O_8
REMARK    9  A    between atoms: P_10  and  O_11
REMARK   10  A    between atoms: P_10  and  O_12
REMARK                            x       y       z     vdW  Elec       q    Type
REMARK                         _______ _______ _______ _____ _____    ______ ____
ROOT
ATOM      1  C   UNL     1      -9.347   5.568 131.759  0.00  0.00    +0.000 C 
ENDROOT
BRANCH   1   2
ATOM      2  O   UNL     1      -9.973   6.311 132.889  0.00  0.00    +0.000 OA
ATOM      3  H   UNL     1      -9.270   6.627 133.491  0.00  0.00    +0.000 HD
ENDBRANCH   1   2
BRANCH   1   4
ATOM      4  P   UNL     1      -7.917   6.529 131.139  0.00  0.00    +0.000 P 
ATOM      5  O   UNL     1      -6.709   7.341 130.614  0.00  0.00    +0.000 OA
BRANCH   4   6
ATOM      6  O   UNL     1      -7.768   5.409 129.953  0.00  0.00    +0.000 OA
ATOM      7  H   UNL     1      -7.499   4.482 130.186  0.00  0.00    +0.000 HD
ENDBRANCH   4   6
BRANCH   4   8
ATOM      8  O   UNL     1      -8.983   7.516 130.341  0.00  0.00    +0.000 OA
ATOM      9  H   UNL     1      -8.809   7.671 129.392  0.00  0.00    +0.000 HD
ENDBRANCH   4   8
ENDBRANCH   1   4
BRANCH   1  10
ATOM     10  P   UNL     1     -10.839   5.234 130.697  0.00  0.00    +0.000 P 
ATOM     11  O   UNL     1     -10.700   5.717 129.285  0.00  0.00    +0.000 OA
BRANCH  10  12
ATOM     12  O   UNL     1     -11.148   3.666 130.841  0.00  0.00    +0.000 OA
ATOM     13  H   UNL     1     -11.915   3.416 131.387  0.00  0.00    +0.000 HD
ENDBRANCH  10  12
BRANCH  10  14
ATOM     14  O   UNL     1     -12.043   5.867 131.557  0.00  0.00    +0.000 OA
ATOM     15  H   UNL     1     -12.378   5.256 132.246  0.00  0.00    +0.000 HD
ENDBRANCH  10  14
ENDBRANCH   1  10
BRANCH   1  16
ATOM     16  C   UNL     1      -8.803   4.231 132.326  0.00  0.00    +0.000 C 
BRANCH  16  17
ATOM     17  C   UNL     1      -9.303   3.879 133.729  0.00  0.00    +0.000 C 
BRANCH  17  18
ATOM     18  N   UNL     1      -8.522   4.617 134.704  0.00  0.00    +0.000 NA
ATOM     19  H   UNL     1      -7.696   5.019 134.256  0.00  0.00    +0.000 HD
ATOM     20  H   UNL     1      -8.167   4.002 135.437  0.00  0.00    +0.000 HD
ENDBRANCH  17  18
ENDBRANCH  16  17
ENDBRANCH   1  16
TORSDOF 10
ENDMDL
