MODEL 1
REMARK VINA RESULT:      -9.2      0.000      0.000
REMARK  Name = Pancuronium
REMARK  12 active torsions:
REMARK  status: ('A' for Active; 'I' for Inactive)
REMARK    1  A    between atoms: C_4  and  N_39
REMARK    2  A    between atoms: C_5  and  O_6
REMARK    3  A    between atoms: O_6  and  C_7
REMARK    4  A    between atoms: C_7  and  C_8
REMARK    5  A    between atoms: C_10  and  C_11
REMARK    6  A    between atoms: C_23  and  O_24
REMARK    7  A    between atoms: O_24  and  C_25
REMARK    8  A    between atoms: C_25  and  C_26
REMARK    9  A    between atoms: C_28  and  N_32
REMARK   10  A    between atoms: C_30  and  C_31
REMARK   11  A    between atoms: N_32  and  C_33
REMARK   12  A    between atoms: N_39  and  C_40
REMARK                            x       y       z     vdW  Elec       q    Type
REMARK                         _______ _______ _______ _____ _____    ______ ____
ROOT
ATOM      1  C   UNL     1      -7.968   0.227 127.230  0.00  0.00    +0.000 C 
ATOM      2  C   UNL     1      -7.668  -1.211 126.838  0.00  0.00    +0.000 C 
ATOM      3  C   UNL     1      -8.503  -1.435 125.541  0.00  0.00    +0.000 C 
ATOM      4  C   UNL     1      -9.002   0.003 125.118  0.00  0.00    +0.000 C 
ATOM      5  C   UNL     1      -8.076   0.969 125.887  0.00  0.00    +0.000 C 
ATOM      6  C   UNL     1      -6.723   1.190 125.169  0.00  0.00    +0.000 C 
ATOM      7  C   UNL     1      -8.653   2.350 126.160  0.00  0.00    +0.000 C 
ATOM      8  C   UNL     1      -7.795   3.148 127.082  0.00  0.00    +0.000 C 
ATOM      9  C   UNL     1      -7.478   2.385 128.368  0.00  0.00    +0.000 C 
ATOM     10  C   UNL     1      -6.973   0.922 128.135  0.00  0.00    +0.000 C 
ATOM     11  C   UNL     1      -6.716   0.189 129.451  0.00  0.00    +0.000 C 
ATOM     12  C   UNL     1      -5.844   0.991 130.417  0.00  0.00    +0.000 C 
ATOM     13  C   UNL     1      -6.418   2.393 130.596  0.00  0.00    +0.000 C 
ATOM     14  C   UNL     1      -5.819   3.113 131.827  0.00  0.00    +0.000 C 
ATOM     15  C   UNL     1      -6.308   4.585 131.997  0.00  0.00    +0.000 C 
ATOM     16  C   UNL     1      -6.323   5.407 130.669  0.00  0.00    +0.000 C 
ATOM     17  C   UNL     1      -7.037   4.581 129.553  0.00  0.00    +0.000 C 
ATOM     18  C   UNL     1      -6.452   3.172 129.218  0.00  0.00    +0.000 C 
ATOM     19  C   UNL     1      -5.169   3.182 128.229  0.00  0.00    +0.000 C 
ENDROOT
BRANCH  16  20
ATOM     20  N   UNL     1      -4.889   5.946 130.262  0.00  0.00    +0.000 N 
ATOM     21  C   UNL     1      -4.845   7.392 130.603  0.00  0.00    +0.000 C 
ATOM     22  C   UNL     1      -3.843   5.015 130.967  0.00  0.00    +0.000 C 
ATOM     23  C   UNL     1      -2.424   5.496 130.756  0.00  0.00    +0.000 C 
ATOM     24  C   UNL     1      -2.144   5.603 129.268  0.00  0.00    +0.000 C 
ATOM     25  C   UNL     1      -3.106   6.582 128.617  0.00  0.00    +0.000 C 
ATOM     26  C   UNL     1      -4.549   6.045 128.747  0.00  0.00    +0.000 C 
ENDBRANCH  16  20
BRANCH   3  27
ATOM     27  N   UNL     1      -7.711  -2.283 124.447  0.00  0.00    +0.000 N 
ATOM     28  C   UNL     1      -8.777  -3.155 123.768  0.00  0.00    +0.000 C 
ATOM     29  C   UNL     1      -7.074  -1.337 123.365  0.00  0.00    +0.000 C 
ATOM     30  C   UNL     1      -6.096  -2.085 122.458  0.00  0.00    +0.000 C 
ATOM     31  C   UNL     1      -5.006  -2.771 123.266  0.00  0.00    +0.000 C 
ATOM     32  C   UNL     1      -5.670  -3.835 124.106  0.00  0.00    +0.000 C 
ATOM     33  C   UNL     1      -6.617  -3.159 125.063  0.00  0.00    +0.000 C 
ENDBRANCH   3  27
BRANCH   4  34
ATOM     34  O   UNL     1      -8.954   0.163 123.701  0.00  0.00    +0.000 OA
BRANCH  34  35
ATOM     35  C   UNL     1      -9.736   0.894 122.881  0.00  0.00    +0.000 C 
ATOM     36  C   UNL     1      -9.250   2.238 122.461  0.00  0.00    +0.000 C 
ATOM     37  O   UNL     1     -10.767   0.416 122.462  0.00  0.00    +0.000 OA
ENDBRANCH  34  35
ENDBRANCH   4  34
BRANCH  15  38
ATOM     38  O   UNL     1      -7.652   4.477 132.535  0.00  0.00    +0.000 OA
BRANCH  38  39
ATOM     39  C   UNL     1      -8.213   5.279 133.472  0.00  0.00    +0.000 C 
ATOM     40  C   UNL     1      -7.871   5.055 134.920  0.00  0.00    +0.000 C 
ATOM     41  O   UNL     1      -8.917   6.214 133.132  0.00  0.00    +0.000 OA
ENDBRANCH  38  39
ENDBRANCH  15  38
TORSDOF 6
ENDMDL
MODEL 2
REMARK VINA RESULT:      -8.9      4.437      9.564
REMARK  Name = Pancuronium
REMARK  12 active torsions:
REMARK  status: ('A' for Active; 'I' for Inactive)
REMARK    1  A    between atoms: C_4  and  N_39
REMARK    2  A    between atoms: C_5  and  O_6
REMARK    3  A    between atoms: O_6  and  C_7
REMARK    4  A    between atoms: C_7  and  C_8
REMARK    5  A    between atoms: C_10  and  C_11
REMARK    6  A    between atoms: C_23  and  O_24
REMARK    7  A    between atoms: O_24  and  C_25
REMARK    8  A    between atoms: C_25  and  C_26
REMARK    9  A    between atoms: C_28  and  N_32
REMARK   10  A    between atoms: C_30  and  C_31
REMARK   11  A    between atoms: N_32  and  C_33
REMARK   12  A    between atoms: N_39  and  C_40
REMARK                            x       y       z     vdW  Elec       q    Type
REMARK                         _______ _______ _______ _____ _____    ______ ____
ROOT
ATOM      1  C   UNL     1      -5.783  -3.315 130.789  0.00  0.00    +0.000 C 
ATOM      2  C   UNL     1      -6.357  -3.971 132.034  0.00  0.00    +0.000 C 
ATOM      3  C   UNL     1      -5.205  -3.877 133.080  0.00  0.00    +0.000 C 
ATOM      4  C   UNL     1      -4.142  -2.902 132.436  0.00  0.00    +0.000 C 
ATOM      5  C   UNL     1      -4.925  -2.160 131.331  0.00  0.00    +0.000 C 
ATOM      6  C   UNL     1      -5.738  -0.965 131.883  0.00  0.00    +0.000 C 
ATOM      7  C   UNL     1      -4.084  -1.621 130.184  0.00  0.00    +0.000 C 
ATOM      8  C   UNL     1      -4.923  -1.109 129.062  0.00  0.00    +0.000 C 
ATOM      9  C   UNL     1      -5.946  -2.146 128.598  0.00  0.00    +0.000 C 
ATOM     10  C   UNL     1      -6.767  -2.799 129.760  0.00  0.00    +0.000 C 
ATOM     11  C   UNL     1      -7.740  -3.860 129.247  0.00  0.00    +0.000 C 
ATOM     12  C   UNL     1      -8.607  -3.361 128.091  0.00  0.00    +0.000 C 
ATOM     13  C   UNL     1      -7.725  -2.757 127.001  0.00  0.00    +0.000 C 
ATOM     14  C   UNL     1      -8.486  -2.588 125.666  0.00  0.00    +0.000 C 
ATOM     15  C   UNL     1      -7.653  -1.887 124.548  0.00  0.00    +0.000 C 
ATOM     16  C   UNL     1      -6.855  -0.638 125.040  0.00  0.00    +0.000 C 
ATOM     17  C   UNL     1      -6.074  -0.999 126.342  0.00  0.00    +0.000 C 
ATOM     18  C   UNL     1      -6.905  -1.521 127.556  0.00  0.00    +0.000 C 
ATOM     19  C   UNL     1      -7.622  -0.369 128.442  0.00  0.00    +0.000 C 
ENDROOT
BRANCH  16  20
ATOM     20  N   UNL     1      -7.756   0.660 125.159  0.00  0.00    +0.000 N 
ATOM     21  C   UNL     1      -9.102   0.226 125.618  0.00  0.00    +0.000 C 
ATOM     22  C   UNL     1      -6.978   1.663 126.078  0.00  0.00    +0.000 C 
ATOM     23  C   UNL     1      -7.788   2.907 126.373  0.00  0.00    +0.000 C 
ATOM     24  C   UNL     1      -8.193   3.565 125.066  0.00  0.00    +0.000 C 
ATOM     25  C   UNL     1      -9.027   2.612 124.229  0.00  0.00    +0.000 C 
ATOM     26  C   UNL     1      -8.171   1.383 123.846  0.00  0.00    +0.000 C 
ENDBRANCH  16  20
BRANCH   3  27
ATOM     27  N   UNL     1      -5.736  -3.515 134.539  0.00  0.00    +0.000 N 
ATOM     28  C   UNL     1      -7.091  -4.226 134.660  0.00  0.00    +0.000 C 
ATOM     29  C   UNL     1      -4.769  -4.086 135.640  0.00  0.00    +0.000 C 
ATOM     30  C   UNL     1      -5.100  -3.538 137.029  0.00  0.00    +0.000 C 
ATOM     31  C   UNL     1      -5.076  -2.018 137.044  0.00  0.00    +0.000 C 
ATOM     32  C   UNL     1      -6.193  -1.540 136.147  0.00  0.00    +0.000 C 
ATOM     33  C   UNL     1      -5.903  -2.007 134.745  0.00  0.00    +0.000 C 
ENDBRANCH   3  27
BRANCH   4  34
ATOM     34  O   UNL     1      -3.578  -2.038 133.423  0.00  0.00    +0.000 OA
BRANCH  34  35
ATOM     35  C   UNL     1      -2.484  -1.254 133.368  0.00  0.00    +0.000 C 
ATOM     36  C   UNL     1      -2.663   0.215 133.536  0.00  0.00    +0.000 C 
ATOM     37  O   UNL     1      -1.392  -1.766 133.254  0.00  0.00    +0.000 OA
ENDBRANCH  34  35
ENDBRANCH   4  34
BRANCH  15  38
ATOM     38  O   UNL     1      -6.740  -2.907 124.063  0.00  0.00    +0.000 OA
BRANCH  38  39
ATOM     39  C   UNL     1      -5.721  -2.728 123.188  0.00  0.00    +0.000 C 
ATOM     40  C   UNL     1      -4.393  -3.373 123.477  0.00  0.00    +0.000 C 
ATOM     41  O   UNL     1      -5.910  -2.122 122.149  0.00  0.00    +0.000 OA
ENDBRANCH  38  39
ENDBRANCH  15  38
TORSDOF 6
ENDMDL
MODEL 3
REMARK VINA RESULT:      -8.9      1.425      1.957
REMARK  Name = Pancuronium
REMARK  12 active torsions:
REMARK  status: ('A' for Active; 'I' for Inactive)
REMARK    1  A    between atoms: C_4  and  N_39
REMARK    2  A    between atoms: C_5  and  O_6
REMARK    3  A    between atoms: O_6  and  C_7
REMARK    4  A    between atoms: C_7  and  C_8
REMARK    5  A    between atoms: C_10  and  C_11
REMARK    6  A    between atoms: C_23  and  O_24
REMARK    7  A    between atoms: O_24  and  C_25
REMARK    8  A    between atoms: C_25  and  C_26
REMARK    9  A    between atoms: C_28  and  N_32
REMARK   10  A    between atoms: C_30  and  C_31
REMARK   11  A    between atoms: N_32  and  C_33
REMARK   12  A    between atoms: N_39  and  C_40
REMARK                            x       y       z     vdW  Elec       q    Type
REMARK                         _______ _______ _______ _____ _____    ______ ____
ROOT
ATOM      1  C   UNL     1      -7.858  -0.358 128.146  0.00  0.00    +0.000 C 
ATOM      2  C   UNL     1      -7.699  -1.718 127.484  0.00  0.00    +0.000 C 
ATOM      3  C   UNL     1      -8.613  -1.638 126.224  0.00  0.00    +0.000 C 
ATOM      4  C   UNL     1      -9.009  -0.114 126.098  0.00  0.00    +0.000 C 
ATOM      5  C   UNL     1      -7.968   0.624 126.967  0.00  0.00    +0.000 C 
ATOM      6  C   UNL     1      -6.639   0.872 126.215  0.00  0.00    +0.000 C 
ATOM      7  C   UNL     1      -8.414   1.970 127.518  0.00  0.00    +0.000 C 
ATOM      8  C   UNL     1      -7.447   2.521 128.512  0.00  0.00    +0.000 C 
ATOM      9  C   UNL     1      -7.132   1.513 129.618  0.00  0.00    +0.000 C 
ATOM     10  C   UNL     1      -6.764   0.085 129.095  0.00  0.00    +0.000 C 
ATOM     11  C   UNL     1      -6.505  -0.895 130.240  0.00  0.00    +0.000 C 
ATOM     12  C   UNL     1      -5.522  -0.350 131.276  0.00  0.00    +0.000 C 
ATOM     13  C   UNL     1      -5.967   1.034 131.740  0.00  0.00    +0.000 C 
ATOM     14  C   UNL     1      -5.250   1.470 133.038  0.00  0.00    +0.000 C 
ATOM     15  C   UNL     1      -5.604   2.918 133.499  0.00  0.00    +0.000 C 
ATOM     16  C   UNL     1      -5.615   3.968 132.343  0.00  0.00    +0.000 C 
ATOM     17  C   UNL     1      -6.450   3.415 131.146  0.00  0.00    +0.000 C 
ATOM     18  C   UNL     1      -6.003   2.053 130.527  0.00  0.00    +0.000 C 
ATOM     19  C   UNL     1      -4.774   2.149 129.476  0.00  0.00    +0.000 C 
ENDROOT
BRANCH  16  20
ATOM     20  N   UNL     1      -4.162   4.465 131.949  0.00  0.00    +0.000 N 
ATOM     21  C   UNL     1      -3.222   3.345 132.214  0.00  0.00    +0.000 C 
ATOM     22  C   UNL     1      -4.252   4.988 130.475  0.00  0.00    +0.000 C 
ATOM     23  C   UNL     1      -2.896   5.385 129.931  0.00  0.00    +0.000 C 
ATOM     24  C   UNL     1      -2.274   6.427 130.843  0.00  0.00    +0.000 C 
ATOM     25  C   UNL     1      -2.107   5.870 132.246  0.00  0.00    +0.000 C 
ATOM     26  C   UNL     1      -3.497   5.553 132.841  0.00  0.00    +0.000 C 
ENDBRANCH  16  20
BRANCH   3  27
ATOM     27  N   UNL     1      -7.951  -2.326 124.948  0.00  0.00    +0.000 N 
ATOM     28  C   UNL     1      -8.264  -3.823 125.092  0.00  0.00    +0.000 C 
ATOM     29  C   UNL     1      -8.615  -1.800 123.624  0.00  0.00    +0.000 C 
ATOM     30  C   UNL     1      -7.836  -2.234 122.383  0.00  0.00    +0.000 C 
ATOM     31  C   UNL     1      -6.384  -1.788 122.457  0.00  0.00    +0.000 C 
ATOM     32  C   UNL     1      -5.745  -2.523 123.610  0.00  0.00    +0.000 C 
ATOM     33  C   UNL     1      -6.437  -2.101 124.880  0.00  0.00    +0.000 C 
ENDBRANCH   3  27
BRANCH   4  34
ATOM     34  O   UNL     1      -9.018   0.300 124.732  0.00  0.00    +0.000 OA
BRANCH  34  35
ATOM     35  C   UNL     1      -9.718   1.278 124.124  0.00  0.00    +0.000 C 
ATOM     36  C   UNL     1      -8.961   2.362 123.439  0.00  0.00    +0.000 C 
ATOM     37  O   UNL     1     -10.927   1.213 124.096  0.00  0.00    +0.000 OA
ENDBRANCH  34  35
ENDBRANCH   4  34
BRANCH  15  38
ATOM     38  O   UNL     1      -6.924   2.813 134.094  0.00  0.00    +0.000 OA
BRANCH  38  39
ATOM     39  C   UNL     1      -7.745   3.840 134.425  0.00  0.00    +0.000 C 
ATOM     40  C   UNL     1      -9.145   3.858 133.873  0.00  0.00    +0.000 C 
ATOM     41  O   UNL     1      -7.373   4.684 135.220  0.00  0.00    +0.000 OA
ENDBRANCH  38  39
ENDBRANCH  15  38
TORSDOF 6
ENDMDL
MODEL 4
REMARK VINA RESULT:      -8.7      1.766      9.395
REMARK  Name = Pancuronium
REMARK  12 active torsions:
REMARK  status: ('A' for Active; 'I' for Inactive)
REMARK    1  A    between atoms: C_4  and  N_39
REMARK    2  A    between atoms: C_5  and  O_6
REMARK    3  A    between atoms: O_6  and  C_7
REMARK    4  A    between atoms: C_7  and  C_8
REMARK    5  A    between atoms: C_10  and  C_11
REMARK    6  A    between atoms: C_23  and  O_24
REMARK    7  A    between atoms: O_24  and  C_25
REMARK    8  A    between atoms: C_25  and  C_26
REMARK    9  A    between atoms: C_28  and  N_32
REMARK   10  A    between atoms: C_30  and  C_31
REMARK   11  A    between atoms: N_32  and  C_33
REMARK   12  A    between atoms: N_39  and  C_40
REMARK                            x       y       z     vdW  Elec       q    Type
REMARK                         _______ _______ _______ _____ _____    ______ ____
ROOT
ATOM      1  C   UNL     1      -6.147   4.469 128.890  0.00  0.00    +0.000 C 
ATOM      2  C   UNL     1      -4.896   4.889 129.645  0.00  0.00    +0.000 C 
ATOM      3  C   UNL     1      -5.437   5.465 130.989  0.00  0.00    +0.000 C 
ATOM      4  C   UNL     1      -6.964   5.061 131.025  0.00  0.00    +0.000 C 
ATOM      5  C   UNL     1      -7.083   3.929 129.983  0.00  0.00    +0.000 C 
ATOM      6  C   UNL     1      -6.671   2.552 130.555  0.00  0.00    +0.000 C 
ATOM      7  C   UNL     1      -8.464   3.748 129.371  0.00  0.00    +0.000 C 
ATOM      8  C   UNL     1      -8.454   2.787 128.230  0.00  0.00    +0.000 C 
ATOM      9  C   UNL     1      -7.396   3.153 127.188  0.00  0.00    +0.000 C 
ATOM     10  C   UNL     1      -5.981   3.444 127.788  0.00  0.00    +0.000 C 
ATOM     11  C   UNL     1      -4.975   3.850 126.711  0.00  0.00    +0.000 C 
ATOM     12  C   UNL     1      -4.951   2.883 125.527  0.00  0.00    +0.000 C 
ATOM     13  C   UNL     1      -6.367   2.672 124.998  0.00  0.00    +0.000 C 
ATOM     14  C   UNL     1      -6.370   2.025 123.593  0.00  0.00    +0.000 C 
ATOM     15  C   UNL     1      -7.797   1.704 123.050  0.00  0.00    +0.000 C 
ATOM     16  C   UNL     1      -8.745   1.047 124.104  0.00  0.00    +0.000 C 
ATOM     17  C   UNL     1      -8.694   1.867 125.432  0.00  0.00    +0.000 C 
ATOM     18  C   UNL     1      -7.300   2.044 126.112  0.00  0.00    +0.000 C 
ATOM     19  C   UNL     1      -6.809   0.785 127.006  0.00  0.00    +0.000 C 
ENDROOT
BRANCH  16  20
ATOM     20  N   UNL     1      -8.482  -0.505 124.286  0.00  0.00    +0.000 N 
ATOM     21  C   UNL     1      -7.025  -0.733 124.101  0.00  0.00    +0.000 C 
ATOM     22  C   UNL     1      -9.096  -0.904 125.672  0.00  0.00    +0.000 C 
ATOM     23  C   UNL     1      -8.806  -2.347 126.025  0.00  0.00    +0.000 C 
ATOM     24  C   UNL     1      -9.322  -3.249 124.919  0.00  0.00    +0.000 C 
ATOM     25  C   UNL     1      -8.646  -2.911 123.602  0.00  0.00    +0.000 C 
ATOM     26  C   UNL     1      -9.018  -1.469 123.190  0.00  0.00    +0.000 C 
ENDBRANCH  16  20
BRANCH   3  27
ATOM     27  N   UNL     1      -4.541   5.040 132.237  0.00  0.00    +0.000 N 
ATOM     28  C   UNL     1      -4.798   6.119 133.300  0.00  0.00    +0.000 C 
ATOM     29  C   UNL     1      -5.005   3.651 132.808  0.00  0.00    +0.000 C 
ATOM     30  C   UNL     1      -4.012   3.093 133.828  0.00  0.00    +0.000 C 
ATOM     31  C   UNL     1      -2.616   2.979 133.236  0.00  0.00    +0.000 C 
ATOM     32  C   UNL     1      -2.138   4.379 132.935  0.00  0.00    +0.000 C 
ATOM     33  C   UNL     1      -3.050   4.975 131.894  0.00  0.00    +0.000 C 
ENDBRANCH   3  27
BRANCH   4  34
ATOM     34  O   UNL     1      -7.359   4.678 132.342  0.00  0.00    +0.000 OA
BRANCH  34  35
ATOM     35  C   UNL     1      -8.473   4.979 133.038  0.00  0.00    +0.000 C 
ATOM     36  C   UNL     1      -9.162   3.882 133.772  0.00  0.00    +0.000 C 
ATOM     37  O   UNL     1      -8.839   6.132 133.101  0.00  0.00    +0.000 OA
ENDBRANCH  34  35
ENDBRANCH   4  34
BRANCH  15  38
ATOM     38  O   UNL     1      -8.335   2.982 122.620  0.00  0.00    +0.000 OA
BRANCH  38  39
ATOM     39  C   UNL     1      -8.243   3.521 121.380  0.00  0.00    +0.000 C 
ATOM     40  C   UNL     1      -6.886   3.894 120.848  0.00  0.00    +0.000 C 
ATOM     41  O   UNL     1      -9.238   3.621 120.685  0.00  0.00    +0.000 OA
ENDBRANCH  38  39
ENDBRANCH  15  38
TORSDOF 6
ENDMDL
MODEL 5
REMARK VINA RESULT:      -8.6      1.539      2.160
REMARK  Name = Pancuronium
REMARK  12 active torsions:
REMARK  status: ('A' for Active; 'I' for Inactive)
REMARK    1  A    between atoms: C_4  and  N_39
REMARK    2  A    between atoms: C_5  and  O_6
REMARK    3  A    between atoms: O_6  and  C_7
REMARK    4  A    between atoms: C_7  and  C_8
REMARK    5  A    between atoms: C_10  and  C_11
REMARK    6  A    between atoms: C_23  and  O_24
REMARK    7  A    between atoms: O_24  and  C_25
REMARK    8  A    between atoms: C_25  and  C_26
REMARK    9  A    between atoms: C_28  and  N_32
REMARK   10  A    between atoms: C_30  and  C_31
REMARK   11  A    between atoms: N_32  and  C_33
REMARK   12  A    between atoms: N_39  and  C_40
REMARK                            x       y       z     vdW  Elec       q    Type
REMARK                         _______ _______ _______ _____ _____    ______ ____
ROOT
ATOM      1  C   UNL     1      -8.101   1.816 127.272  0.00  0.00    +0.000 C 
ATOM      2  C   UNL     1      -8.454   0.365 126.982  0.00  0.00    +0.000 C 
ATOM      3  C   UNL     1      -8.763   0.346 125.454  0.00  0.00    +0.000 C 
ATOM      4  C   UNL     1      -8.276   1.750 124.918  0.00  0.00    +0.000 C 
ATOM      5  C   UNL     1      -7.332   2.274 126.021  0.00  0.00    +0.000 C 
ATOM      6  C   UNL     1      -5.903   1.694 125.901  0.00  0.00    +0.000 C 
ATOM      7  C   UNL     1      -7.183   3.786 126.089  0.00  0.00    +0.000 C 
ATOM      8  C   UNL     1      -6.432   4.225 127.301  0.00  0.00    +0.000 C 
ATOM      9  C   UNL     1      -7.027   3.638 128.582  0.00  0.00    +0.000 C 
ATOM     10  C   UNL     1      -7.288   2.097 128.518  0.00  0.00    +0.000 C 
ATOM     11  C   UNL     1      -7.925   1.571 129.804  0.00  0.00    +0.000 C 
ATOM     12  C   UNL     1      -7.176   2.013 131.061  0.00  0.00    +0.000 C 
ATOM     13  C   UNL     1      -6.981   3.526 131.046  0.00  0.00    +0.000 C 
ATOM     14  C   UNL     1      -6.583   4.074 132.436  0.00  0.00    +0.000 C 
ATOM     15  C   UNL     1      -6.281   5.604 132.449  0.00  0.00    +0.000 C 
ATOM     16  C   UNL     1      -5.405   6.089 131.251  0.00  0.00    +0.000 C 
ATOM     17  C   UNL     1      -5.988   5.525 129.918  0.00  0.00    +0.000 C 
ATOM     18  C   UNL     1      -6.123   3.975 129.793  0.00  0.00    +0.000 C 
ATOM     19  C   UNL     1      -4.759   3.198 129.390  0.00  0.00    +0.000 C 
ENDROOT
BRANCH  16  20
ATOM     20  N   UNL     1      -3.861   5.799 131.460  0.00  0.00    +0.000 N 
ATOM     21  C   UNL     1      -3.250   5.650 130.113  0.00  0.00    +0.000 C 
ATOM     22  C   UNL     1      -3.308   6.948 132.371  0.00  0.00    +0.000 C 
ATOM     23  C   UNL     1      -1.808   6.855 132.552  0.00  0.00    +0.000 C 
ATOM     24  C   UNL     1      -1.453   5.492 133.116  0.00  0.00    +0.000 C 
ATOM     25  C   UNL     1      -1.911   4.392 132.174  0.00  0.00    +0.000 C 
ATOM     26  C   UNL     1      -3.452   4.423 132.062  0.00  0.00    +0.000 C 
ENDBRANCH  16  20
BRANCH   3  27
ATOM     27  N   UNL     1      -8.182  -0.951 124.732  0.00  0.00    +0.000 N 
ATOM     28  C   UNL     1      -8.821  -2.138 125.468  0.00  0.00    +0.000 C 
ATOM     29  C   UNL     1      -8.627  -0.996 123.225  0.00  0.00    +0.000 C 
ATOM     30  C   UNL     1      -7.879  -2.075 122.442  0.00  0.00    +0.000 C 
ATOM     31  C   UNL     1      -6.374  -1.887 122.540  0.00  0.00    +0.000 C 
ATOM     32  C   UNL     1      -5.987  -2.099 123.985  0.00  0.00    +0.000 C 
ATOM     33  C   UNL     1      -6.655  -1.033 124.813  0.00  0.00    +0.000 C 
ENDBRANCH   3  27
BRANCH   4  34
ATOM     34  O   UNL     1      -7.654   1.619 123.639  0.00  0.00    +0.000 OA
BRANCH  34  35
ATOM     35  C   UNL     1      -7.471   2.532 122.664  0.00  0.00    +0.000 C 
ATOM     36  C   UNL     1      -8.674   3.072 121.972  0.00  0.00    +0.000 C 
ATOM     37  O   UNL     1      -6.352   2.931 122.428  0.00  0.00    +0.000 OA
ENDBRANCH  34  35
ENDBRANCH   4  34
BRANCH  15  38
ATOM     38  O   UNL     1      -7.583   6.247 132.410  0.00  0.00    +0.000 OA
BRANCH  38  39
ATOM     39  C   UNL     1      -8.626   6.008 133.241  0.00  0.00    +0.000 C 
ATOM     40  C   UNL     1      -9.982   5.741 132.647  0.00  0.00    +0.000 C 
ATOM     41  O   UNL     1      -8.442   5.932 134.443  0.00  0.00    +0.000 OA
ENDBRANCH  38  39
ENDBRANCH  15  38
TORSDOF 6
ENDMDL
MODEL 6
REMARK VINA RESULT:      -8.5      4.700      7.264
REMARK  Name = Pancuronium
REMARK  12 active torsions:
REMARK  status: ('A' for Active; 'I' for Inactive)
REMARK    1  A    between atoms: C_4  and  N_39
REMARK    2  A    between atoms: C_5  and  O_6
REMARK    3  A    between atoms: O_6  and  C_7
REMARK    4  A    between atoms: C_7  and  C_8
REMARK    5  A    between atoms: C_10  and  C_11
REMARK    6  A    between atoms: C_23  and  O_24
REMARK    7  A    between atoms: O_24  and  C_25
REMARK    8  A    between atoms: C_25  and  C_26
REMARK    9  A    between atoms: C_28  and  N_32
REMARK   10  A    between atoms: C_30  and  C_31
REMARK   11  A    between atoms: N_32  and  C_33
REMARK   12  A    between atoms: N_39  and  C_40
REMARK                            x       y       z     vdW  Elec       q    Type
REMARK                         _______ _______ _______ _____ _____    ______ ____
ROOT
ATOM      1  C   UNL     1      -5.029   0.047 128.062  0.00  0.00    +0.000 C 
ATOM      2  C   UNL     1      -5.665   1.276 127.430  0.00  0.00    +0.000 C 
ATOM      3  C   UNL     1      -5.867   0.874 125.937  0.00  0.00    +0.000 C 
ATOM      4  C   UNL     1      -5.593  -0.681 125.888  0.00  0.00    +0.000 C 
ATOM      5  C   UNL     1      -5.713  -1.136 127.358  0.00  0.00    +0.000 C 
ATOM      6  C   UNL     1      -7.180  -1.374 127.786  0.00  0.00    +0.000 C 
ATOM      7  C   UNL     1      -4.946  -2.401 127.715  0.00  0.00    +0.000 C 
ATOM      8  C   UNL     1      -4.935  -2.658 129.184  0.00  0.00    +0.000 C 
ATOM      9  C   UNL     1      -4.451  -1.441 129.971  0.00  0.00    +0.000 C 
ATOM     10  C   UNL     1      -5.146  -0.099 129.565  0.00  0.00    +0.000 C 
ATOM     11  C   UNL     1      -4.593   1.092 130.348  0.00  0.00    +0.000 C 
ATOM     12  C   UNL     1      -4.566   0.849 131.857  0.00  0.00    +0.000 C 
ATOM     13  C   UNL     1      -3.857  -0.469 132.160  0.00  0.00    +0.000 C 
ATOM     14  C   UNL     1      -3.462  -0.585 133.650  0.00  0.00    +0.000 C 
ATOM     15  C   UNL     1      -2.819  -1.956 134.027  0.00  0.00    +0.000 C 
ATOM     16  C   UNL     1      -3.555  -3.192 133.420  0.00  0.00    +0.000 C 
ATOM     17  C   UNL     1      -3.801  -2.955 131.897  0.00  0.00    +0.000 C 
ATOM     18  C   UNL     1      -4.616  -1.687 131.490  0.00  0.00    +0.000 C 
ATOM     19  C   UNL     1      -6.225  -1.839 131.609  0.00  0.00    +0.000 C 
ENDROOT
BRANCH  16  20
ATOM     20  N   UNL     1      -4.854  -3.596 134.234  0.00  0.00    +0.000 N 
ATOM     21  C   UNL     1      -4.468  -4.677 135.178  0.00  0.00    +0.000 C 
ATOM     22  C   UNL     1      -5.423  -2.274 134.855  0.00  0.00    +0.000 C 
ATOM     23  C   UNL     1      -6.605  -2.538 135.763  0.00  0.00    +0.000 C 
ATOM     24  C   UNL     1      -7.677  -3.282 134.989  0.00  0.00    +0.000 C 
ATOM     25  C   UNL     1      -7.137  -4.605 134.474  0.00  0.00    +0.000 C 
ATOM     26  C   UNL     1      -5.991  -4.336 133.472  0.00  0.00    +0.000 C 
ENDBRANCH  16  20
BRANCH   3  27
ATOM     27  N   UNL     1      -7.258   1.388 125.352  0.00  0.00    +0.000 N 
ATOM     28  C   UNL     1      -7.483   2.761 126.003  0.00  0.00    +0.000 C 
ATOM     29  C   UNL     1      -7.169   1.579 123.794  0.00  0.00    +0.000 C 
ATOM     30  C   UNL     1      -8.545   1.814 123.170  0.00  0.00    +0.000 C 
ATOM     31  C   UNL     1      -9.506   0.686 123.508  0.00  0.00    +0.000 C 
ATOM     32  C   UNL     1      -9.732   0.719 125.000  0.00  0.00    +0.000 C 
ATOM     33  C   UNL     1      -8.418   0.444 125.682  0.00  0.00    +0.000 C 
ENDBRANCH   3  27
BRANCH   4  34
ATOM     34  O   UNL     1      -6.507  -1.332 125.005  0.00  0.00    +0.000 OA
BRANCH  34  35
ATOM     35  C   UNL     1      -6.275  -2.049 123.888  0.00  0.00    +0.000 C 
ATOM     36  C   UNL     1      -5.262  -3.139 123.949  0.00  0.00    +0.000 C 
ATOM     37  O   UNL     1      -6.937  -1.833 122.896  0.00  0.00    +0.000 OA
ENDBRANCH  34  35
ENDBRANCH   4  34
BRANCH  15  38
ATOM     38  O   UNL     1      -1.458  -1.886 133.523  0.00  0.00    +0.000 OA
BRANCH  38  39
ATOM     39  C   UNL     1      -0.322  -1.912 134.261  0.00  0.00    +0.000 C 
ATOM     40  C   UNL     1      -0.424  -1.789 135.757  0.00  0.00    +0.000 C 
ATOM     41  O   UNL     1       0.751  -2.113 133.720  0.00  0.00    +0.000 OA
ENDBRANCH  38  39
ENDBRANCH  15  38
TORSDOF 6
ENDMDL
MODEL 7
REMARK VINA RESULT:      -8.4      1.577      9.589
REMARK  Name = Pancuronium
REMARK  12 active torsions:
REMARK  status: ('A' for Active; 'I' for Inactive)
REMARK    1  A    between atoms: C_4  and  N_39
REMARK    2  A    between atoms: C_5  and  O_6
REMARK    3  A    between atoms: O_6  and  C_7
REMARK    4  A    between atoms: C_7  and  C_8
REMARK    5  A    between atoms: C_10  and  C_11
REMARK    6  A    between atoms: C_23  and  O_24
REMARK    7  A    between atoms: O_24  and  C_25
REMARK    8  A    between atoms: C_25  and  C_26
REMARK    9  A    between atoms: C_28  and  N_32
REMARK   10  A    between atoms: C_30  and  C_31
REMARK   11  A    between atoms: N_32  and  C_33
REMARK   12  A    between atoms: N_39  and  C_40
REMARK                            x       y       z     vdW  Elec       q    Type
REMARK                         _______ _______ _______ _____ _____    ______ ____
ROOT
ATOM      1  C   UNL     1      -5.604   4.372 128.698  0.00  0.00    +0.000 C 
ATOM      2  C   UNL     1      -4.489   5.398 128.820  0.00  0.00    +0.000 C 
ATOM      3  C   UNL     1      -4.599   5.909 130.289  0.00  0.00    +0.000 C 
ATOM      4  C   UNL     1      -5.601   4.913 130.997  0.00  0.00    +0.000 C 
ATOM      5  C   UNL     1      -5.631   3.679 130.071  0.00  0.00    +0.000 C 
ATOM      6  C   UNL     1      -4.445   2.719 130.325  0.00  0.00    +0.000 C 
ATOM      7  C   UNL     1      -6.895   2.836 130.146  0.00  0.00    +0.000 C 
ATOM      8  C   UNL     1      -6.942   1.793 129.081  0.00  0.00    +0.000 C 
ATOM      9  C   UNL     1      -6.720   2.390 127.691  0.00  0.00    +0.000 C 
ATOM     10  C   UNL     1      -5.484   3.343 127.594  0.00  0.00    +0.000 C 
ATOM     11  C   UNL     1      -5.335   3.949 126.198  0.00  0.00    +0.000 C 
ATOM     12  C   UNL     1      -5.387   2.899 125.088  0.00  0.00    +0.000 C 
ATOM     13  C   UNL     1      -6.630   2.028 125.251  0.00  0.00    +0.000 C 
ATOM     14  C   UNL     1      -6.941   1.215 123.974  0.00  0.00    +0.000 C 
ATOM     15  C   UNL     1      -8.149   0.239 124.125  0.00  0.00    +0.000 C 
ATOM     16  C   UNL     1      -8.149  -0.569 125.462  0.00  0.00    +0.000 C 
ATOM     17  C   UNL     1      -7.910   0.405 126.658  0.00  0.00    +0.000 C 
ATOM     18  C   UNL     1      -6.605   1.261 126.637  0.00  0.00    +0.000 C 
ATOM     19  C   UNL     1      -5.273   0.493 127.147  0.00  0.00    +0.000 C 
ENDROOT
BRANCH  16  20
ATOM     20  N   UNL     1      -7.167  -1.813 125.429  0.00  0.00    +0.000 N 
ATOM     21  C   UNL     1      -6.957  -2.250 126.834  0.00  0.00    +0.000 C 
ATOM     22  C   UNL     1      -7.798  -2.856 124.444  0.00  0.00    +0.000 C 
ATOM     23  C   UNL     1      -7.015  -4.151 124.413  0.00  0.00    +0.000 C 
ATOM     24  C   UNL     1      -5.572  -3.857 124.046  0.00  0.00    +0.000 C 
ATOM     25  C   UNL     1      -4.947  -2.919 125.064  0.00  0.00    +0.000 C 
ATOM     26  C   UNL     1      -5.684  -1.562 125.031  0.00  0.00    +0.000 C 
ENDBRANCH  16  20
BRANCH   3  27
ATOM     27  N   UNL     1      -3.173   6.114 130.971  0.00  0.00    +0.000 N 
ATOM     28  C   UNL     1      -2.237   6.525 129.825  0.00  0.00    +0.000 C 
ATOM     29  C   UNL     1      -3.222   7.281 132.023  0.00  0.00    +0.000 C 
ATOM     30  C   UNL     1      -1.955   7.331 132.878  0.00  0.00    +0.000 C 
ATOM     31  C   UNL     1      -1.705   6.004 133.576  0.00  0.00    +0.000 C 
ATOM     32  C   UNL     1      -1.426   4.977 132.504  0.00  0.00    +0.000 C 
ATOM     33  C   UNL     1      -2.658   4.840 131.649  0.00  0.00    +0.000 C 
ENDBRANCH   3  27
BRANCH   4  34
ATOM     34  O   UNL     1      -5.178   4.625 132.329  0.00  0.00    +0.000 OA
BRANCH  34  35
ATOM     35  C   UNL     1      -5.819   4.797 133.502  0.00  0.00    +0.000 C 
ATOM     36  C   UNL     1      -6.741   3.722 133.963  0.00  0.00    +0.000 C 
ATOM     37  O   UNL     1      -5.579   5.778 134.172  0.00  0.00    +0.000 OA
ENDBRANCH  34  35
ENDBRANCH   4  34
BRANCH  15  38
ATOM     38  O   UNL     1      -9.328   1.082 124.049  0.00  0.00    +0.000 OA
BRANCH  38  39
ATOM     39  C   UNL     1     -10.080   1.321 122.947  0.00  0.00    +0.000 C 
ATOM     40  C   UNL     1      -9.565   2.281 121.909  0.00  0.00    +0.000 C 
ATOM     41  O   UNL     1     -11.115   0.704 122.771  0.00  0.00    +0.000 OA
ENDBRANCH  38  39
ENDBRANCH  15  38
TORSDOF 6
ENDMDL
MODEL 8
REMARK VINA RESULT:      -8.3      4.297      6.804
REMARK  Name = Pancuronium
REMARK  12 active torsions:
REMARK  status: ('A' for Active; 'I' for Inactive)
REMARK    1  A    between atoms: C_4  and  N_39
REMARK    2  A    between atoms: C_5  and  O_6
REMARK    3  A    between atoms: O_6  and  C_7
REMARK    4  A    between atoms: C_7  and  C_8
REMARK    5  A    between atoms: C_10  and  C_11
REMARK    6  A    between atoms: C_23  and  O_24
REMARK    7  A    between atoms: O_24  and  C_25
REMARK    8  A    between atoms: C_25  and  C_26
REMARK    9  A    between atoms: C_28  and  N_32
REMARK   10  A    between atoms: C_30  and  C_31
REMARK   11  A    between atoms: N_32  and  C_33
REMARK   12  A    between atoms: N_39  and  C_40
REMARK                            x       y       z     vdW  Elec       q    Type
REMARK                         _______ _______ _______ _____ _____    ______ ____
ROOT
ATOM      1  C   UNL     1      -6.353  -0.715 128.391  0.00  0.00    +0.000 C 
ATOM      2  C   UNL     1      -7.415  -0.138 127.468  0.00  0.00    +0.000 C 
ATOM      3  C   UNL     1      -6.989  -0.620 126.048  0.00  0.00    +0.000 C 
ATOM      4  C   UNL     1      -5.857  -1.694 126.300  0.00  0.00    +0.000 C 
ATOM      5  C   UNL     1      -6.030  -2.089 127.782  0.00  0.00    +0.000 C 
ATOM      6  C   UNL     1      -7.133  -3.154 127.986  0.00  0.00    +0.000 C 
ATOM      7  C   UNL     1      -4.780  -2.623 128.465  0.00  0.00    +0.000 C 
ATOM      8  C   UNL     1      -4.965  -2.782 129.937  0.00  0.00    +0.000 C 
ATOM      9  C   UNL     1      -5.482  -1.498 130.586  0.00  0.00    +0.000 C 
ATOM     10  C   UNL     1      -6.710  -0.861 129.855  0.00  0.00    +0.000 C 
ATOM     11  C   UNL     1      -7.157   0.443 130.516  0.00  0.00    +0.000 C 
ATOM     12  C   UNL     1      -7.348   0.307 132.027  0.00  0.00    +0.000 C 
ATOM     13  C   UNL     1      -6.100  -0.306 132.657  0.00  0.00    +0.000 C 
ATOM     14  C   UNL     1      -6.073  -0.119 134.191  0.00  0.00    +0.000 C 
ATOM     15  C   UNL     1      -4.862  -0.811 134.890  0.00  0.00    +0.000 C 
ATOM     16  C   UNL     1      -4.573  -2.257 134.375  0.00  0.00    +0.000 C 
ATOM     17  C   UNL     1      -4.545  -2.258 132.815  0.00  0.00    +0.000 C 
ATOM     18  C   UNL     1      -5.823  -1.753 132.074  0.00  0.00    +0.000 C 
ATOM     19  C   UNL     1      -7.014  -2.843 131.940  0.00  0.00    +0.000 C 
ENDROOT
BRANCH  16  20
ATOM     20  N   UNL     1      -5.539  -3.342 135.011  0.00  0.00    +0.000 N 
ATOM     21  C   UNL     1      -4.814  -3.972 136.145  0.00  0.00    +0.000 C 
ATOM     22  C   UNL     1      -6.882  -2.606 135.342  0.00  0.00    +0.000 C 
ATOM     23  C   UNL     1      -7.857  -3.507 136.069  0.00  0.00    +0.000 C 
ATOM     24  C   UNL     1      -8.107  -4.752 135.237  0.00  0.00    +0.000 C 
ATOM     25  C   UNL     1      -6.808  -5.504 135.005  0.00  0.00    +0.000 C 
ATOM     26  C   UNL     1      -5.845  -4.621 134.180  0.00  0.00    +0.000 C 
ENDBRANCH  16  20
BRANCH   3  27
ATOM     27  N   UNL     1      -8.233  -1.068 125.158  0.00  0.00    +0.000 N 
ATOM     28  C   UNL     1      -9.409  -0.216 125.658  0.00  0.00    +0.000 C 
ATOM     29  C   UNL     1      -7.981  -0.737 123.642  0.00  0.00    +0.000 C 
ATOM     30  C   UNL     1      -9.028  -1.384 122.736  0.00  0.00    +0.000 C 
ATOM     31  C   UNL     1      -9.085  -2.889 122.943  0.00  0.00    +0.000 C 
ATOM     32  C   UNL     1      -9.569  -3.132 124.353  0.00  0.00    +0.000 C 
ATOM     33  C   UNL     1      -8.553  -2.558 125.306  0.00  0.00    +0.000 C 
ENDBRANCH   3  27
BRANCH   4  34
ATOM     34  O   UNL     1      -5.982  -2.788 125.392  0.00  0.00    +0.000 OA
BRANCH  34  35
ATOM     35  C   UNL     1      -5.273  -3.085 124.285  0.00  0.00    +0.000 C 
ATOM     36  C   UNL     1      -4.862  -4.500 124.072  0.00  0.00    +0.000 C 
ATOM     37  O   UNL     1      -5.052  -2.215 123.471  0.00  0.00    +0.000 OA
ENDBRANCH  34  35
ENDBRANCH   4  34
BRANCH  15  38
ATOM     38  O   UNL     1      -3.726   0.053 134.622  0.00  0.00    +0.000 OA
BRANCH  38  39
ATOM     39  C   UNL     1      -3.672   1.395 134.803  0.00  0.00    +0.000 C 
ATOM     40  C   UNL     1      -3.363   2.275 133.622  0.00  0.00    +0.000 C 
ATOM     41  O   UNL     1      -3.951   1.875 135.887  0.00  0.00    +0.000 OA
ENDBRANCH  38  39
ENDBRANCH  15  38
TORSDOF 6
ENDMDL
MODEL 9
REMARK VINA RESULT:      -8.3      2.461      4.561
REMARK  Name = Pancuronium
REMARK  12 active torsions:
REMARK  status: ('A' for Active; 'I' for Inactive)
REMARK    1  A    between atoms: C_4  and  N_39
REMARK    2  A    between atoms: C_5  and  O_6
REMARK    3  A    between atoms: O_6  and  C_7
REMARK    4  A    between atoms: C_7  and  C_8
REMARK    5  A    between atoms: C_10  and  C_11
REMARK    6  A    between atoms: C_23  and  O_24
REMARK    7  A    between atoms: O_24  and  C_25
REMARK    8  A    between atoms: C_25  and  C_26
REMARK    9  A    between atoms: C_28  and  N_32
REMARK   10  A    between atoms: C_30  and  C_31
REMARK   11  A    between atoms: N_32  and  C_33
REMARK   12  A    between atoms: N_39  and  C_40
REMARK                            x       y       z     vdW  Elec       q    Type
REMARK                         _______ _______ _______ _____ _____    ______ ____
ROOT
ATOM      1  C   UNL     1      -5.709   0.337 127.737  0.00  0.00    +0.000 C 
ATOM      2  C   UNL     1      -5.407  -0.006 126.286  0.00  0.00    +0.000 C 
ATOM      3  C   UNL     1      -5.605  -1.550 126.210  0.00  0.00    +0.000 C 
ATOM      4  C   UNL     1      -6.296  -1.944 127.575  0.00  0.00    +0.000 C 
ATOM      5  C   UNL     1      -6.857  -0.613 128.117  0.00  0.00    +0.000 C 
ATOM      6  C   UNL     1      -8.224  -0.247 127.491  0.00  0.00    +0.000 C 
ATOM      7  C   UNL     1      -7.040  -0.547 129.626  0.00  0.00    +0.000 C 
ATOM      8  C   UNL     1      -7.379   0.828 130.094  0.00  0.00    +0.000 C 
ATOM      9  C   UNL     1      -6.381   1.866 129.581  0.00  0.00    +0.000 C 
ATOM     10  C   UNL     1      -6.090   1.770 128.047  0.00  0.00    +0.000 C 
ATOM     11  C   UNL     1      -5.051   2.797 127.596  0.00  0.00    +0.000 C 
ATOM     12  C   UNL     1      -5.375   4.214 128.070  0.00  0.00    +0.000 C 
ATOM     13  C   UNL     1      -5.627   4.216 129.575  0.00  0.00    +0.000 C 
ATOM     14  C   UNL     1      -5.581   5.642 130.169  0.00  0.00    +0.000 C 
ATOM     15  C   UNL     1      -5.927   5.704 131.690  0.00  0.00    +0.000 C 
ATOM     16  C   UNL     1      -7.161   4.838 132.096  0.00  0.00    +0.000 C 
ATOM     17  C   UNL     1      -7.013   3.406 131.492  0.00  0.00    +0.000 C 
ATOM     18  C   UNL     1      -6.861   3.292 129.943  0.00  0.00    +0.000 C 
ATOM     19  C   UNL     1      -8.248   3.376 129.110  0.00  0.00    +0.000 C 
ENDROOT
BRANCH  16  20
ATOM     20  N   UNL     1      -8.542   5.543 131.769  0.00  0.00    +0.000 N 
ATOM     21  C   UNL     1      -9.067   6.103 133.042  0.00  0.00    +0.000 C 
ATOM     22  C   UNL     1      -8.265   6.554 130.605  0.00  0.00    +0.000 C 
ATOM     23  C   UNL     1      -9.486   7.386 130.274  0.00  0.00    +0.000 C 
ATOM     24  C   UNL     1     -10.644   6.466 129.935  0.00  0.00    +0.000 C 
ATOM     25  C   UNL     1     -10.961   5.557 131.109  0.00  0.00    +0.000 C 
ATOM     26  C   UNL     1      -9.750   4.639 131.389  0.00  0.00    +0.000 C 
ENDBRANCH  16  20
BRANCH   3  27
ATOM     27  N   UNL     1      -6.332  -2.005 124.867  0.00  0.00    +0.000 N 
ATOM     28  C   UNL     1      -5.229  -2.649 124.013  0.00  0.00    +0.000 C 
ATOM     29  C   UNL     1      -7.431  -3.088 125.168  0.00  0.00    +0.000 C 
ATOM     30  C   UNL     1      -8.320  -3.351 123.952  0.00  0.00    +0.000 C 
ATOM     31  C   UNL     1      -8.967  -2.069 123.452  0.00  0.00    +0.000 C 
ATOM     32  C   UNL     1      -7.861  -1.171 122.953  0.00  0.00    +0.000 C 
ATOM     33  C   UNL     1      -6.969  -0.830 124.118  0.00  0.00    +0.000 C 
ENDBRANCH   3  27
BRANCH   4  34
ATOM     34  O   UNL     1      -7.290  -2.949 127.371  0.00  0.00    +0.000 OA
BRANCH  34  35
ATOM     35  C   UNL     1      -7.998  -3.666 128.266  0.00  0.00    +0.000 C 
ATOM     36  C   UNL     1      -9.387  -4.065 127.907  0.00  0.00    +0.000 C 
ATOM     37  O   UNL     1      -7.467  -4.019 129.297  0.00  0.00    +0.000 OA
ENDBRANCH  34  35
ENDBRANCH   4  34
BRANCH  15  38
ATOM     38  O   UNL     1      -4.734   5.227 132.368  0.00  0.00    +0.000 OA
BRANCH  38  39
ATOM     39  C   UNL     1      -3.520   5.829 132.386  0.00  0.00    +0.000 C 
ATOM     40  C   UNL     1      -2.302   5.019 132.032  0.00  0.00    +0.000 C 
ATOM     41  O   UNL     1      -3.436   7.024 132.606  0.00  0.00    +0.000 OA
ENDBRANCH  38  39
ENDBRANCH  15  38
TORSDOF 6
ENDMDL
