MODEL 1
REMARK VINA RESULT:      -7.0      0.000      0.000
REMARK  Name = Panobinostat
REMARK  9 active torsions:
REMARK  status: ('A' for Active; 'I' for Inactive)
REMARK    1  A    between atoms: C_1  and  C_2
REMARK    2  A    between atoms: C_3  and  C_4
REMARK    3  A    between atoms: C_4  and  C_5
REMARK    4  A    between atoms: C_5  and  N_6
REMARK    5  A    between atoms: N_6  and  C_7
REMARK    6  A    between atoms: C_7  and  C_8
REMARK    7  A    between atoms: C_11  and  C_12
REMARK    8  A    between atoms: C_13  and  C_14
REMARK    9  A    between atoms: N_16  and  O_17
REMARK                            x       y       z     vdW  Elec       q    Type
REMARK                         _______ _______ _______ _____ _____    ______ ____
ROOT
ATOM      1  N   UNL     1      -9.897  -2.990 125.452  0.00  0.00    +0.000 NA
ATOM      2  H   UNL     1     -10.780  -3.471 125.620  0.00  0.00    +0.000 HD
ENDROOT
BRANCH   1   3
ATOM      3  C   UNL     1      -9.209  -3.608 124.350  0.00  0.00    +0.000 C 
BRANCH   3   4
ATOM      4  C   UNL     1      -9.117  -2.774 123.087  0.00  0.00    +0.000 C 
BRANCH   4   7
ATOM      5  C   UNL     1      -5.729  -2.848 123.267  0.00  0.00    +0.000 C 
ATOM      6  C   UNL     1      -6.720  -1.729 123.287  0.00  0.00    +0.000 A 
ATOM      7  C   UNL     1      -8.111  -1.662 123.219  0.00  0.00    +0.000 A 
ATOM      8  C   UNL     1      -8.473  -0.276 123.299  0.00  0.00    +0.000 A 
ATOM      9  C   UNL     1      -9.706   0.411 123.304  0.00  0.00    +0.000 A 
ATOM     10  C   UNL     1      -9.718   1.806 123.402  0.00  0.00    +0.000 A 
ATOM     11  C   UNL     1      -8.524   2.518 123.472  0.00  0.00    +0.000 A 
ATOM     12  C   UNL     1      -7.288   1.861 123.461  0.00  0.00    +0.000 A 
ATOM     13  C   UNL     1      -7.299   0.462 123.385  0.00  0.00    +0.000 A 
ATOM     14  N   UNL     1      -6.260  -0.435 123.385  0.00  0.00    +0.000 N 
ATOM     15  H   UNL     1      -5.286  -0.179 123.454  0.00  0.00    +0.000 HD
ENDBRANCH   4   7
ENDBRANCH   3   4
ENDBRANCH   1   3
BRANCH   1  16
ATOM     16  C   UNL     1      -9.067  -3.095 126.662  0.00  0.00    +0.000 C 
BRANCH  16  17
ATOM     17  C   UNL     1      -8.145  -1.912 126.723  0.00  0.00    +0.000 A 
ATOM     18  C   UNL     1      -6.759  -2.064 126.785  0.00  0.00    +0.000 A 
ATOM     19  C   UNL     1      -5.946  -0.941 126.992  0.00  0.00    +0.000 A 
ATOM     20  C   UNL     1      -6.497   0.353 127.040  0.00  0.00    +0.000 A 
ATOM     21  C   UNL     1      -7.883   0.484 126.944  0.00  0.00    +0.000 A 
ATOM     22  C   UNL     1      -8.688  -0.626 126.763  0.00  0.00    +0.000 A 
BRANCH  20  23
ATOM     23  C   UNL     1      -5.621   1.537 127.125  0.00  0.00    +0.000 C 
ATOM     24  C   UNL     1      -4.551   1.747 126.336  0.00  0.00    +0.000 C 
BRANCH  24  25
ATOM     25  C   UNL     1      -3.670   2.923 126.506  0.00  0.00    +0.000 C 
ATOM     26  O   UNL     1      -4.090   4.076 126.607  0.00  0.00    +0.000 OA
ATOM     27  N   UNL     1      -2.338   2.608 126.541  0.00  0.00    +0.000 N 
ATOM     28  H   UNL     1      -1.941   1.679 126.463  0.00  0.00    +0.000 HD
BRANCH  27  29
ATOM     29  O   UNL     1      -1.425   3.674 126.687  0.00  0.00    +0.000 OA
ATOM     30  H   UNL     1      -0.568   3.206 126.789  0.00  0.00    +0.000 HD
ENDBRANCH  27  29
ENDBRANCH  24  25
ENDBRANCH  20  23
ENDBRANCH  16  17
ENDBRANCH   1  16
TORSDOF 8
ENDMDL
MODEL 2
REMARK VINA RESULT:      -7.0      3.136      5.389
REMARK  Name = Panobinostat
REMARK  9 active torsions:
REMARK  status: ('A' for Active; 'I' for Inactive)
REMARK    1  A    between atoms: C_1  and  C_2
REMARK    2  A    between atoms: C_3  and  C_4
REMARK    3  A    between atoms: C_4  and  C_5
REMARK    4  A    between atoms: C_5  and  N_6
REMARK    5  A    between atoms: N_6  and  C_7
REMARK    6  A    between atoms: C_7  and  C_8
REMARK    7  A    between atoms: C_11  and  C_12
REMARK    8  A    between atoms: C_13  and  C_14
REMARK    9  A    between atoms: N_16  and  O_17
REMARK                            x       y       z     vdW  Elec       q    Type
REMARK                         _______ _______ _______ _____ _____    ______ ____
ROOT
ATOM      1  N   UNL     1      -7.728  -0.303 128.219  0.00  0.00    +0.000 NA
ATOM      2  H   UNL     1      -8.056  -0.579 129.144  0.00  0.00    +0.000 HD
ENDROOT
BRANCH   1   3
ATOM      3  C   UNL     1      -6.378  -0.766 128.026  0.00  0.00    +0.000 C 
BRANCH   3   4
ATOM      4  C   UNL     1      -6.243  -2.159 127.443  0.00  0.00    +0.000 C 
BRANCH   4   7
ATOM      5  C   UNL     1      -9.012  -4.037 128.012  0.00  0.00    +0.000 C 
ATOM      6  C   UNL     1      -8.526  -3.284 126.815  0.00  0.00    +0.000 A 
ATOM      7  C   UNL     1      -7.398  -2.509 126.546  0.00  0.00    +0.000 A 
ATOM      8  C   UNL     1      -7.508  -2.059 125.188  0.00  0.00    +0.000 A 
ATOM      9  C   UNL     1      -6.685  -1.277 124.351  0.00  0.00    +0.000 A 
ATOM     10  C   UNL     1      -7.085  -1.016 123.037  0.00  0.00    +0.000 A 
ATOM     11  C   UNL     1      -8.298  -1.506 122.559  0.00  0.00    +0.000 A 
ATOM     12  C   UNL     1      -9.136  -2.279 123.371  0.00  0.00    +0.000 A 
ATOM     13  C   UNL     1      -8.705  -2.547 124.677  0.00  0.00    +0.000 A 
ATOM     14  N   UNL     1      -9.294  -3.287 125.672  0.00  0.00    +0.000 N 
ATOM     15  H   UNL     1     -10.173  -3.775 125.575  0.00  0.00    +0.000 HD
ENDBRANCH   4   7
ENDBRANCH   3   4
ENDBRANCH   1   3
BRANCH   1  16
ATOM     16  C   UNL     1      -7.755   1.165 128.129  0.00  0.00    +0.000 C 
BRANCH  16  17
ATOM     17  C   UNL     1      -7.935   1.560 126.692  0.00  0.00    +0.000 A 
ATOM     18  C   UNL     1      -7.032   2.403 126.044  0.00  0.00    +0.000 A 
ATOM     19  C   UNL     1      -7.318   2.865 124.752  0.00  0.00    +0.000 A 
ATOM     20  C   UNL     1      -8.455   2.415 124.057  0.00  0.00    +0.000 A 
ATOM     21  C   UNL     1      -9.329   1.548 124.714  0.00  0.00    +0.000 A 
ATOM     22  C   UNL     1      -9.060   1.109 125.997  0.00  0.00    +0.000 A 
BRANCH  20  23
ATOM     23  C   UNL     1      -8.677   2.804 122.651  0.00  0.00    +0.000 C 
ATOM     24  C   UNL     1      -7.747   3.381 121.869  0.00  0.00    +0.000 C 
BRANCH  24  25
ATOM     25  C   UNL     1      -8.043   3.808 120.484  0.00  0.00    +0.000 C 
ATOM     26  O   UNL     1      -7.179   4.175 119.687  0.00  0.00    +0.000 OA
ATOM     27  N   UNL     1      -9.374   3.757 120.169  0.00  0.00    +0.000 N 
ATOM     28  H   UNL     1     -10.123   3.463 120.784  0.00  0.00    +0.000 HD
BRANCH  27  29
ATOM     29  O   UNL     1      -9.748   4.161 118.868  0.00  0.00    +0.000 OA
ATOM     30  H   UNL     1     -10.320   4.939 119.045  0.00  0.00    +0.000 HD
ENDBRANCH  27  29
ENDBRANCH  24  25
ENDBRANCH  20  23
ENDBRANCH  16  17
ENDBRANCH   1  16
TORSDOF 8
ENDMDL
MODEL 3
REMARK VINA RESULT:      -6.7      1.565      3.346
REMARK  Name = Panobinostat
REMARK  9 active torsions:
REMARK  status: ('A' for Active; 'I' for Inactive)
REMARK    1  A    between atoms: C_1  and  C_2
REMARK    2  A    between atoms: C_3  and  C_4
REMARK    3  A    between atoms: C_4  and  C_5
REMARK    4  A    between atoms: C_5  and  N_6
REMARK    5  A    between atoms: N_6  and  C_7
REMARK    6  A    between atoms: C_7  and  C_8
REMARK    7  A    between atoms: C_11  and  C_12
REMARK    8  A    between atoms: C_13  and  C_14
REMARK    9  A    between atoms: N_16  and  O_17
REMARK                            x       y       z     vdW  Elec       q    Type
REMARK                         _______ _______ _______ _____ _____    ______ ____
ROOT
ATOM      1  N   UNL     1      -8.674  -2.278 122.870  0.00  0.00    +0.000 NA
ATOM      2  H   UNL     1      -8.874  -2.731 121.978  0.00  0.00    +0.000 HD
ENDROOT
BRANCH   1   3
ATOM      3  C   UNL     1      -9.084  -3.135 123.951  0.00  0.00    +0.000 C 
BRANCH   3   4
ATOM      4  C   UNL     1      -7.961  -3.841 124.686  0.00  0.00    +0.000 C 
BRANCH   4   7
ATOM      5  C   UNL     1      -4.966  -3.113 123.266  0.00  0.00    +0.000 C 
ATOM      6  C   UNL     1      -5.654  -2.609 124.495  0.00  0.00    +0.000 A 
ATOM      7  C   UNL     1      -6.876  -2.887 125.106  0.00  0.00    +0.000 A 
ATOM      8  C   UNL     1      -6.956  -2.070 126.283  0.00  0.00    +0.000 A 
ATOM      9  C   UNL     1      -7.918  -1.922 127.304  0.00  0.00    +0.000 A 
ATOM     10  C   UNL     1      -7.687  -1.017 128.345  0.00  0.00    +0.000 A 
ATOM     11  C   UNL     1      -6.526  -0.250 128.367  0.00  0.00    +0.000 A 
ATOM     12  C   UNL     1      -5.559  -0.373 127.363  0.00  0.00    +0.000 A 
ATOM     13  C   UNL     1      -5.799  -1.300 126.342  0.00  0.00    +0.000 A 
ATOM     14  N   UNL     1      -5.030  -1.650 125.260  0.00  0.00    +0.000 N 
ATOM     15  H   UNL     1      -4.122  -1.259 125.056  0.00  0.00    +0.000 HD
ENDBRANCH   4   7
ENDBRANCH   3   4
ENDBRANCH   1   3
BRANCH   1  16
ATOM     16  C   UNL     1      -9.430  -1.018 122.936  0.00  0.00    +0.000 C 
BRANCH  16  17
ATOM     17  C   UNL     1      -8.659  -0.032 123.765  0.00  0.00    +0.000 A 
ATOM     18  C   UNL     1      -9.183   0.510 124.939  0.00  0.00    +0.000 A 
ATOM     19  C   UNL     1      -8.493   1.536 125.598  0.00  0.00    +0.000 A 
ATOM     20  C   UNL     1      -7.230   1.963 125.151  0.00  0.00    +0.000 A 
ATOM     21  C   UNL     1      -6.710   1.385 123.991  0.00  0.00    +0.000 A 
ATOM     22  C   UNL     1      -7.400   0.389 123.327  0.00  0.00    +0.000 A 
BRANCH  20  23
ATOM     23  C   UNL     1      -6.454   2.950 125.927  0.00  0.00    +0.000 C 
ATOM     24  C   UNL     1      -5.216   3.366 125.601  0.00  0.00    +0.000 C 
BRANCH  24  25
ATOM     25  C   UNL     1      -4.458   4.311 126.451  0.00  0.00    +0.000 C 
ATOM     26  O   UNL     1      -4.951   5.327 126.941  0.00  0.00    +0.000 OA
ATOM     27  N   UNL     1      -3.152   3.948 126.641  0.00  0.00    +0.000 N 
ATOM     28  H   UNL     1      -2.698   3.125 126.262  0.00  0.00    +0.000 HD
BRANCH  27  29
ATOM     29  O   UNL     1      -2.351   4.804 127.429  0.00  0.00    +0.000 OA
ATOM     30  H   UNL     1      -2.978   5.520 127.668  0.00  0.00    +0.000 HD
ENDBRANCH  27  29
ENDBRANCH  24  25
ENDBRANCH  20  23
ENDBRANCH  16  17
ENDBRANCH   1  16
TORSDOF 8
ENDMDL
MODEL 4
REMARK VINA RESULT:      -6.5      3.058      4.618
REMARK  Name = Panobinostat
REMARK  9 active torsions:
REMARK  status: ('A' for Active; 'I' for Inactive)
REMARK    1  A    between atoms: C_1  and  C_2
REMARK    2  A    between atoms: C_3  and  C_4
REMARK    3  A    between atoms: C_4  and  C_5
REMARK    4  A    between atoms: C_5  and  N_6
REMARK    5  A    between atoms: N_6  and  C_7
REMARK    6  A    between atoms: C_7  and  C_8
REMARK    7  A    between atoms: C_11  and  C_12
REMARK    8  A    between atoms: C_13  and  C_14
REMARK    9  A    between atoms: N_16  and  O_17
REMARK                            x       y       z     vdW  Elec       q    Type
REMARK                         _______ _______ _______ _____ _____    ______ ____
ROOT
ATOM      1  N   UNL     1      -9.561  -1.044 123.215  0.00  0.00    +0.000 NA
ATOM      2  H   UNL     1      -9.912  -1.183 124.162  0.00  0.00    +0.000 HD
ENDROOT
BRANCH   1   3
ATOM      3  C   UNL     1      -8.824  -2.207 122.795  0.00  0.00    +0.000 C 
BRANCH   3   4
ATOM      4  C   UNL     1      -8.625  -3.273 123.855  0.00  0.00    +0.000 C 
BRANCH   4   7
ATOM      5  C   UNL     1      -5.355  -2.696 123.150  0.00  0.00    +0.000 C 
ATOM      6  C   UNL     1      -6.126  -2.723 124.432  0.00  0.00    +0.000 A 
ATOM      7  C   UNL     1      -7.462  -2.959 124.757  0.00  0.00    +0.000 A 
ATOM      8  C   UNL     1      -7.575  -2.850 126.183  0.00  0.00    +0.000 A 
ATOM      9  C   UNL     1      -8.646  -3.001 127.090  0.00  0.00    +0.000 A 
ATOM     10  C   UNL     1      -8.420  -2.829 128.459  0.00  0.00    +0.000 A 
ATOM     11  C   UNL     1      -7.154  -2.490 128.928  0.00  0.00    +0.000 A 
ATOM     12  C   UNL     1      -6.077  -2.328 128.048  0.00  0.00    +0.000 A 
ATOM     13  C   UNL     1      -6.320  -2.526 126.684  0.00  0.00    +0.000 A 
ATOM     14  N   UNL     1      -5.465  -2.465 125.611  0.00  0.00    +0.000 N 
ATOM     15  H   UNL     1      -4.478  -2.262 125.680  0.00  0.00    +0.000 HD
ENDBRANCH   4   7
ENDBRANCH   3   4
ENDBRANCH   1   3
BRANCH   1  16
ATOM     16  C   UNL     1      -8.667   0.124 123.213  0.00  0.00    +0.000 C 
BRANCH  16  17
ATOM     17  C   UNL     1      -8.335   0.484 124.631  0.00  0.00    +0.000 A 
ATOM     18  C   UNL     1      -7.035   0.808 125.022  0.00  0.00    +0.000 A 
ATOM     19  C   UNL     1      -6.744   0.991 126.381  0.00  0.00    +0.000 A 
ATOM     20  C   UNL     1      -7.761   0.950 127.352  0.00  0.00    +0.000 A 
ATOM     21  C   UNL     1      -9.060   0.655 126.934  0.00  0.00    +0.000 A 
ATOM     22  C   UNL     1      -9.345   0.452 125.597  0.00  0.00    +0.000 A 
BRANCH  20  23
ATOM     23  C   UNL     1      -7.466   1.274 128.761  0.00  0.00    +0.000 C 
ATOM     24  C   UNL     1      -8.313   1.920 129.583  0.00  0.00    +0.000 C 
BRANCH  24  25
ATOM     25  C   UNL     1      -7.941   2.275 130.970  0.00  0.00    +0.000 C 
ATOM     26  O   UNL     1      -7.357   3.317 131.270  0.00  0.00    +0.000 OA
ATOM     27  N   UNL     1      -8.306   1.332 131.893  0.00  0.00    +0.000 N 
ATOM     28  H   UNL     1      -8.786   0.462 131.700  0.00  0.00    +0.000 HD
BRANCH  27  29
ATOM     29  O   UNL     1      -7.976   1.585 133.242  0.00  0.00    +0.000 OA
ATOM     30  H   UNL     1      -8.694   1.123 133.726  0.00  0.00    +0.000 HD
ENDBRANCH  27  29
ENDBRANCH  24  25
ENDBRANCH  20  23
ENDBRANCH  16  17
ENDBRANCH   1  16
TORSDOF 8
ENDMDL
MODEL 5
REMARK VINA RESULT:      -6.5      6.854      9.426
REMARK  Name = Panobinostat
REMARK  9 active torsions:
REMARK  status: ('A' for Active; 'I' for Inactive)
REMARK    1  A    between atoms: C_1  and  C_2
REMARK    2  A    between atoms: C_3  and  C_4
REMARK    3  A    between atoms: C_4  and  C_5
REMARK    4  A    between atoms: C_5  and  N_6
REMARK    5  A    between atoms: N_6  and  C_7
REMARK    6  A    between atoms: C_7  and  C_8
REMARK    7  A    between atoms: C_11  and  C_12
REMARK    8  A    between atoms: C_13  and  C_14
REMARK    9  A    between atoms: N_16  and  O_17
REMARK                            x       y       z     vdW  Elec       q    Type
REMARK                         _______ _______ _______ _____ _____    ______ ____
ROOT
ATOM      1  N   UNL     1      -3.619   4.526 133.219  0.00  0.00    +0.000 NA
ATOM      2  H   UNL     1      -2.965   4.348 133.980  0.00  0.00    +0.000 HD
ENDROOT
BRANCH   1   3
ATOM      3  C   UNL     1      -3.046   4.088 131.974  0.00  0.00    +0.000 C 
BRANCH   3   4
ATOM      4  C   UNL     1      -3.794   2.975 131.266  0.00  0.00    +0.000 C 
BRANCH   4   7
ATOM      5  C   UNL     1      -3.129   4.734 128.441  0.00  0.00    +0.000 C 
ATOM      6  C   UNL     1      -4.401   4.223 129.041  0.00  0.00    +0.000 A 
ATOM      7  C   UNL     1      -4.709   3.504 130.196  0.00  0.00    +0.000 A 
ATOM      8  C   UNL     1      -6.133   3.327 130.216  0.00  0.00    +0.000 A 
ATOM      9  C   UNL     1      -7.026   2.714 131.119  0.00  0.00    +0.000 A 
ATOM     10  C   UNL     1      -8.397   2.717 130.844  0.00  0.00    +0.000 A 
ATOM     11  C   UNL     1      -8.881   3.302 129.677  0.00  0.00    +0.000 A 
ATOM     12  C   UNL     1      -8.015   3.911 128.761  0.00  0.00    +0.000 A 
ATOM     13  C   UNL     1      -6.648   3.916 129.067  0.00  0.00    +0.000 A 
ATOM     14  N   UNL     1      -5.587   4.455 128.383  0.00  0.00    +0.000 N 
ATOM     15  H   UNL     1      -5.668   4.961 127.513  0.00  0.00    +0.000 HD
ENDBRANCH   4   7
ENDBRANCH   3   4
ENDBRANCH   1   3
BRANCH   1  16
ATOM     16  C   UNL     1      -3.878   5.973 133.151  0.00  0.00    +0.000 C 
BRANCH  16  17
ATOM     17  C   UNL     1      -5.280   6.192 132.661  0.00  0.00    +0.000 A 
ATOM     18  C   UNL     1      -6.386   5.695 133.352  0.00  0.00    +0.000 A 
ATOM     19  C   UNL     1      -7.662   5.793 132.782  0.00  0.00    +0.000 A 
ATOM     20  C   UNL     1      -7.863   6.473 131.567  0.00  0.00    +0.000 A 
ATOM     21  C   UNL     1      -6.746   6.989 130.908  0.00  0.00    +0.000 A 
ATOM     22  C   UNL     1      -5.483   6.873 131.458  0.00  0.00    +0.000 A 
BRANCH  20  23
ATOM     23  C   UNL     1      -9.226   6.685 131.042  0.00  0.00    +0.000 C 
ATOM     24  C   UNL     1     -10.349   6.304 131.677  0.00  0.00    +0.000 C 
BRANCH  24  25
ATOM     25  C   UNL     1     -11.689   6.485 131.076  0.00  0.00    +0.000 C 
ATOM     26  O   UNL     1     -12.692   6.775 131.728  0.00  0.00    +0.000 OA
ATOM     27  N   UNL     1     -11.709   6.299 129.720  0.00  0.00    +0.000 N 
ATOM     28  H   UNL     1     -10.915   6.061 129.137  0.00  0.00    +0.000 HD
BRANCH  27  29
ATOM     29  O   UNL     1     -12.952   6.439 129.065  0.00  0.00    +0.000 OA
ATOM     30  H   UNL     1     -13.341   7.220 129.515  0.00  0.00    +0.000 HD
ENDBRANCH  27  29
ENDBRANCH  24  25
ENDBRANCH  20  23
ENDBRANCH  16  17
ENDBRANCH   1  16
TORSDOF 8
ENDMDL
MODEL 6
REMARK VINA RESULT:      -6.4      2.978      4.522
REMARK  Name = Panobinostat
REMARK  9 active torsions:
REMARK  status: ('A' for Active; 'I' for Inactive)
REMARK    1  A    between atoms: C_1  and  C_2
REMARK    2  A    between atoms: C_3  and  C_4
REMARK    3  A    between atoms: C_4  and  C_5
REMARK    4  A    between atoms: C_5  and  N_6
REMARK    5  A    between atoms: N_6  and  C_7
REMARK    6  A    between atoms: C_7  and  C_8
REMARK    7  A    between atoms: C_11  and  C_12
REMARK    8  A    between atoms: C_13  and  C_14
REMARK    9  A    between atoms: N_16  and  O_17
REMARK                            x       y       z     vdW  Elec       q    Type
REMARK                         _______ _______ _______ _____ _____    ______ ____
ROOT
ATOM      1  N   UNL     1     -10.028  -0.945 122.890  0.00  0.00    +0.000 NA
ATOM      2  H   UNL     1     -10.680  -1.487 122.325  0.00  0.00    +0.000 HD
ENDROOT
BRANCH   1   3
ATOM      3  C   UNL     1     -10.097   0.442 122.513  0.00  0.00    +0.000 C 
BRANCH   3   4
ATOM      4  C   UNL     1     -10.265   1.423 123.658  0.00  0.00    +0.000 C 
BRANCH   4   7
ATOM      5  C   UNL     1      -7.830   3.211 122.113  0.00  0.00    +0.000 C 
ATOM      6  C   UNL     1      -7.963   2.668 123.500  0.00  0.00    +0.000 A 
ATOM      7  C   UNL     1      -8.942   1.930 124.164  0.00  0.00    +0.000 A 
ATOM      8  C   UNL     1      -8.470   1.707 125.501  0.00  0.00    +0.000 A 
ATOM      9  C   UNL     1      -8.994   1.023 126.618  0.00  0.00    +0.000 A 
ATOM     10  C   UNL     1      -8.263   0.986 127.809  0.00  0.00    +0.000 A 
ATOM     11  C   UNL     1      -7.037   1.638 127.905  0.00  0.00    +0.000 A 
ATOM     12  C   UNL     1      -6.499   2.330 126.814  0.00  0.00    +0.000 A 
ATOM     13  C   UNL     1      -7.236   2.335 125.623  0.00  0.00    +0.000 A 
ATOM     14  N   UNL     1      -6.950   2.897 124.404  0.00  0.00    +0.000 N 
ATOM     15  H   UNL     1      -6.104   3.407 124.196  0.00  0.00    +0.000 HD
ENDBRANCH   4   7
ENDBRANCH   3   4
ENDBRANCH   1   3
BRANCH   1  16
ATOM     16  C   UNL     1      -8.667  -1.447 122.648  0.00  0.00    +0.000 C 
BRANCH  16  17
ATOM     17  C   UNL     1      -8.001  -1.702 123.969  0.00  0.00    +0.000 A 
ATOM     18  C   UNL     1      -8.643  -2.399 124.992  0.00  0.00    +0.000 A 
ATOM     19  C   UNL     1      -8.045  -2.483 126.257  0.00  0.00    +0.000 A 
ATOM     20  C   UNL     1      -6.760  -1.960 126.486  0.00  0.00    +0.000 A 
ATOM     21  C   UNL     1      -6.122  -1.292 125.439  0.00  0.00    +0.000 A 
ATOM     22  C   UNL     1      -6.721  -1.189 124.198  0.00  0.00    +0.000 A 
BRANCH  20  23
ATOM     23  C   UNL     1      -6.085  -2.169 127.782  0.00  0.00    +0.000 C 
ATOM     24  C   UNL     1      -4.851  -2.688 127.918  0.00  0.00    +0.000 C 
BRANCH  24  25
ATOM     25  C   UNL     1      -4.247  -2.935 129.246  0.00  0.00    +0.000 C 
ATOM     26  O   UNL     1      -4.506  -3.921 129.937  0.00  0.00    +0.000 OA
ATOM     27  N   UNL     1      -3.369  -1.960 129.637  0.00  0.00    +0.000 N 
ATOM     28  H   UNL     1      -3.121  -1.132 129.109  0.00  0.00    +0.000 HD
BRANCH  27  29
ATOM     29  O   UNL     1      -2.757  -2.110 130.901  0.00  0.00    +0.000 OA
ATOM     30  H   UNL     1      -2.670  -3.084 130.979  0.00  0.00    +0.000 HD
ENDBRANCH  27  29
ENDBRANCH  24  25
ENDBRANCH  20  23
ENDBRANCH  16  17
ENDBRANCH   1  16
TORSDOF 8
ENDMDL
MODEL 7
REMARK VINA RESULT:      -6.4      3.023      5.503
REMARK  Name = Panobinostat
REMARK  9 active torsions:
REMARK  status: ('A' for Active; 'I' for Inactive)
REMARK    1  A    between atoms: C_1  and  C_2
REMARK    2  A    between atoms: C_3  and  C_4
REMARK    3  A    between atoms: C_4  and  C_5
REMARK    4  A    between atoms: C_5  and  N_6
REMARK    5  A    between atoms: N_6  and  C_7
REMARK    6  A    between atoms: C_7  and  C_8
REMARK    7  A    between atoms: C_11  and  C_12
REMARK    8  A    between atoms: C_13  and  C_14
REMARK    9  A    between atoms: N_16  and  O_17
REMARK                            x       y       z     vdW  Elec       q    Type
REMARK                         _______ _______ _______ _____ _____    ______ ____
ROOT
ATOM      1  N   UNL     1      -4.789   0.071 127.855  0.00  0.00    +0.000 NA
ATOM      2  H   UNL     1      -4.795  -0.149 126.860  0.00  0.00    +0.000 HD
ENDROOT
BRANCH   1   3
ATOM      3  C   UNL     1      -5.478  -0.962 128.584  0.00  0.00    +0.000 C 
BRANCH   3   4
ATOM      4  C   UNL     1      -5.501  -2.325 127.921  0.00  0.00    +0.000 C 
BRANCH   4   7
ATOM      5  C   UNL     1      -8.613  -3.388 128.762  0.00  0.00    +0.000 C 
ATOM      6  C   UNL     1      -8.004  -2.960 127.464  0.00  0.00    +0.000 A 
ATOM      7  C   UNL     1      -6.736  -2.523 127.084  0.00  0.00    +0.000 A 
ATOM      8  C   UNL     1      -6.781  -2.269 125.672  0.00  0.00    +0.000 A 
ATOM      9  C   UNL     1      -5.825  -1.838 124.729  0.00  0.00    +0.000 A 
ATOM     10  C   UNL     1      -6.196  -1.691 123.388  0.00  0.00    +0.000 A 
ATOM     11  C   UNL     1      -7.505  -1.946 122.987  0.00  0.00    +0.000 A 
ATOM     12  C   UNL     1      -8.473  -2.368 123.905  0.00  0.00    +0.000 A 
ATOM     13  C   UNL     1      -8.075  -2.531 125.238  0.00  0.00    +0.000 A 
ATOM     14  N   UNL     1      -8.788  -2.952 126.333  0.00  0.00    +0.000 N 
ATOM     15  H   UNL     1      -9.759  -3.228 126.309  0.00  0.00    +0.000 HD
ENDBRANCH   4   7
ENDBRANCH   3   4
ENDBRANCH   1   3
BRANCH   1  16
ATOM     16  C   UNL     1      -5.483   1.352 128.057  0.00  0.00    +0.000 C 
BRANCH  16  17
ATOM     17  C   UNL     1      -5.501   2.105 126.758  0.00  0.00    +0.000 A 
ATOM     18  C   UNL     1      -4.767   3.277 126.579  0.00  0.00    +0.000 A 
ATOM     19  C   UNL     1      -4.930   4.026 125.405  0.00  0.00    +0.000 A 
ATOM     20  C   UNL     1      -5.751   3.564 124.360  0.00  0.00    +0.000 A 
ATOM     21  C   UNL     1      -6.453   2.373 124.549  0.00  0.00    +0.000 A 
ATOM     22  C   UNL     1      -6.310   1.645 125.715  0.00  0.00    +0.000 A 
BRANCH  20  23
ATOM     23  C   UNL     1      -5.813   4.292 123.077  0.00  0.00    +0.000 C 
ATOM     24  C   UNL     1      -5.841   3.699 121.870  0.00  0.00    +0.000 C 
BRANCH  24  25
ATOM     25  C   UNL     1      -5.840   4.480 120.613  0.00  0.00    +0.000 C 
ATOM     26  O   UNL     1      -5.034   5.379 120.375  0.00  0.00    +0.000 OA
ATOM     27  N   UNL     1      -6.823   4.107 119.737  0.00  0.00    +0.000 N 
ATOM     28  H   UNL     1      -7.509   3.376 119.884  0.00  0.00    +0.000 HD
BRANCH  27  29
ATOM     29  O   UNL     1      -6.903   4.812 118.516  0.00  0.00    +0.000 OA
ATOM     30  H   UNL     1      -5.959   4.911 118.267  0.00  0.00    +0.000 HD
ENDBRANCH  27  29
ENDBRANCH  24  25
ENDBRANCH  20  23
ENDBRANCH  16  17
ENDBRANCH   1  16
TORSDOF 8
ENDMDL
MODEL 8
REMARK VINA RESULT:      -6.3      7.038      9.584
REMARK  Name = Panobinostat
REMARK  9 active torsions:
REMARK  status: ('A' for Active; 'I' for Inactive)
REMARK    1  A    between atoms: C_1  and  C_2
REMARK    2  A    between atoms: C_3  and  C_4
REMARK    3  A    between atoms: C_4  and  C_5
REMARK    4  A    between atoms: C_5  and  N_6
REMARK    5  A    between atoms: N_6  and  C_7
REMARK    6  A    between atoms: C_7  and  C_8
REMARK    7  A    between atoms: C_11  and  C_12
REMARK    8  A    between atoms: C_13  and  C_14
REMARK    9  A    between atoms: N_16  and  O_17
REMARK                            x       y       z     vdW  Elec       q    Type
REMARK                         _______ _______ _______ _____ _____    ______ ____
ROOT
ATOM      1  N   UNL     1      -2.952   6.262 130.904  0.00  0.00    +0.000 NA
ATOM      2  H   UNL     1      -3.575   6.483 130.128  0.00  0.00    +0.000 HD
ENDROOT
BRANCH   1   3
ATOM      3  C   UNL     1      -2.672   4.850 130.915  0.00  0.00    +0.000 C 
BRANCH   3   4
ATOM      4  C   UNL     1      -3.402   4.031 129.867  0.00  0.00    +0.000 C 
BRANCH   4   7
ATOM      5  C   UNL     1      -3.657   1.813 132.423  0.00  0.00    +0.000 C 
ATOM      6  C   UNL     1      -4.667   2.415 131.498  0.00  0.00    +0.000 A 
ATOM      7  C   UNL     1      -4.598   3.321 130.441  0.00  0.00    +0.000 A 
ATOM      8  C   UNL     1      -5.932   3.491 129.941  0.00  0.00    +0.000 A 
ATOM      9  C   UNL     1      -6.489   4.248 128.889  0.00  0.00    +0.000 A 
ATOM     10  C   UNL     1      -7.866   4.190 128.651  0.00  0.00    +0.000 A 
ATOM     11  C   UNL     1      -8.689   3.410 129.459  0.00  0.00    +0.000 A 
ATOM     12  C   UNL     1      -8.162   2.656 130.514  0.00  0.00    +0.000 A 
ATOM     13  C   UNL     1      -6.778   2.710 130.720  0.00  0.00    +0.000 A 
ATOM     14  N   UNL     1      -5.991   2.067 131.643  0.00  0.00    +0.000 N 
ATOM     15  H   UNL     1      -6.339   1.417 132.334  0.00  0.00    +0.000 HD
ENDBRANCH   4   7
ENDBRANCH   3   4
ENDBRANCH   1   3
BRANCH   1  16
ATOM     16  C   UNL     1      -3.619   6.633 132.161  0.00  0.00    +0.000 C 
BRANCH  16  17
ATOM     17  C   UNL     1      -5.103   6.505 131.980  0.00  0.00    +0.000 A 
ATOM     18  C   UNL     1      -5.772   7.132 130.929  0.00  0.00    +0.000 A 
ATOM     19  C   UNL     1      -7.173   7.109 130.884  0.00  0.00    +0.000 A 
ATOM     20  C   UNL     1      -7.916   6.379 131.830  0.00  0.00    +0.000 A 
ATOM     21  C   UNL     1      -7.224   5.733 132.856  0.00  0.00    +0.000 A 
ATOM     22  C   UNL     1      -5.843   5.774 132.914  0.00  0.00    +0.000 A 
BRANCH  20  23
ATOM     23  C   UNL     1      -9.380   6.252 131.697  0.00  0.00    +0.000 C 
ATOM     24  C   UNL     1     -10.118   6.912 130.786  0.00  0.00    +0.000 C 
BRANCH  24  25
ATOM     25  C   UNL     1     -11.592   6.795 130.738  0.00  0.00    +0.000 C 
ATOM     26  O   UNL     1     -12.282   6.515 131.718  0.00  0.00    +0.000 OA
ATOM     27  N   UNL     1     -12.119   7.028 129.496  0.00  0.00    +0.000 N 
ATOM     28  H   UNL     1     -11.597   7.262 128.659  0.00  0.00    +0.000 HD
BRANCH  27  29
ATOM     29  O   UNL     1     -13.520   6.924 129.358  0.00  0.00    +0.000 OA
ATOM     30  H   UNL     1     -13.814   7.853 129.472  0.00  0.00    +0.000 HD
ENDBRANCH  27  29
ENDBRANCH  24  25
ENDBRANCH  20  23
ENDBRANCH  16  17
ENDBRANCH   1  16
TORSDOF 8
ENDMDL
MODEL 9
REMARK VINA RESULT:      -6.2      2.945      4.862
REMARK  Name = Panobinostat
REMARK  9 active torsions:
REMARK  status: ('A' for Active; 'I' for Inactive)
REMARK    1  A    between atoms: C_1  and  C_2
REMARK    2  A    between atoms: C_3  and  C_4
REMARK    3  A    between atoms: C_4  and  C_5
REMARK    4  A    between atoms: C_5  and  N_6
REMARK    5  A    between atoms: N_6  and  C_7
REMARK    6  A    between atoms: C_7  and  C_8
REMARK    7  A    between atoms: C_11  and  C_12
REMARK    8  A    between atoms: C_13  and  C_14
REMARK    9  A    between atoms: N_16  and  O_17
REMARK                            x       y       z     vdW  Elec       q    Type
REMARK                         _______ _______ _______ _____ _____    ______ ____
ROOT
ATOM      1  N   UNL     1      -7.155  -0.680 130.107  0.00  0.00    +0.000 NA
ATOM      2  H   UNL     1      -6.473  -0.785 129.357  0.00  0.00    +0.000 HD
ENDROOT
BRANCH   1   3
ATOM      3  C   UNL     1      -8.144  -1.722 130.013  0.00  0.00    +0.000 C 
BRANCH   3   4
ATOM      4  C   UNL     1      -7.764  -2.906 129.146  0.00  0.00    +0.000 C 
BRANCH   4   7
ATOM      5  C   UNL     1      -4.391  -2.699 128.835  0.00  0.00    +0.000 C 
ATOM      6  C   UNL     1      -5.515  -2.428 127.886  0.00  0.00    +0.000 A 
ATOM      7  C   UNL     1      -6.905  -2.498 127.981  0.00  0.00    +0.000 A 
ATOM      8  C   UNL     1      -7.436  -2.096 126.710  0.00  0.00    +0.000 A 
ATOM      9  C   UNL     1      -8.745  -1.945 126.205  0.00  0.00    +0.000 A 
ATOM     10  C   UNL     1      -8.930  -1.518 124.886  0.00  0.00    +0.000 A 
ATOM     11  C   UNL     1      -7.834  -1.263 124.066  0.00  0.00    +0.000 A 
ATOM     12  C   UNL     1      -6.526  -1.412 124.542  0.00  0.00    +0.000 A 
ATOM     13  C   UNL     1      -6.362  -1.819 125.872  0.00  0.00    +0.000 A 
ATOM     14  N   UNL     1      -5.219  -2.018 126.606  0.00  0.00    +0.000 N 
ATOM     15  H   UNL     1      -4.284  -1.875 126.254  0.00  0.00    +0.000 HD
ENDBRANCH   4   7
ENDBRANCH   3   4
ENDBRANCH   1   3
BRANCH   1  16
ATOM     16  C   UNL     1      -7.814   0.628 129.962  0.00  0.00    +0.000 C 
BRANCH  16  17
ATOM     17  C   UNL     1      -7.562   1.147 128.576  0.00  0.00    +0.000 A 
ATOM     18  C   UNL     1      -8.608   1.481 127.716  0.00  0.00    +0.000 A 
ATOM     19  C   UNL     1      -8.331   1.819 126.384  0.00  0.00    +0.000 A 
ATOM     20  C   UNL     1      -7.006   1.922 125.923  0.00  0.00    +0.000 A 
ATOM     21  C   UNL     1      -5.974   1.613 126.810  0.00  0.00    +0.000 A 
ATOM     22  C   UNL     1      -6.246   1.258 128.118  0.00  0.00    +0.000 A 
BRANCH  20  23
ATOM     23  C   UNL     1      -6.722   2.405 124.558  0.00  0.00    +0.000 C 
ATOM     24  C   UNL     1      -7.663   2.624 123.621  0.00  0.00    +0.000 C 
BRANCH  24  25
ATOM     25  C   UNL     1      -7.316   3.049 122.247  0.00  0.00    +0.000 C 
ATOM     26  O   UNL     1      -6.200   2.895 121.751  0.00  0.00    +0.000 OA
ATOM     27  N   UNL     1      -8.357   3.633 121.577  0.00  0.00    +0.000 N 
ATOM     28  H   UNL     1      -9.292   3.784 121.938  0.00  0.00    +0.000 HD
BRANCH  27  29
ATOM     29  O   UNL     1      -8.109   4.082 120.261  0.00  0.00    +0.000 OA
ATOM     30  H   UNL     1      -7.831   3.259 119.806  0.00  0.00    +0.000 HD
ENDBRANCH  27  29
ENDBRANCH  24  25
ENDBRANCH  20  23
ENDBRANCH  16  17
ENDBRANCH   1  16
TORSDOF 8
ENDMDL
