MODEL 1
REMARK VINA RESULT:      -6.4      0.000      0.000
REMARK  Name = Pantethine
REMARK  27 active torsions:
REMARK  status: ('A' for Active; 'I' for Inactive)
REMARK    1  A    between atoms: C_1  and  C_2
REMARK    2  A    between atoms: C_2  and  C_3
REMARK    3  A    between atoms: C_2  and  C_4
REMARK    4  A    between atoms: C_2  and  C_6
REMARK    5  A    between atoms: C_4  and  O_5
REMARK    6  A    between atoms: C_6  and  O_7
REMARK    7  A    between atoms: C_6  and  C_8
REMARK    8  A    between atoms: N_10  and  C_11
REMARK    9  A    between atoms: C_11  and  C_12
REMARK   10  A    between atoms: C_12  and  C_13
REMARK   11  A    between atoms: N_15  and  C_16
REMARK   12  A    between atoms: C_16  and  C_17
REMARK   13  A    between atoms: C_17  and  S_18
REMARK   14  A    between atoms: S_18  and  S_19
REMARK   15  A    between atoms: S_19  and  C_20
REMARK   16  A    between atoms: C_20  and  C_21
REMARK   17  A    between atoms: C_21  and  N_22
REMARK   18  A    between atoms: C_23  and  C_25
REMARK   19  A    between atoms: C_25  and  C_26
REMARK   20  A    between atoms: C_26  and  N_27
REMARK   21  A    between atoms: C_28  and  C_30
REMARK   22  A    between atoms: C_30  and  O_31
REMARK   23  A    between atoms: C_30  and  C_32
REMARK   24  A    between atoms: C_32  and  C_33
REMARK   25  A    between atoms: C_32  and  C_34
REMARK   26  A    between atoms: C_32  and  C_35
REMARK   27  A    between atoms: C_35  and  O_36
REMARK                            x       y       z     vdW  Elec       q    Type
REMARK                         _______ _______ _______ _____ _____    ______ ____
ROOT
ATOM      1  S   UNL     1      -6.195  -1.331 129.896  0.00  0.00    +0.000 S 
ENDROOT
BRANCH   1   2
ATOM      2  S   UNL     1      -6.713  -3.318 129.609  0.00  0.00    +0.000 S 
BRANCH   2   3
ATOM      3  C   UNL     1      -8.501  -3.262 129.124  0.00  0.00    +0.000 C 
BRANCH   3   4
ATOM      4  C   UNL     1      -8.670  -3.487 127.609  0.00  0.00    +0.000 C 
BRANCH   4   5
ATOM      5  N   UNL     1      -8.182  -2.386 126.767  0.00  0.00    +0.000 N 
ATOM      6  C   UNL     1      -8.867  -2.026 125.619  0.00  0.00    +0.000 C 
ATOM      7  O   UNL     1      -9.893  -2.608 125.268  0.00  0.00    +0.000 OA
ATOM      8  H   UNL     1      -7.340  -1.886 127.028  0.00  0.00    +0.000 HD
BRANCH   6   9
ATOM      9  C   UNL     1      -8.267  -0.869 124.825  0.00  0.00    +0.000 C 
BRANCH   9  10
ATOM     10  C   UNL     1      -9.215   0.329 124.815  0.00  0.00    +0.000 C 
BRANCH  10  11
ATOM     11  N   UNL     1      -8.788   1.451 125.648  0.00  0.00    +0.000 N 
ATOM     12  C   UNL     1      -8.487   2.649 125.032  0.00  0.00    +0.000 C 
ATOM     13  O   UNL     1      -8.603   2.775 123.812  0.00  0.00    +0.000 OA
ATOM     14  H   UNL     1      -8.808   1.391 126.658  0.00  0.00    +0.000 HD
BRANCH  12  15
ATOM     15  C   UNL     1      -8.031   3.824 125.940  0.00  0.00    +0.000 C 
BRANCH  15  16
ATOM     16  C   UNL     1      -6.476   4.002 125.963  0.00  0.00    +0.000 C 
ATOM     17  C   UNL     1      -5.926   4.190 127.397  0.00  0.00    +0.000 C 
ATOM     18  C   UNL     1      -5.786   2.741 125.390  0.00  0.00    +0.000 C 
BRANCH  16  19
ATOM     19  C   UNL     1      -6.108   5.215 125.079  0.00  0.00    +0.000 C 
BRANCH  19  20
ATOM     20  O   UNL     1      -6.081   4.882 123.696  0.00  0.00    +0.000 OA
ATOM     21  H   UNL     1      -6.989   4.960 123.356  0.00  0.00    +0.000 HD
ENDBRANCH  19  20
ENDBRANCH  16  19
ENDBRANCH  15  16
BRANCH  15  22
ATOM     22  O   UNL     1      -8.671   5.027 125.509  0.00  0.00    +0.000 OA
ATOM     23  H   UNL     1      -8.470   5.712 126.173  0.00  0.00    +0.000 HD
ENDBRANCH  15  22
ENDBRANCH  12  15
ENDBRANCH  10  11
ENDBRANCH   9  10
ENDBRANCH   6   9
ENDBRANCH   4   5
ENDBRANCH   3   4
ENDBRANCH   2   3
ENDBRANCH   1   2
BRANCH   1  24
ATOM     24  C   UNL     1      -7.816  -0.459 130.106  0.00  0.00    +0.000 C 
BRANCH  24  25
ATOM     25  C   UNL     1      -7.823   0.885 129.355  0.00  0.00    +0.000 C 
BRANCH  25  28
ATOM     26  C   UNL     1      -8.424   3.223 129.907  0.00  0.00    +0.000 C 
ATOM     27  O   UNL     1      -9.145   3.294 128.912  0.00  0.00    +0.000 OA
ATOM     28  N   UNL     1      -7.724   2.070 130.218  0.00  0.00    +0.000 N 
ATOM     29  H   UNL     1      -7.140   2.045 131.045  0.00  0.00    +0.000 HD
BRANCH  26  30
ATOM     30  C   UNL     1      -8.242   4.387 130.876  0.00  0.00    +0.000 C 
BRANCH  30  31
ATOM     31  C   UNL     1      -9.475   4.547 131.758  0.00  0.00    +0.000 C 
BRANCH  31  34
ATOM     32  C   UNL     1     -11.257   5.848 130.731  0.00  0.00    +0.000 C 
ATOM     33  O   UNL     1     -11.577   4.841 130.100  0.00  0.00    +0.000 OA
ATOM     34  N   UNL     1     -10.182   5.814 131.595  0.00  0.00    +0.000 N 
ATOM     35  H   UNL     1      -9.967   6.631 132.153  0.00  0.00    +0.000 HD
BRANCH  32  36
ATOM     36  C   UNL     1     -12.011   7.202 130.606  0.00  0.00    +0.000 C 
BRANCH  36  38
ATOM     37  C   UNL     1     -12.655   9.142 129.064  0.00  0.00    +0.000 C 
ATOM     38  C   UNL     1     -12.155   7.678 129.120  0.00  0.00    +0.000 C 
ATOM     39  C   UNL     1     -13.197   6.818 128.366  0.00  0.00    +0.000 C 
BRANCH  38  40
ATOM     40  C   UNL     1     -10.773   7.625 128.419  0.00  0.00    +0.000 C 
BRANCH  40  41
ATOM     41  O   UNL     1     -10.666   6.502 127.552  0.00  0.00    +0.000 OA
ATOM     42  H   UNL     1      -9.875   6.642 127.001  0.00  0.00    +0.000 HD
ENDBRANCH  40  41
ENDBRANCH  38  40
ENDBRANCH  36  38
BRANCH  36  43
ATOM     43  O   UNL     1     -13.283   7.118 131.256  0.00  0.00    +0.000 OA
ATOM     44  H   UNL     1     -13.504   8.008 131.584  0.00  0.00    +0.000 HD
ENDBRANCH  36  43
ENDBRANCH  32  36
ENDBRANCH  31  34
ENDBRANCH  30  31
ENDBRANCH  26  30
ENDBRANCH  25  28
ENDBRANCH  24  25
ENDBRANCH   1  24
TORSDOF 23
ENDMDL
MODEL 2
REMARK VINA RESULT:      -6.4      2.643      8.545
REMARK  Name = Pantethine
REMARK  27 active torsions:
REMARK  status: ('A' for Active; 'I' for Inactive)
REMARK    1  A    between atoms: C_1  and  C_2
REMARK    2  A    between atoms: C_2  and  C_3
REMARK    3  A    between atoms: C_2  and  C_4
REMARK    4  A    between atoms: C_2  and  C_6
REMARK    5  A    between atoms: C_4  and  O_5
REMARK    6  A    between atoms: C_6  and  O_7
REMARK    7  A    between atoms: C_6  and  C_8
REMARK    8  A    between atoms: N_10  and  C_11
REMARK    9  A    between atoms: C_11  and  C_12
REMARK   10  A    between atoms: C_12  and  C_13
REMARK   11  A    between atoms: N_15  and  C_16
REMARK   12  A    between atoms: C_16  and  C_17
REMARK   13  A    between atoms: C_17  and  S_18
REMARK   14  A    between atoms: S_18  and  S_19
REMARK   15  A    between atoms: S_19  and  C_20
REMARK   16  A    between atoms: C_20  and  C_21
REMARK   17  A    between atoms: C_21  and  N_22
REMARK   18  A    between atoms: C_23  and  C_25
REMARK   19  A    between atoms: C_25  and  C_26
REMARK   20  A    between atoms: C_26  and  N_27
REMARK   21  A    between atoms: C_28  and  C_30
REMARK   22  A    between atoms: C_30  and  O_31
REMARK   23  A    between atoms: C_30  and  C_32
REMARK   24  A    between atoms: C_32  and  C_33
REMARK   25  A    between atoms: C_32  and  C_34
REMARK   26  A    between atoms: C_32  and  C_35
REMARK   27  A    between atoms: C_35  and  O_36
REMARK                            x       y       z     vdW  Elec       q    Type
REMARK                         _______ _______ _______ _____ _____    ______ ____
ROOT
ATOM      1  S   UNL     1      -4.387   4.200 128.303  0.00  0.00    +0.000 S 
ENDROOT
BRANCH   1   2
ATOM      2  S   UNL     1      -5.982   4.140 129.625  0.00  0.00    +0.000 S 
BRANCH   2   3
ATOM      3  C   UNL     1      -5.209   3.732 131.260  0.00  0.00    +0.000 C 
BRANCH   3   4
ATOM      4  C   UNL     1      -6.274   3.646 132.370  0.00  0.00    +0.000 C 
BRANCH   4   5
ATOM      5  N   UNL     1      -7.637   3.373 131.891  0.00  0.00    +0.000 N 
ATOM      6  C   UNL     1      -8.376   2.339 132.438  0.00  0.00    +0.000 C 
ATOM      7  O   UNL     1      -7.925   1.621 133.331  0.00  0.00    +0.000 OA
ATOM      8  H   UNL     1      -8.038   3.945 131.158  0.00  0.00    +0.000 HD
BRANCH   6   9
ATOM      9  C   UNL     1      -9.777   2.149 131.864  0.00  0.00    +0.000 C 
BRANCH   9  10
ATOM     10  C   UNL     1      -9.998   3.067 130.662  0.00  0.00    +0.000 C 
BRANCH  10  11
ATOM     11  N   UNL     1     -10.846   4.226 130.927  0.00  0.00    +0.000 N 
ATOM     12  C   UNL     1     -10.299   5.486 130.785  0.00  0.00    +0.000 C 
ATOM     13  O   UNL     1      -9.133   5.627 130.415  0.00  0.00    +0.000 OA
ATOM     14  H   UNL     1     -11.835   4.121 131.112  0.00  0.00    +0.000 HD
BRANCH  12  15
ATOM     15  C   UNL     1     -11.221   6.702 131.078  0.00  0.00    +0.000 C 
BRANCH  15  16
ATOM     16  C   UNL     1     -11.721   7.409 129.773  0.00  0.00    +0.000 C 
ATOM     17  C   UNL     1     -12.543   6.460 128.869  0.00  0.00    +0.000 C 
ATOM     18  C   UNL     1     -12.652   8.591 130.131  0.00  0.00    +0.000 C 
BRANCH  16  19
ATOM     19  C   UNL     1     -10.493   7.955 129.011  0.00  0.00    +0.000 C 
BRANCH  19  20
ATOM     20  O   UNL     1     -10.141   7.135 127.903  0.00  0.00    +0.000 OA
ATOM     21  H   UNL     1      -9.511   6.466 128.220  0.00  0.00    +0.000 HD
ENDBRANCH  19  20
ENDBRANCH  16  19
ENDBRANCH  15  16
BRANCH  15  22
ATOM     22  O   UNL     1     -12.327   6.273 131.876  0.00  0.00    +0.000 OA
ATOM     23  H   UNL     1     -12.113   5.381 132.206  0.00  0.00    +0.000 HD
ENDBRANCH  15  22
ENDBRANCH  12  15
ENDBRANCH  10  11
ENDBRANCH   9  10
ENDBRANCH   6   9
ENDBRANCH   4   5
ENDBRANCH   3   4
ENDBRANCH   2   3
ENDBRANCH   1   2
BRANCH   1  24
ATOM     24  C   UNL     1      -5.161   4.600 126.668  0.00  0.00    +0.000 C 
BRANCH  24  25
ATOM     25  C   UNL     1      -4.922   3.470 125.650  0.00  0.00    +0.000 C 
BRANCH  25  28
ATOM     26  C   UNL     1      -6.327   3.807 123.640  0.00  0.00    +0.000 C 
ATOM     27  O   UNL     1      -5.581   4.700 123.242  0.00  0.00    +0.000 OA
ATOM     28  N   UNL     1      -6.089   3.131 124.825  0.00  0.00    +0.000 N 
ATOM     29  H   UNL     1      -6.723   2.400 125.122  0.00  0.00    +0.000 HD
BRANCH  26  30
ATOM     30  C   UNL     1      -7.569   3.369 122.869  0.00  0.00    +0.000 C 
BRANCH  30  31
ATOM     31  C   UNL     1      -8.535   2.628 123.786  0.00  0.00    +0.000 C 
BRANCH  31  34
ATOM     32  C   UNL     1      -8.270   0.237 123.424  0.00  0.00    +0.000 C 
ATOM     33  O   UNL     1      -7.178   0.312 123.987  0.00  0.00    +0.000 OA
ATOM     34  N   UNL     1      -9.040   1.368 123.251  0.00  0.00    +0.000 N 
ATOM     35  H   UNL     1      -9.963   1.283 122.841  0.00  0.00    +0.000 HD
BRANCH  32  36
ATOM     36  C   UNL     1      -8.852  -1.096 122.874  0.00  0.00    +0.000 C 
BRANCH  36  38
ATOM     37  C   UNL     1      -7.179  -2.776 123.843  0.00  0.00    +0.000 C 
ATOM     38  C   UNL     1      -8.650  -2.296 123.862  0.00  0.00    +0.000 C 
ATOM     39  C   UNL     1      -9.523  -3.504 123.445  0.00  0.00    +0.000 C 
BRANCH  38  40
ATOM     40  C   UNL     1      -8.979  -1.841 125.308  0.00  0.00    +0.000 C 
BRANCH  40  41
ATOM     41  O   UNL     1     -10.157  -2.470 125.802  0.00  0.00    +0.000 OA
ATOM     42  H   UNL     1     -10.614  -1.817 126.361  0.00  0.00    +0.000 HD
ENDBRANCH  40  41
ENDBRANCH  38  40
ENDBRANCH  36  38
BRANCH  36  43
ATOM     43  O   UNL     1     -10.231  -0.925 122.531  0.00  0.00    +0.000 OA
ATOM     44  H   UNL     1     -10.762  -1.238 123.286  0.00  0.00    +0.000 HD
ENDBRANCH  36  43
ENDBRANCH  32  36
ENDBRANCH  31  34
ENDBRANCH  30  31
ENDBRANCH  26  30
ENDBRANCH  25  28
ENDBRANCH  24  25
ENDBRANCH   1  24
TORSDOF 23
ENDMDL
MODEL 3
REMARK VINA RESULT:      -6.3      2.097      4.818
REMARK  Name = Pantethine
REMARK  27 active torsions:
REMARK  status: ('A' for Active; 'I' for Inactive)
REMARK    1  A    between atoms: C_1  and  C_2
REMARK    2  A    between atoms: C_2  and  C_3
REMARK    3  A    between atoms: C_2  and  C_4
REMARK    4  A    between atoms: C_2  and  C_6
REMARK    5  A    between atoms: C_4  and  O_5
REMARK    6  A    between atoms: C_6  and  O_7
REMARK    7  A    between atoms: C_6  and  C_8
REMARK    8  A    between atoms: N_10  and  C_11
REMARK    9  A    between atoms: C_11  and  C_12
REMARK   10  A    between atoms: C_12  and  C_13
REMARK   11  A    between atoms: N_15  and  C_16
REMARK   12  A    between atoms: C_16  and  C_17
REMARK   13  A    between atoms: C_17  and  S_18
REMARK   14  A    between atoms: S_18  and  S_19
REMARK   15  A    between atoms: S_19  and  C_20
REMARK   16  A    between atoms: C_20  and  C_21
REMARK   17  A    between atoms: C_21  and  N_22
REMARK   18  A    between atoms: C_23  and  C_25
REMARK   19  A    between atoms: C_25  and  C_26
REMARK   20  A    between atoms: C_26  and  N_27
REMARK   21  A    between atoms: C_28  and  C_30
REMARK   22  A    between atoms: C_30  and  O_31
REMARK   23  A    between atoms: C_30  and  C_32
REMARK   24  A    between atoms: C_32  and  C_33
REMARK   25  A    between atoms: C_32  and  C_34
REMARK   26  A    between atoms: C_32  and  C_35
REMARK   27  A    between atoms: C_35  and  O_36
REMARK                            x       y       z     vdW  Elec       q    Type
REMARK                         _______ _______ _______ _____ _____    ______ ____
ROOT
ATOM      1  S   UNL     1      -7.094   1.844 127.954  0.00  0.00    +0.000 S 
ENDROOT
BRANCH   1   2
ATOM      2  S   UNL     1      -5.898   3.483 127.529  0.00  0.00    +0.000 S 
BRANCH   2   3
ATOM      3  C   UNL     1      -5.446   3.272 125.744  0.00  0.00    +0.000 C 
BRANCH   3   4
ATOM      4  C   UNL     1      -6.182   4.299 124.862  0.00  0.00    +0.000 C 
BRANCH   4   5
ATOM      5  N   UNL     1      -6.912   3.719 123.726  0.00  0.00    +0.000 N 
ATOM      6  C   UNL     1      -8.242   3.360 123.860  0.00  0.00    +0.000 C 
ATOM      7  O   UNL     1      -8.851   3.512 124.919  0.00  0.00    +0.000 OA
ATOM      8  H   UNL     1      -6.441   3.582 122.840  0.00  0.00    +0.000 HD
BRANCH   6   9
ATOM      9  C   UNL     1      -8.898   2.769 122.615  0.00  0.00    +0.000 C 
BRANCH   9  10
ATOM     10  C   UNL     1      -9.488   1.392 122.916  0.00  0.00    +0.000 C 
BRANCH  10  11
ATOM     11  N   UNL     1      -8.513   0.389 123.337  0.00  0.00    +0.000 N 
ATOM     12  C   UNL     1      -8.742  -0.298 124.512  0.00  0.00    +0.000 C 
ATOM     13  O   UNL     1      -9.759  -0.090 125.173  0.00  0.00    +0.000 OA
ATOM     14  H   UNL     1      -7.740   0.127 122.738  0.00  0.00    +0.000 HD
BRANCH  12  15
ATOM     15  C   UNL     1      -7.687  -1.356 124.938  0.00  0.00    +0.000 C 
BRANCH  15  16
ATOM     16  C   UNL     1      -8.117  -2.817 124.576  0.00  0.00    +0.000 C 
ATOM     17  C   UNL     1      -6.903  -3.753 124.368  0.00  0.00    +0.000 C 
ATOM     18  C   UNL     1      -8.950  -3.429 125.728  0.00  0.00    +0.000 C 
BRANCH  16  19
ATOM     19  C   UNL     1      -8.989  -2.771 123.302  0.00  0.00    +0.000 C 
BRANCH  19  20
ATOM     20  O   UNL     1     -10.191  -3.518 123.448  0.00  0.00    +0.000 OA
ATOM     21  H   UNL     1     -10.893  -3.043 122.970  0.00  0.00    +0.000 HD
ENDBRANCH  19  20
ENDBRANCH  16  19
ENDBRANCH  15  16
BRANCH  15  22
ATOM     22  O   UNL     1      -6.430  -1.036 124.337  0.00  0.00    +0.000 OA
ATOM     23  H   UNL     1      -6.179  -0.148 124.653  0.00  0.00    +0.000 HD
ENDBRANCH  15  22
ENDBRANCH  12  15
ENDBRANCH  10  11
ENDBRANCH   9  10
ENDBRANCH   6   9
ENDBRANCH   4   5
ENDBRANCH   3   4
ENDBRANCH   2   3
ENDBRANCH   1   2
BRANCH   1  24
ATOM     24  C   UNL     1      -6.179   0.939 129.286  0.00  0.00    +0.000 C 
BRANCH  24  25
ATOM     25  C   UNL     1      -7.109   0.599 130.465  0.00  0.00    +0.000 C 
BRANCH  25  28
ATOM     26  C   UNL     1      -8.115   2.553 131.607  0.00  0.00    +0.000 C 
ATOM     27  O   UNL     1      -7.108   2.693 132.300  0.00  0.00    +0.000 OA
ATOM     28  N   UNL     1      -8.217   1.544 130.664  0.00  0.00    +0.000 N 
ATOM     29  H   UNL     1      -9.060   1.458 130.110  0.00  0.00    +0.000 HD
BRANCH  26  30
ATOM     30  C   UNL     1      -9.328   3.471 131.724  0.00  0.00    +0.000 C 
BRANCH  30  31
ATOM     31  C   UNL     1      -9.489   4.308 130.460  0.00  0.00    +0.000 C 
BRANCH  31  34
ATOM     32  C   UNL     1     -11.352   5.850 130.188  0.00  0.00    +0.000 C 
ATOM     33  O   UNL     1     -11.944   4.965 129.571  0.00  0.00    +0.000 OA
ATOM     34  N   UNL     1     -10.080   5.626 130.672  0.00  0.00    +0.000 N 
ATOM     35  H   UNL     1      -9.628   6.340 131.231  0.00  0.00    +0.000 HD
BRANCH  32  36
ATOM     36  C   UNL     1     -11.967   7.252 130.461  0.00  0.00    +0.000 C 
BRANCH  36  38
ATOM     37  C   UNL     1     -10.937   8.286 128.358  0.00  0.00    +0.000 C 
ATOM     38  C   UNL     1     -12.249   8.054 129.145  0.00  0.00    +0.000 C 
ATOM     39  C   UNL     1     -12.832   9.451 129.467  0.00  0.00    +0.000 C 
BRANCH  38  40
ATOM     40  C   UNL     1     -13.208   7.243 128.235  0.00  0.00    +0.000 C 
BRANCH  40  41
ATOM     41  O   UNL     1     -12.541   6.744 127.081  0.00  0.00    +0.000 OA
ATOM     42  H   UNL     1     -12.756   5.797 127.016  0.00  0.00    +0.000 HD
ENDBRANCH  40  41
ENDBRANCH  38  40
ENDBRANCH  36  38
BRANCH  36  43
ATOM     43  O   UNL     1     -13.147   7.124 131.260  0.00  0.00    +0.000 OA
ATOM     44  H   UNL     1     -13.556   8.006 131.323  0.00  0.00    +0.000 HD
ENDBRANCH  36  43
ENDBRANCH  32  36
ENDBRANCH  31  34
ENDBRANCH  30  31
ENDBRANCH  26  30
ENDBRANCH  25  28
ENDBRANCH  24  25
ENDBRANCH   1  24
TORSDOF 23
ENDMDL
MODEL 4
REMARK VINA RESULT:      -6.2      1.839      8.008
REMARK  Name = Pantethine
REMARK  27 active torsions:
REMARK  status: ('A' for Active; 'I' for Inactive)
REMARK    1  A    between atoms: C_1  and  C_2
REMARK    2  A    between atoms: C_2  and  C_3
REMARK    3  A    between atoms: C_2  and  C_4
REMARK    4  A    between atoms: C_2  and  C_6
REMARK    5  A    between atoms: C_4  and  O_5
REMARK    6  A    between atoms: C_6  and  O_7
REMARK    7  A    between atoms: C_6  and  C_8
REMARK    8  A    between atoms: N_10  and  C_11
REMARK    9  A    between atoms: C_11  and  C_12
REMARK   10  A    between atoms: C_12  and  C_13
REMARK   11  A    between atoms: N_15  and  C_16
REMARK   12  A    between atoms: C_16  and  C_17
REMARK   13  A    between atoms: C_17  and  S_18
REMARK   14  A    between atoms: S_18  and  S_19
REMARK   15  A    between atoms: S_19  and  C_20
REMARK   16  A    between atoms: C_20  and  C_21
REMARK   17  A    between atoms: C_21  and  N_22
REMARK   18  A    between atoms: C_23  and  C_25
REMARK   19  A    between atoms: C_25  and  C_26
REMARK   20  A    between atoms: C_26  and  N_27
REMARK   21  A    between atoms: C_28  and  C_30
REMARK   22  A    between atoms: C_30  and  O_31
REMARK   23  A    between atoms: C_30  and  C_32
REMARK   24  A    between atoms: C_32  and  C_33
REMARK   25  A    between atoms: C_32  and  C_34
REMARK   26  A    between atoms: C_32  and  C_35
REMARK   27  A    between atoms: C_35  and  O_36
REMARK                            x       y       z     vdW  Elec       q    Type
REMARK                         _______ _______ _______ _____ _____    ______ ____
ROOT
ATOM      1  S   UNL     1      -6.883  -1.500 129.409  0.00  0.00    +0.000 S 
ENDROOT
BRANCH   1   2
ATOM      2  S   UNL     1      -7.924  -0.482 130.883  0.00  0.00    +0.000 S 
BRANCH   2   3
ATOM      3  C   UNL     1      -7.738   1.305 130.428  0.00  0.00    +0.000 C 
BRANCH   3   4
ATOM      4  C   UNL     1      -8.969   2.120 130.870  0.00  0.00    +0.000 C 
BRANCH   4   5
ATOM      5  N   UNL     1      -8.768   3.576 130.880  0.00  0.00    +0.000 N 
ATOM      6  C   UNL     1      -8.285   4.207 132.014  0.00  0.00    +0.000 C 
ATOM      7  O   UNL     1      -8.012   3.581 133.038  0.00  0.00    +0.000 OA
ATOM      8  H   UNL     1      -8.983   4.120 130.054  0.00  0.00    +0.000 HD
BRANCH   6   9
ATOM      9  C   UNL     1      -8.117   5.720 131.909  0.00  0.00    +0.000 C 
BRANCH   9  10
ATOM     10  C   UNL     1      -8.555   6.219 130.532  0.00  0.00    +0.000 C 
BRANCH  10  11
ATOM     11  N   UNL     1      -9.718   7.103 130.545  0.00  0.00    +0.000 N 
ATOM     12  C   UNL     1     -10.926   6.604 130.103  0.00  0.00    +0.000 C 
ATOM     13  O   UNL     1     -11.026   5.433 129.734  0.00  0.00    +0.000 OA
ATOM     14  H   UNL     1      -9.671   8.025 130.960  0.00  0.00    +0.000 HD
BRANCH  12  15
ATOM     15  C   UNL     1     -12.147   7.566 130.124  0.00  0.00    +0.000 C 
BRANCH  15  16
ATOM     16  C   UNL     1     -12.632   7.956 128.687  0.00  0.00    +0.000 C 
ATOM     17  C   UNL     1     -13.780   7.046 128.188  0.00  0.00    +0.000 C 
ATOM     18  C   UNL     1     -13.185   9.401 128.685  0.00  0.00    +0.000 C 
BRANCH  16  19
ATOM     19  C   UNL     1     -11.426   7.883 127.725  0.00  0.00    +0.000 C 
BRANCH  19  20
ATOM     20  O   UNL     1     -11.501   6.759 126.856  0.00  0.00    +0.000 OA
ATOM     21  H   UNL     1     -10.882   6.913 126.121  0.00  0.00    +0.000 HD
ENDBRANCH  19  20
ENDBRANCH  16  19
ENDBRANCH  15  16
BRANCH  15  22
ATOM     22  O   UNL     1     -13.207   6.965 130.870  0.00  0.00    +0.000 OA
ATOM     23  H   UNL     1     -13.669   6.351 130.269  0.00  0.00    +0.000 HD
ENDBRANCH  15  22
ENDBRANCH  12  15
ENDBRANCH  10  11
ENDBRANCH   9  10
ENDBRANCH   6   9
ENDBRANCH   4   5
ENDBRANCH   3   4
ENDBRANCH   2   3
ENDBRANCH   1   2
BRANCH   1  24
ATOM     24  C   UNL     1      -7.618  -3.201 129.417  0.00  0.00    +0.000 C 
BRANCH  24  25
ATOM     25  C   UNL     1      -8.680  -3.350 128.311  0.00  0.00    +0.000 C 
BRANCH  25  28
ATOM     26  C   UNL     1      -8.846  -3.237 125.844  0.00  0.00    +0.000 C 
ATOM     27  O   UNL     1      -9.938  -2.675 125.922  0.00  0.00    +0.000 OA
ATOM     28  N   UNL     1      -8.138  -3.614 126.972  0.00  0.00    +0.000 N 
ATOM     29  H   UNL     1      -7.241  -4.074 126.871  0.00  0.00    +0.000 HD
BRANCH  26  30
ATOM     30  C   UNL     1      -8.183  -3.564 124.509  0.00  0.00    +0.000 C 
BRANCH  30  31
ATOM     31  C   UNL     1      -8.207  -2.349 123.588  0.00  0.00    +0.000 C 
BRANCH  31  34
ATOM     32  C   UNL     1      -7.109  -0.179 123.648  0.00  0.00    +0.000 C 
ATOM     33  O   UNL     1      -6.548  -0.476 122.593  0.00  0.00    +0.000 OA
ATOM     34  N   UNL     1      -7.966  -1.073 124.254  0.00  0.00    +0.000 N 
ATOM     35  H   UNL     1      -8.467  -0.794 125.089  0.00  0.00    +0.000 HD
BRANCH  32  36
ATOM     36  C   UNL     1      -6.901   1.185 124.365  0.00  0.00    +0.000 C 
BRANCH  36  38
ATOM     37  C   UNL     1      -8.792   1.909 122.799  0.00  0.00    +0.000 C 
ATOM     38  C   UNL     1      -7.546   2.382 123.585  0.00  0.00    +0.000 C 
ATOM     39  C   UNL     1      -6.554   2.961 122.549  0.00  0.00    +0.000 C 
BRANCH  38  40
ATOM     40  C   UNL     1      -8.006   3.471 124.588  0.00  0.00    +0.000 C 
BRANCH  40  41
ATOM     41  O   UNL     1      -9.331   3.233 125.051  0.00  0.00    +0.000 OA
ATOM     42  H   UNL     1      -9.551   3.956 125.665  0.00  0.00    +0.000 HD
ENDBRANCH  40  41
ENDBRANCH  38  40
ENDBRANCH  36  38
BRANCH  36  43
ATOM     43  O   UNL     1      -7.386   1.113 125.709  0.00  0.00    +0.000 OA
ATOM     44  H   UNL     1      -8.359   1.071 125.667  0.00  0.00    +0.000 HD
ENDBRANCH  36  43
ENDBRANCH  32  36
ENDBRANCH  31  34
ENDBRANCH  30  31
ENDBRANCH  26  30
ENDBRANCH  25  28
ENDBRANCH  24  25
ENDBRANCH   1  24
TORSDOF 23
ENDMDL
MODEL 5
REMARK VINA RESULT:      -6.2      2.004      2.740
REMARK  Name = Pantethine
REMARK  27 active torsions:
REMARK  status: ('A' for Active; 'I' for Inactive)
REMARK    1  A    between atoms: C_1  and  C_2
REMARK    2  A    between atoms: C_2  and  C_3
REMARK    3  A    between atoms: C_2  and  C_4
REMARK    4  A    between atoms: C_2  and  C_6
REMARK    5  A    between atoms: C_4  and  O_5
REMARK    6  A    between atoms: C_6  and  O_7
REMARK    7  A    between atoms: C_6  and  C_8
REMARK    8  A    between atoms: N_10  and  C_11
REMARK    9  A    between atoms: C_11  and  C_12
REMARK   10  A    between atoms: C_12  and  C_13
REMARK   11  A    between atoms: N_15  and  C_16
REMARK   12  A    between atoms: C_16  and  C_17
REMARK   13  A    between atoms: C_17  and  S_18
REMARK   14  A    between atoms: S_18  and  S_19
REMARK   15  A    between atoms: S_19  and  C_20
REMARK   16  A    between atoms: C_20  and  C_21
REMARK   17  A    between atoms: C_21  and  N_22
REMARK   18  A    between atoms: C_23  and  C_25
REMARK   19  A    between atoms: C_25  and  C_26
REMARK   20  A    between atoms: C_26  and  N_27
REMARK   21  A    between atoms: C_28  and  C_30
REMARK   22  A    between atoms: C_30  and  O_31
REMARK   23  A    between atoms: C_30  and  C_32
REMARK   24  A    between atoms: C_32  and  C_33
REMARK   25  A    between atoms: C_32  and  C_34
REMARK   26  A    between atoms: C_32  and  C_35
REMARK   27  A    between atoms: C_35  and  O_36
REMARK                            x       y       z     vdW  Elec       q    Type
REMARK                         _______ _______ _______ _____ _____    ______ ____
ROOT
ATOM      1  S   UNL     1      -6.864   1.018 129.637  0.00  0.00    +0.000 S 
ENDROOT
BRANCH   1   2
ATOM      2  S   UNL     1      -7.207  -0.893 130.362  0.00  0.00    +0.000 S 
BRANCH   2   3
ATOM      3  C   UNL     1      -6.667  -2.011 128.986  0.00  0.00    +0.000 C 
BRANCH   3   4
ATOM      4  C   UNL     1      -7.877  -2.522 128.181  0.00  0.00    +0.000 C 
BRANCH   4   5
ATOM      5  N   UNL     1      -7.588  -2.840 126.775  0.00  0.00    +0.000 N 
ATOM      6  C   UNL     1      -8.613  -3.184 125.911  0.00  0.00    +0.000 C 
ATOM      7  O   UNL     1      -9.786  -3.236 126.284  0.00  0.00    +0.000 OA
ATOM      8  H   UNL     1      -6.635  -2.806 126.436  0.00  0.00    +0.000 HD
BRANCH   6   9
ATOM      9  C   UNL     1      -8.195  -3.492 124.477  0.00  0.00    +0.000 C 
BRANCH   9  10
ATOM     10  C   UNL     1      -8.605  -2.359 123.537  0.00  0.00    +0.000 C 
BRANCH  10  11
ATOM     11  N   UNL     1      -8.572  -1.028 124.137  0.00  0.00    +0.000 N 
ATOM     12  C   UNL     1      -9.321  -0.026 123.554  0.00  0.00    +0.000 C 
ATOM     13  O   UNL     1     -10.023  -0.258 122.568  0.00  0.00    +0.000 OA
ATOM     14  H   UNL     1      -8.097  -0.860 125.015  0.00  0.00    +0.000 HD
BRANCH  12  15
ATOM     15  C   UNL     1      -9.265   1.382 124.209  0.00  0.00    +0.000 C 
BRANCH  15  16
ATOM     16  C   UNL     1      -8.231   2.330 123.516  0.00  0.00    +0.000 C 
ATOM     17  C   UNL     1      -6.945   1.585 123.087  0.00  0.00    +0.000 C 
ATOM     18  C   UNL     1      -8.839   2.932 122.227  0.00  0.00    +0.000 C 
BRANCH  16  19
ATOM     19  C   UNL     1      -7.890   3.481 124.489  0.00  0.00    +0.000 C 
BRANCH  19  20
ATOM     20  O   UNL     1      -9.032   3.931 125.207  0.00  0.00    +0.000 OA
ATOM     21  H   UNL     1      -8.769   4.047 126.137  0.00  0.00    +0.000 HD
ENDBRANCH  19  20
ENDBRANCH  16  19
ENDBRANCH  15  16
BRANCH  15  22
ATOM     22  O   UNL     1     -10.572   1.961 124.193  0.00  0.00    +0.000 OA
ATOM     23  H   UNL     1     -10.481   2.882 124.501  0.00  0.00    +0.000 HD
ENDBRANCH  15  22
ENDBRANCH  12  15
ENDBRANCH  10  11
ENDBRANCH   9  10
ENDBRANCH   6   9
ENDBRANCH   4   5
ENDBRANCH   3   4
ENDBRANCH   2   3
ENDBRANCH   1   2
BRANCH   1  24
ATOM     24  C   UNL     1      -6.861   2.090 131.148  0.00  0.00    +0.000 C 
BRANCH  24  25
ATOM     25  C   UNL     1      -6.259   3.474 130.844  0.00  0.00    +0.000 C 
BRANCH  25  28
ATOM     26  C   UNL     1      -7.025   5.785 131.297  0.00  0.00    +0.000 C 
ATOM     27  O   UNL     1      -6.009   6.015 131.953  0.00  0.00    +0.000 OA
ATOM     28  N   UNL     1      -7.245   4.554 130.703  0.00  0.00    +0.000 N 
ATOM     29  H   UNL     1      -8.091   4.399 130.169  0.00  0.00    +0.000 HD
BRANCH  26  30
ATOM     30  C   UNL     1      -8.118   6.827 131.082  0.00  0.00    +0.000 C 
BRANCH  30  31
ATOM     31  C   UNL     1      -9.476   6.272 131.497  0.00  0.00    +0.000 C 
BRANCH  31  34
ATOM     32  C   UNL     1     -11.743   6.787 130.779  0.00  0.00    +0.000 C 
ATOM     33  O   UNL     1     -11.984   7.150 131.929  0.00  0.00    +0.000 OA
ATOM     34  N   UNL     1     -10.493   6.302 130.452  0.00  0.00    +0.000 N 
ATOM     35  H   UNL     1     -10.289   6.063 129.488  0.00  0.00    +0.000 HD
BRANCH  32  36
ATOM     36  C   UNL     1     -12.794   6.838 129.634  0.00  0.00    +0.000 C 
BRANCH  36  38
ATOM     37  C   UNL     1     -12.841   9.398 129.582  0.00  0.00    +0.000 C 
ATOM     38  C   UNL     1     -12.648   8.116 128.738  0.00  0.00    +0.000 C 
ATOM     39  C   UNL     1     -13.730   8.138 127.632  0.00  0.00    +0.000 C 
BRANCH  38  40
ATOM     40  C   UNL     1     -11.223   8.164 128.127  0.00  0.00    +0.000 C 
BRANCH  40  41
ATOM     41  O   UNL     1     -10.945   7.004 127.350  0.00  0.00    +0.000 OA
ATOM     42  H   UNL     1     -11.359   6.250 127.806  0.00  0.00    +0.000 HD
ENDBRANCH  40  41
ENDBRANCH  38  40
ENDBRANCH  36  38
BRANCH  36  43
ATOM     43  O   UNL     1     -12.730   5.640 128.854  0.00  0.00    +0.000 OA
ATOM     44  H   UNL     1     -11.968   5.123 129.173  0.00  0.00    +0.000 HD
ENDBRANCH  36  43
ENDBRANCH  32  36
ENDBRANCH  31  34
ENDBRANCH  30  31
ENDBRANCH  26  30
ENDBRANCH  25  28
ENDBRANCH  24  25
ENDBRANCH   1  24
TORSDOF 23
ENDMDL
MODEL 6
REMARK VINA RESULT:      -6.2      2.513      4.987
REMARK  Name = Pantethine
REMARK  27 active torsions:
REMARK  status: ('A' for Active; 'I' for Inactive)
REMARK    1  A    between atoms: C_1  and  C_2
REMARK    2  A    between atoms: C_2  and  C_3
REMARK    3  A    between atoms: C_2  and  C_4
REMARK    4  A    between atoms: C_2  and  C_6
REMARK    5  A    between atoms: C_4  and  O_5
REMARK    6  A    between atoms: C_6  and  O_7
REMARK    7  A    between atoms: C_6  and  C_8
REMARK    8  A    between atoms: N_10  and  C_11
REMARK    9  A    between atoms: C_11  and  C_12
REMARK   10  A    between atoms: C_12  and  C_13
REMARK   11  A    between atoms: N_15  and  C_16
REMARK   12  A    between atoms: C_16  and  C_17
REMARK   13  A    between atoms: C_17  and  S_18
REMARK   14  A    between atoms: S_18  and  S_19
REMARK   15  A    between atoms: S_19  and  C_20
REMARK   16  A    between atoms: C_20  and  C_21
REMARK   17  A    between atoms: C_21  and  N_22
REMARK   18  A    between atoms: C_23  and  C_25
REMARK   19  A    between atoms: C_25  and  C_26
REMARK   20  A    between atoms: C_26  and  N_27
REMARK   21  A    between atoms: C_28  and  C_30
REMARK   22  A    between atoms: C_30  and  O_31
REMARK   23  A    between atoms: C_30  and  C_32
REMARK   24  A    between atoms: C_32  and  C_33
REMARK   25  A    between atoms: C_32  and  C_34
REMARK   26  A    between atoms: C_32  and  C_35
REMARK   27  A    between atoms: C_35  and  O_36
REMARK                            x       y       z     vdW  Elec       q    Type
REMARK                         _______ _______ _______ _____ _____    ______ ____
ROOT
ATOM      1  S   UNL     1      -4.154   2.667 128.616  0.00  0.00    +0.000 S 
ENDROOT
BRANCH   1   2
ATOM      2  S   UNL     1      -3.709   2.985 126.617  0.00  0.00    +0.000 S 
BRANCH   2   3
ATOM      3  C   UNL     1      -4.863   4.340 126.099  0.00  0.00    +0.000 C 
BRANCH   3   4
ATOM      4  C   UNL     1      -5.388   4.104 124.670  0.00  0.00    +0.000 C 
BRANCH   4   5
ATOM      5  N   UNL     1      -6.818   3.771 124.589  0.00  0.00    +0.000 N 
ATOM      6  C   UNL     1      -7.289   2.953 123.577  0.00  0.00    +0.000 C 
ATOM      7  O   UNL     1      -6.539   2.482 122.722  0.00  0.00    +0.000 OA
ATOM      8  H   UNL     1      -7.461   4.142 125.278  0.00  0.00    +0.000 HD
BRANCH   6   9
ATOM      9  C   UNL     1      -8.789   2.676 123.594  0.00  0.00    +0.000 C 
BRANCH   9  10
ATOM     10  C   UNL     1      -9.125   1.565 124.588  0.00  0.00    +0.000 C 
BRANCH  10  11
ATOM     11  N   UNL     1      -8.081   0.556 124.749  0.00  0.00    +0.000 N 
ATOM     12  C   UNL     1      -8.433  -0.678 125.257  0.00  0.00    +0.000 C 
ATOM     13  O   UNL     1      -9.605  -0.930 125.540  0.00  0.00    +0.000 OA
ATOM     14  H   UNL     1      -7.142   0.714 124.406  0.00  0.00    +0.000 HD
BRANCH  12  15
ATOM     15  C   UNL     1      -7.303  -1.732 125.422  0.00  0.00    +0.000 C 
BRANCH  15  16
ATOM     16  C   UNL     1      -7.388  -2.880 124.361  0.00  0.00    +0.000 C 
ATOM     17  C   UNL     1      -8.302  -4.040 124.822  0.00  0.00    +0.000 C 
ATOM     18  C   UNL     1      -7.993  -2.343 123.042  0.00  0.00    +0.000 C 
BRANCH  16  19
ATOM     19  C   UNL     1      -5.959  -3.395 124.080  0.00  0.00    +0.000 C 
BRANCH  19  20
ATOM     20  O   UNL     1      -5.355  -2.725 122.980  0.00  0.00    +0.000 OA
ATOM     21  H   UNL     1      -5.164  -3.392 122.298  0.00  0.00    +0.000 HD
ENDBRANCH  19  20
ENDBRANCH  16  19
ENDBRANCH  15  16
BRANCH  15  22
ATOM     22  O   UNL     1      -6.035  -1.076 125.357  0.00  0.00    +0.000 OA
ATOM     23  H   UNL     1      -5.863  -0.879 124.418  0.00  0.00    +0.000 HD
ENDBRANCH  15  22
ENDBRANCH  12  15
ENDBRANCH  10  11
ENDBRANCH   9  10
ENDBRANCH   6   9
ENDBRANCH   4   5
ENDBRANCH   3   4
ENDBRANCH   2   3
ENDBRANCH   1   2
BRANCH   1  24
ATOM     24  C   UNL     1      -3.784   4.288 129.433  0.00  0.00    +0.000 C 
BRANCH  24  25
ATOM     25  C   UNL     1      -4.880   4.659 130.450  0.00  0.00    +0.000 C 
BRANCH  25  28
ATOM     26  C   UNL     1      -7.279   5.011 129.948  0.00  0.00    +0.000 C 
ATOM     27  O   UNL     1      -7.143   6.230 130.049  0.00  0.00    +0.000 OA
ATOM     28  N   UNL     1      -6.216   4.141 130.127  0.00  0.00    +0.000 N 
ATOM     29  H   UNL     1      -6.363   3.144 130.035  0.00  0.00    +0.000 HD
BRANCH  26  30
ATOM     30  C   UNL     1      -8.617   4.358 129.616  0.00  0.00    +0.000 C 
BRANCH  30  31
ATOM     31  C   UNL     1      -9.570   4.459 130.802  0.00  0.00    +0.000 C 
BRANCH  31  34
ATOM     32  C   UNL     1     -11.417   5.966 130.317  0.00  0.00    +0.000 C 
ATOM     33  O   UNL     1     -11.903   5.083 129.611  0.00  0.00    +0.000 OA
ATOM     34  N   UNL     1     -10.214   5.759 130.959  0.00  0.00    +0.000 N 
ATOM     35  H   UNL     1      -9.855   6.470 131.585  0.00  0.00    +0.000 HD
BRANCH  32  36
ATOM     36  C   UNL     1     -12.094   7.349 130.533  0.00  0.00    +0.000 C 
BRANCH  36  38
ATOM     37  C   UNL     1     -10.970   8.293 128.435  0.00  0.00    +0.000 C 
ATOM     38  C   UNL     1     -12.310   8.132 129.192  0.00  0.00    +0.000 C 
ATOM     39  C   UNL     1     -12.846   9.557 129.467  0.00  0.00    +0.000 C 
BRANCH  38  40
ATOM     40  C   UNL     1     -13.277   7.338 128.275  0.00  0.00    +0.000 C 
BRANCH  40  41
ATOM     41  O   UNL     1     -12.586   6.711 127.200  0.00  0.00    +0.000 OA
ATOM     42  H   UNL     1     -12.621   7.324 126.444  0.00  0.00    +0.000 HD
ENDBRANCH  40  41
ENDBRANCH  38  40
ENDBRANCH  36  38
BRANCH  36  43
ATOM     43  O   UNL     1     -13.323   7.188 131.249  0.00  0.00    +0.000 OA
ATOM     44  H   UNL     1     -13.948   6.729 130.660  0.00  0.00    +0.000 HD
ENDBRANCH  36  43
ENDBRANCH  32  36
ENDBRANCH  31  34
ENDBRANCH  30  31
ENDBRANCH  26  30
ENDBRANCH  25  28
ENDBRANCH  24  25
ENDBRANCH   1  24
TORSDOF 23
ENDMDL
MODEL 7
REMARK VINA RESULT:      -6.2      3.953      5.933
REMARK  Name = Pantethine
REMARK  27 active torsions:
REMARK  status: ('A' for Active; 'I' for Inactive)
REMARK    1  A    between atoms: C_1  and  C_2
REMARK    2  A    between atoms: C_2  and  C_3
REMARK    3  A    between atoms: C_2  and  C_4
REMARK    4  A    between atoms: C_2  and  C_6
REMARK    5  A    between atoms: C_4  and  O_5
REMARK    6  A    between atoms: C_6  and  O_7
REMARK    7  A    between atoms: C_6  and  C_8
REMARK    8  A    between atoms: N_10  and  C_11
REMARK    9  A    between atoms: C_11  and  C_12
REMARK   10  A    between atoms: C_12  and  C_13
REMARK   11  A    between atoms: N_15  and  C_16
REMARK   12  A    between atoms: C_16  and  C_17
REMARK   13  A    between atoms: C_17  and  S_18
REMARK   14  A    between atoms: S_18  and  S_19
REMARK   15  A    between atoms: S_19  and  C_20
REMARK   16  A    between atoms: C_20  and  C_21
REMARK   17  A    between atoms: C_21  and  N_22
REMARK   18  A    between atoms: C_23  and  C_25
REMARK   19  A    between atoms: C_25  and  C_26
REMARK   20  A    between atoms: C_26  and  N_27
REMARK   21  A    between atoms: C_28  and  C_30
REMARK   22  A    between atoms: C_30  and  O_31
REMARK   23  A    between atoms: C_30  and  C_32
REMARK   24  A    between atoms: C_32  and  C_33
REMARK   25  A    between atoms: C_32  and  C_34
REMARK   26  A    between atoms: C_32  and  C_35
REMARK   27  A    between atoms: C_35  and  O_36
REMARK                            x       y       z     vdW  Elec       q    Type
REMARK                         _______ _______ _______ _____ _____    ______ ____
ROOT
ATOM      1  S   UNL     1      -5.370   4.004 134.224  0.00  0.00    +0.000 S 
ENDROOT
BRANCH   1   2
ATOM      2  S   UNL     1      -4.130   5.394 133.315  0.00  0.00    +0.000 S 
BRANCH   2   3
ATOM      3  C   UNL     1      -5.293   6.637 132.581  0.00  0.00    +0.000 C 
BRANCH   3   4
ATOM      4  C   UNL     1      -5.713   6.227 131.156  0.00  0.00    +0.000 C 
BRANCH   4   5
ATOM      5  N   UNL     1      -4.634   5.655 130.339  0.00  0.00    +0.000 N 
ATOM      6  C   UNL     1      -3.959   6.443 129.422  0.00  0.00    +0.000 C 
ATOM      7  O   UNL     1      -4.235   7.631 129.261  0.00  0.00    +0.000 OA
ATOM      8  H   UNL     1      -4.381   4.681 130.448  0.00  0.00    +0.000 HD
BRANCH   6   9
ATOM      9  C   UNL     1      -2.858   5.742 128.631  0.00  0.00    +0.000 C 
BRANCH   9  10
ATOM     10  C   UNL     1      -3.357   4.411 128.070  0.00  0.00    +0.000 C 
BRANCH  10  11
ATOM     11  N   UNL     1      -3.903   4.486 126.717  0.00  0.00    +0.000 N 
ATOM     12  C   UNL     1      -5.267   4.626 126.566  0.00  0.00    +0.000 C 
ATOM     13  O   UNL     1      -6.003   4.715 127.550  0.00  0.00    +0.000 OA
ATOM     14  H   UNL     1      -3.295   4.537 125.909  0.00  0.00    +0.000 HD
BRANCH  12  15
ATOM     15  C   UNL     1      -5.822   4.700 125.116  0.00  0.00    +0.000 C 
BRANCH  15  16
ATOM     16  C   UNL     1      -6.461   3.350 124.645  0.00  0.00    +0.000 C 
ATOM     17  C   UNL     1      -6.356   3.152 123.115  0.00  0.00    +0.000 C 
ATOM     18  C   UNL     1      -5.724   2.155 125.295  0.00  0.00    +0.000 C 
BRANCH  16  19
ATOM     19  C   UNL     1      -7.940   3.325 125.094  0.00  0.00    +0.000 C 
BRANCH  19  20
ATOM     20  O   UNL     1      -8.823   3.719 124.050  0.00  0.00    +0.000 OA
ATOM     21  H   UNL     1      -9.570   3.096 124.046  0.00  0.00    +0.000 HD
ENDBRANCH  19  20
ENDBRANCH  16  19
ENDBRANCH  15  16
BRANCH  15  22
ATOM     22  O   UNL     1      -6.769   5.766 125.028  0.00  0.00    +0.000 OA
ATOM     23  H   UNL     1      -7.644   5.361 124.880  0.00  0.00    +0.000 HD
ENDBRANCH  15  22
ENDBRANCH  12  15
ENDBRANCH  10  11
ENDBRANCH   9  10
ENDBRANCH   6   9
ENDBRANCH   4   5
ENDBRANCH   3   4
ENDBRANCH   2   3
ENDBRANCH   1   2
BRANCH   1  24
ATOM     24  C   UNL     1      -6.398   5.003 135.398  0.00  0.00    +0.000 C 
BRANCH  24  25
ATOM     25  C   UNL     1      -7.628   5.598 134.688  0.00  0.00    +0.000 C 
BRANCH  25  28
ATOM     26  C   UNL     1      -9.083   5.348 132.701  0.00  0.00    +0.000 C 
ATOM     27  O   UNL     1      -9.612   6.436 132.925  0.00  0.00    +0.000 OA
ATOM     28  N   UNL     1      -8.086   4.840 133.516  0.00  0.00    +0.000 N 
ATOM     29  H   UNL     1      -7.671   3.942 133.301  0.00  0.00    +0.000 HD
BRANCH  26  30
ATOM     30  C   UNL     1      -9.475   4.472 131.514  0.00  0.00    +0.000 C 
BRANCH  30  31
ATOM     31  C   UNL     1      -8.978   5.084 130.210  0.00  0.00    +0.000 C 
BRANCH  31  34
ATOM     32  C   UNL     1     -10.078   7.042 129.274  0.00  0.00    +0.000 C 
ATOM     33  O   UNL     1      -9.286   7.741 129.904  0.00  0.00    +0.000 OA
ATOM     34  N   UNL     1     -10.021   5.667 129.372  0.00  0.00    +0.000 N 
ATOM     35  H   UNL     1     -10.639   5.102 128.802  0.00  0.00    +0.000 HD
BRANCH  32  36
ATOM     36  C   UNL     1     -11.179   7.631 128.346  0.00  0.00    +0.000 C 
BRANCH  36  38
ATOM     37  C   UNL     1     -12.622   6.930 130.342  0.00  0.00    +0.000 C 
ATOM     38  C   UNL     1     -12.547   7.828 129.084  0.00  0.00    +0.000 C 
ATOM     39  C   UNL     1     -13.728   7.421 128.170  0.00  0.00    +0.000 C 
BRANCH  38  40
ATOM     40  C   UNL     1     -12.682   9.302 129.548  0.00  0.00    +0.000 C 
BRANCH  40  41
ATOM     41  O   UNL     1     -13.379  10.092 128.592  0.00  0.00    +0.000 OA
ATOM     42  H   UNL     1     -13.688  10.892 129.054  0.00  0.00    +0.000 HD
ENDBRANCH  40  41
ENDBRANCH  38  40
ENDBRANCH  36  38
BRANCH  36  43
ATOM     43  O   UNL     1     -10.722   8.851 127.754  0.00  0.00    +0.000 OA
ATOM     44  H   UNL     1     -10.017   8.623 127.121  0.00  0.00    +0.000 HD
ENDBRANCH  36  43
ENDBRANCH  32  36
ENDBRANCH  31  34
ENDBRANCH  30  31
ENDBRANCH  26  30
ENDBRANCH  25  28
ENDBRANCH  24  25
ENDBRANCH   1  24
TORSDOF 23
ENDMDL
MODEL 8
REMARK VINA RESULT:      -6.1      1.852      2.266
REMARK  Name = Pantethine
REMARK  27 active torsions:
REMARK  status: ('A' for Active; 'I' for Inactive)
REMARK    1  A    between atoms: C_1  and  C_2
REMARK    2  A    between atoms: C_2  and  C_3
REMARK    3  A    between atoms: C_2  and  C_4
REMARK    4  A    between atoms: C_2  and  C_6
REMARK    5  A    between atoms: C_4  and  O_5
REMARK    6  A    between atoms: C_6  and  O_7
REMARK    7  A    between atoms: C_6  and  C_8
REMARK    8  A    between atoms: N_10  and  C_11
REMARK    9  A    between atoms: C_11  and  C_12
REMARK   10  A    between atoms: C_12  and  C_13
REMARK   11  A    between atoms: N_15  and  C_16
REMARK   12  A    between atoms: C_16  and  C_17
REMARK   13  A    between atoms: C_17  and  S_18
REMARK   14  A    between atoms: S_18  and  S_19
REMARK   15  A    between atoms: S_19  and  C_20
REMARK   16  A    between atoms: C_20  and  C_21
REMARK   17  A    between atoms: C_21  and  N_22
REMARK   18  A    between atoms: C_23  and  C_25
REMARK   19  A    between atoms: C_25  and  C_26
REMARK   20  A    between atoms: C_26  and  N_27
REMARK   21  A    between atoms: C_28  and  C_30
REMARK   22  A    between atoms: C_30  and  O_31
REMARK   23  A    between atoms: C_30  and  C_32
REMARK   24  A    between atoms: C_32  and  C_33
REMARK   25  A    between atoms: C_32  and  C_34
REMARK   26  A    between atoms: C_32  and  C_35
REMARK   27  A    between atoms: C_35  and  O_36
REMARK                            x       y       z     vdW  Elec       q    Type
REMARK                         _______ _______ _______ _____ _____    ______ ____
ROOT
ATOM      1  S   UNL     1      -4.867  -0.994 130.283  0.00  0.00    +0.000 S 
ENDROOT
BRANCH   1   2
ATOM      2  S   UNL     1      -4.682  -2.433 128.803  0.00  0.00    +0.000 S 
BRANCH   2   3
ATOM      3  C   UNL     1      -6.342  -2.461 127.979  0.00  0.00    +0.000 C 
BRANCH   3   4
ATOM      4  C   UNL     1      -6.230  -2.060 126.496  0.00  0.00    +0.000 C 
BRANCH   4   5
ATOM      5  N   UNL     1      -7.414  -2.376 125.684  0.00  0.00    +0.000 N 
ATOM      6  C   UNL     1      -7.331  -2.392 124.303  0.00  0.00    +0.000 C 
ATOM      7  O   UNL     1      -6.278  -2.145 123.714  0.00  0.00    +0.000 OA
ATOM      8  H   UNL     1      -8.295  -2.585 126.138  0.00  0.00    +0.000 HD
BRANCH   6   9
ATOM      9  C   UNL     1      -8.622  -2.733 123.565  0.00  0.00    +0.000 C 
BRANCH   9  10
ATOM     10  C   UNL     1      -9.143  -1.520 122.795  0.00  0.00    +0.000 C 
BRANCH  10  11
ATOM     11  N   UNL     1      -8.586  -0.240 123.225  0.00  0.00    +0.000 N 
ATOM     12  C   UNL     1      -9.452   0.813 123.441  0.00  0.00    +0.000 C 
ATOM     13  O   UNL     1     -10.667   0.667 123.301  0.00  0.00    +0.000 OA
ATOM     14  H   UNL     1      -7.606  -0.147 123.459  0.00  0.00    +0.000 HD
BRANCH  12  15
ATOM     15  C   UNL     1      -8.833   2.165 123.894  0.00  0.00    +0.000 C 
BRANCH  15  16
ATOM     16  C   UNL     1      -8.127   2.068 125.288  0.00  0.00    +0.000 C 
ATOM     17  C   UNL     1      -8.815   1.049 126.226  0.00  0.00    +0.000 C 
ATOM     18  C   UNL     1      -6.666   1.588 125.113  0.00  0.00    +0.000 C 
BRANCH  16  19
ATOM     19  C   UNL     1      -8.115   3.473 125.930  0.00  0.00    +0.000 C 
BRANCH  19  20
ATOM     20  O   UNL     1      -8.828   4.425 125.150  0.00  0.00    +0.000 OA
ATOM     21  H   UNL     1      -8.285   5.231 125.099  0.00  0.00    +0.000 HD
ENDBRANCH  19  20
ENDBRANCH  16  19
ENDBRANCH  15  16
BRANCH  15  22
ATOM     22  O   UNL     1      -7.919   2.623 122.895  0.00  0.00    +0.000 OA
ATOM     23  H   UNL     1      -7.146   2.990 123.361  0.00  0.00    +0.000 HD
ENDBRANCH  15  22
ENDBRANCH  12  15
ENDBRANCH  10  11
ENDBRANCH   9  10
ENDBRANCH   6   9
ENDBRANCH   4   5
ENDBRANCH   3   4
ENDBRANCH   2   3
ENDBRANCH   1   2
BRANCH   1  24
ATOM     24  C   UNL     1      -6.520  -0.219 129.968  0.00  0.00    +0.000 C 
BRANCH  24  25
ATOM     25  C   UNL     1      -6.384   1.293 129.715  0.00  0.00    +0.000 C 
BRANCH  25  28
ATOM     26  C   UNL     1      -8.143   2.896 130.400  0.00  0.00    +0.000 C 
ATOM     27  O   UNL     1      -7.539   3.144 131.443  0.00  0.00    +0.000 OA
ATOM     28  N   UNL     1      -7.654   1.991 129.473  0.00  0.00    +0.000 N 
ATOM     29  H   UNL     1      -8.176   1.811 128.624  0.00  0.00    +0.000 HD
BRANCH  26  30
ATOM     30  C   UNL     1      -9.470   3.557 130.040  0.00  0.00    +0.000 C 
BRANCH  30  31
ATOM     31  C   UNL     1     -10.106   4.186 131.274  0.00  0.00    +0.000 C 
BRANCH  31  34
ATOM     32  C   UNL     1     -10.868   6.489 131.079  0.00  0.00    +0.000 C 
ATOM     33  O   UNL     1      -9.741   6.850 131.417  0.00  0.00    +0.000 OA
ATOM     34  N   UNL     1     -11.169   5.146 130.991  0.00  0.00    +0.000 N 
ATOM     35  H   UNL     1     -12.081   4.862 130.654  0.00  0.00    +0.000 HD
BRANCH  32  36
ATOM     36  C   UNL     1     -12.012   7.485 130.737  0.00  0.00    +0.000 C 
BRANCH  36  38
ATOM     37  C   UNL     1     -12.681   9.101 128.866  0.00  0.00    +0.000 C 
ATOM     38  C   UNL     1     -12.218   7.661 129.193  0.00  0.00    +0.000 C 
ATOM     39  C   UNL     1     -13.318   6.705 128.674  0.00  0.00    +0.000 C 
BRANCH  38  40
ATOM     40  C   UNL     1     -10.874   7.419 128.457  0.00  0.00    +0.000 C 
BRANCH  40  41
ATOM     41  O   UNL     1      -9.949   8.474 128.692  0.00  0.00    +0.000 OA
ATOM     42  H   UNL     1      -9.443   8.598 127.869  0.00  0.00    +0.000 HD
ENDBRANCH  40  41
ENDBRANCH  38  40
ENDBRANCH  36  38
BRANCH  36  43
ATOM     43  O   UNL     1     -13.223   7.084 131.385  0.00  0.00    +0.000 OA
ATOM     44  H   UNL     1     -13.354   6.136 131.201  0.00  0.00    +0.000 HD
ENDBRANCH  36  43
ENDBRANCH  32  36
ENDBRANCH  31  34
ENDBRANCH  30  31
ENDBRANCH  26  30
ENDBRANCH  25  28
ENDBRANCH  24  25
ENDBRANCH   1  24
TORSDOF 23
ENDMDL
MODEL 9
REMARK VINA RESULT:      -6.1      2.699      3.782
REMARK  Name = Pantethine
REMARK  27 active torsions:
REMARK  status: ('A' for Active; 'I' for Inactive)
REMARK    1  A    between atoms: C_1  and  C_2
REMARK    2  A    between atoms: C_2  and  C_3
REMARK    3  A    between atoms: C_2  and  C_4
REMARK    4  A    between atoms: C_2  and  C_6
REMARK    5  A    between atoms: C_4  and  O_5
REMARK    6  A    between atoms: C_6  and  O_7
REMARK    7  A    between atoms: C_6  and  C_8
REMARK    8  A    between atoms: N_10  and  C_11
REMARK    9  A    between atoms: C_11  and  C_12
REMARK   10  A    between atoms: C_12  and  C_13
REMARK   11  A    between atoms: N_15  and  C_16
REMARK   12  A    between atoms: C_16  and  C_17
REMARK   13  A    between atoms: C_17  and  S_18
REMARK   14  A    between atoms: S_18  and  S_19
REMARK   15  A    between atoms: S_19  and  C_20
REMARK   16  A    between atoms: C_20  and  C_21
REMARK   17  A    between atoms: C_21  and  N_22
REMARK   18  A    between atoms: C_23  and  C_25
REMARK   19  A    between atoms: C_25  and  C_26
REMARK   20  A    between atoms: C_26  and  N_27
REMARK   21  A    between atoms: C_28  and  C_30
REMARK   22  A    between atoms: C_30  and  O_31
REMARK   23  A    between atoms: C_30  and  C_32
REMARK   24  A    between atoms: C_32  and  C_33
REMARK   25  A    between atoms: C_32  and  C_34
REMARK   26  A    between atoms: C_32  and  C_35
REMARK   27  A    between atoms: C_35  and  O_36
REMARK                            x       y       z     vdW  Elec       q    Type
REMARK                         _______ _______ _______ _____ _____    ______ ____
ROOT
ATOM      1  S   UNL     1      -5.550   0.214 131.533  0.00  0.00    +0.000 S 
ENDROOT
BRANCH   1   2
ATOM      2  S   UNL     1      -5.528   0.417 129.471  0.00  0.00    +0.000 S 
BRANCH   2   3
ATOM      3  C   UNL     1      -4.904  -1.216 128.854  0.00  0.00    +0.000 C 
BRANCH   3   4
ATOM      4  C   UNL     1      -5.677  -2.383 129.499  0.00  0.00    +0.000 C 
BRANCH   4   5
ATOM      5  N   UNL     1      -6.669  -3.020 128.620  0.00  0.00    +0.000 N 
ATOM      6  C   UNL     1      -8.003  -3.062 128.987  0.00  0.00    +0.000 C 
ATOM      7  O   UNL     1      -8.400  -2.574 130.045  0.00  0.00    +0.000 OA
ATOM      8  H   UNL     1      -6.375  -3.430 127.742  0.00  0.00    +0.000 HD
BRANCH   6   9
ATOM      9  C   UNL     1      -8.941  -3.748 127.997  0.00  0.00    +0.000 C 
BRANCH   9  10
ATOM     10  C   UNL     1      -8.531  -3.439 126.558  0.00  0.00    +0.000 C 
BRANCH  10  11
ATOM     11  N   UNL     1      -9.074  -2.192 126.024  0.00  0.00    +0.000 N 
ATOM     12  C   UNL     1      -8.223  -1.115 125.876  0.00  0.00    +0.000 C 
ATOM     13  O   UNL     1      -7.029  -1.214 126.160  0.00  0.00    +0.000 OA
ATOM     14  H   UNL     1     -10.023  -2.141 125.675  0.00  0.00    +0.000 HD
BRANCH  12  15
ATOM     15  C   UNL     1      -8.828   0.199 125.310  0.00  0.00    +0.000 C 
BRANCH  15  16
ATOM     16  C   UNL     1      -8.574   0.368 123.774  0.00  0.00    +0.000 C 
ATOM     17  C   UNL     1      -9.608   1.305 123.106  0.00  0.00    +0.000 C 
ATOM     18  C   UNL     1      -7.184   1.004 123.530  0.00  0.00    +0.000 C 
BRANCH  16  19
ATOM     19  C   UNL     1      -8.604  -1.029 123.115  0.00  0.00    +0.000 C 
BRANCH  19  20
ATOM     20  O   UNL     1      -9.932  -1.501 122.919  0.00  0.00    +0.000 OA
ATOM     21  H   UNL     1     -10.399  -0.848 122.368  0.00  0.00    +0.000 HD
ENDBRANCH  19  20
ENDBRANCH  16  19
ENDBRANCH  15  16
BRANCH  15  22
ATOM     22  O   UNL     1     -10.227   0.236 125.598  0.00  0.00    +0.000 OA
ATOM     23  H   UNL     1     -10.642   0.811 124.928  0.00  0.00    +0.000 HD
ENDBRANCH  15  22
ENDBRANCH  12  15
ENDBRANCH  10  11
ENDBRANCH   9  10
ENDBRANCH   6   9
ENDBRANCH   4   5
ENDBRANCH   3   4
ENDBRANCH   2   3
ENDBRANCH   1   2
BRANCH   1  24
ATOM     24  C   UNL     1      -7.349   0.131 131.967  0.00  0.00    +0.000 C 
BRANCH  24  25
ATOM     25  C   UNL     1      -8.136   1.268 131.290  0.00  0.00    +0.000 C 
BRANCH  25  28
ATOM     26  C   UNL     1      -8.378   3.413 132.504  0.00  0.00    +0.000 C 
ATOM     27  O   UNL     1      -9.414   3.019 133.037  0.00  0.00    +0.000 OA
ATOM     28  N   UNL     1      -7.665   2.620 131.620  0.00  0.00    +0.000 N 
ATOM     29  H   UNL     1      -6.815   2.976 131.200  0.00  0.00    +0.000 HD
BRANCH  26  30
ATOM     30  C   UNL     1      -7.792   4.797 132.769  0.00  0.00    +0.000 C 
BRANCH  30  31
ATOM     31  C   UNL     1      -8.841   5.877 132.530  0.00  0.00    +0.000 C 
BRANCH  31  34
ATOM     32  C   UNL     1      -9.396   6.488 130.241  0.00  0.00    +0.000 C 
ATOM     33  O   UNL     1      -8.526   7.355 130.302  0.00  0.00    +0.000 OA
ATOM     34  N   UNL     1      -9.653   5.685 131.333  0.00  0.00    +0.000 N 
ATOM     35  H   UNL     1     -10.330   4.935 131.251  0.00  0.00    +0.000 HD
BRANCH  32  36
ATOM     36  C   UNL     1     -10.256   6.234 128.970  0.00  0.00    +0.000 C 
BRANCH  36  38
ATOM     37  C   UNL     1     -10.573   8.598 128.038  0.00  0.00    +0.000 C 
ATOM     38  C   UNL     1     -11.280   7.387 128.694  0.00  0.00    +0.000 C 
ATOM     39  C   UNL     1     -11.906   7.894 130.015  0.00  0.00    +0.000 C 
BRANCH  38  40
ATOM     40  C   UNL     1     -12.372   6.890 127.712  0.00  0.00    +0.000 C 
BRANCH  40  41
ATOM     41  O   UNL     1     -11.818   6.506 126.459  0.00  0.00    +0.000 OA
ATOM     42  H   UNL     1     -11.720   5.538 126.476  0.00  0.00    +0.000 HD
ENDBRANCH  40  41
ENDBRANCH  38  40
ENDBRANCH  36  38
BRANCH  36  43
ATOM     43  O   UNL     1      -9.407   6.005 127.841  0.00  0.00    +0.000 OA
ATOM     44  H   UNL     1      -8.663   5.452 128.140  0.00  0.00    +0.000 HD
ENDBRANCH  36  43
ENDBRANCH  32  36
ENDBRANCH  31  34
ENDBRANCH  30  31
ENDBRANCH  26  30
ENDBRANCH  25  28
ENDBRANCH  24  25
ENDBRANCH   1  24
TORSDOF 23
ENDMDL
