MODEL 1
REMARK VINA RESULT:      -5.4      0.000      0.000
REMARK  Name = Pantothenic acid
REMARK  11 active torsions:
REMARK  status: ('A' for Active; 'I' for Inactive)
REMARK    1  A    between atoms: C_1  and  C_2
REMARK    2  A    between atoms: C_2  and  C_3
REMARK    3  A    between atoms: C_2  and  C_4
REMARK    4  A    between atoms: C_2  and  C_6
REMARK    5  A    between atoms: C_4  and  O_5
REMARK    6  A    between atoms: C_6  and  O_7
REMARK    7  A    between atoms: C_6  and  C_8
REMARK    8  A    between atoms: N_10  and  C_11
REMARK    9  A    between atoms: C_11  and  C_12
REMARK   10  A    between atoms: C_12  and  C_13
REMARK   11  A    between atoms: C_13  and  O_14
REMARK                            x       y       z     vdW  Elec       q    Type
REMARK                         _______ _______ _______ _____ _____    ______ ____
ROOT
ATOM      1  C   UNL     1     -11.933   6.566 130.516  0.00  0.00    +0.000 C 
ATOM      2  O   UNL     1     -12.494   7.566 130.963  0.00  0.00    +0.000 OA
ATOM      3  N   UNL     1     -12.263   6.105 129.264  0.00  0.00    +0.000 N 
ATOM      4  H   UNL     1     -11.848   5.245 128.915  0.00  0.00    +0.000 HD
ENDROOT
BRANCH   1   5
ATOM      5  C   UNL     1     -10.848   5.769 131.284  0.00  0.00    +0.000 C 
BRANCH   5   7
ATOM      6  C   UNL     1      -8.411   6.103 131.960  0.00  0.00    +0.000 C 
ATOM      7  C   UNL     1      -9.407   6.091 130.777  0.00  0.00    +0.000 C 
ATOM      8  C   UNL     1      -9.353   7.492 130.125  0.00  0.00    +0.000 C 
BRANCH   7   9
ATOM      9  C   UNL     1      -8.949   4.991 129.782  0.00  0.00    +0.000 C 
BRANCH   9  10
ATOM     10  O   UNL     1      -9.154   5.386 128.430  0.00  0.00    +0.000 OA
ATOM     11  H   UNL     1     -10.089   5.217 128.222  0.00  0.00    +0.000 HD
ENDBRANCH   9  10
ENDBRANCH   7   9
ENDBRANCH   5   7
BRANCH   5  12
ATOM     12  O   UNL     1     -10.982   6.001 132.689  0.00  0.00    +0.000 OA
ATOM     13  H   UNL     1     -11.884   6.327 132.854  0.00  0.00    +0.000 HD
ENDBRANCH   5  12
ENDBRANCH   1   5
BRANCH   3  14
ATOM     14  C   UNL     1     -13.299   6.819 128.551  0.00  0.00    +0.000 C 
BRANCH  14  15
ATOM     15  C   UNL     1     -12.932   7.215 127.145  0.00  0.00    +0.000 C 
BRANCH  15  16
ATOM     16  C   UNL     1     -11.467   7.507 126.928  0.00  0.00    +0.000 C 
ATOM     17  O   UNL     1     -10.734   6.691 126.372  0.00  0.00    +0.000 OA
BRANCH  16  18
ATOM     18  O   UNL     1     -10.977   8.684 127.355  0.00  0.00    +0.000 OA
ATOM     19  H   UNL     1     -11.277   9.515 126.946  0.00  0.00    +0.000 HD
ENDBRANCH  16  18
ENDBRANCH  15  16
ENDBRANCH  14  15
ENDBRANCH   3  14
TORSDOF 9
ENDMDL
MODEL 2
REMARK VINA RESULT:      -5.4      1.767      5.010
REMARK  Name = Pantothenic acid
REMARK  11 active torsions:
REMARK  status: ('A' for Active; 'I' for Inactive)
REMARK    1  A    between atoms: C_1  and  C_2
REMARK    2  A    between atoms: C_2  and  C_3
REMARK    3  A    between atoms: C_2  and  C_4
REMARK    4  A    between atoms: C_2  and  C_6
REMARK    5  A    between atoms: C_4  and  O_5
REMARK    6  A    between atoms: C_6  and  O_7
REMARK    7  A    between atoms: C_6  and  C_8
REMARK    8  A    between atoms: N_10  and  C_11
REMARK    9  A    between atoms: C_11  and  C_12
REMARK   10  A    between atoms: C_12  and  C_13
REMARK   11  A    between atoms: C_13  and  O_14
REMARK                            x       y       z     vdW  Elec       q    Type
REMARK                         _______ _______ _______ _____ _____    ______ ____
ROOT
ATOM      1  C   UNL     1     -10.102   6.505 129.553  0.00  0.00    +0.000 C 
ATOM      2  O   UNL     1      -9.453   5.863 128.730  0.00  0.00    +0.000 OA
ATOM      3  N   UNL     1      -9.474   7.017 130.664  0.00  0.00    +0.000 N 
ATOM      4  H   UNL     1     -10.016   7.496 131.378  0.00  0.00    +0.000 HD
ENDROOT
BRANCH   1   5
ATOM      5  C   UNL     1     -11.620   6.791 129.424  0.00  0.00    +0.000 C 
BRANCH   5   7
ATOM      6  C   UNL     1     -10.636   8.630 127.954  0.00  0.00    +0.000 C 
ATOM      7  C   UNL     1     -11.929   7.876 128.344  0.00  0.00    +0.000 C 
ATOM      8  C   UNL     1     -12.921   8.928 128.891  0.00  0.00    +0.000 C 
BRANCH   7   9
ATOM      9  C   UNL     1     -12.483   7.193 127.066  0.00  0.00    +0.000 C 
BRANCH   9  10
ATOM     10  O   UNL     1     -11.461   6.511 126.348  0.00  0.00    +0.000 OA
ATOM     11  H   UNL     1     -11.335   5.649 126.778  0.00  0.00    +0.000 HD
ENDBRANCH   9  10
ENDBRANCH   7   9
ENDBRANCH   5   7
BRANCH   5  12
ATOM     12  O   UNL     1     -12.321   5.571 129.168  0.00  0.00    +0.000 OA
ATOM     13  H   UNL     1     -11.741   4.832 129.425  0.00  0.00    +0.000 HD
ENDBRANCH   5  12
ENDBRANCH   1   5
BRANCH   3  14
ATOM     14  C   UNL     1      -8.064   6.729 130.814  0.00  0.00    +0.000 C 
BRANCH  14  15
ATOM     15  C   UNL     1      -7.697   6.059 132.112  0.00  0.00    +0.000 C 
BRANCH  15  16
ATOM     16  C   UNL     1      -8.869   5.576 132.932  0.00  0.00    +0.000 C 
ATOM     17  O   UNL     1      -9.338   4.451 132.766  0.00  0.00    +0.000 OA
BRANCH  16  18
ATOM     18  O   UNL     1      -9.392   6.404 133.853  0.00  0.00    +0.000 OA
ATOM     19  H   UNL     1      -9.440   6.127 134.786  0.00  0.00    +0.000 HD
ENDBRANCH  16  18
ENDBRANCH  15  16
ENDBRANCH  14  15
ENDBRANCH   3  14
TORSDOF 9
ENDMDL
MODEL 3
REMARK VINA RESULT:      -5.2      2.443      3.057
REMARK  Name = Pantothenic acid
REMARK  11 active torsions:
REMARK  status: ('A' for Active; 'I' for Inactive)
REMARK    1  A    between atoms: C_1  and  C_2
REMARK    2  A    between atoms: C_2  and  C_3
REMARK    3  A    between atoms: C_2  and  C_4
REMARK    4  A    between atoms: C_2  and  C_6
REMARK    5  A    between atoms: C_4  and  O_5
REMARK    6  A    between atoms: C_6  and  O_7
REMARK    7  A    between atoms: C_6  and  C_8
REMARK    8  A    between atoms: N_10  and  C_11
REMARK    9  A    between atoms: C_11  and  C_12
REMARK   10  A    between atoms: C_12  and  C_13
REMARK   11  A    between atoms: C_13  and  O_14
REMARK                            x       y       z     vdW  Elec       q    Type
REMARK                         _______ _______ _______ _____ _____    ______ ____
ROOT
ATOM      1  C   UNL     1     -12.022   6.644 129.559  0.00  0.00    +0.000 C 
ATOM      2  O   UNL     1     -12.364   6.199 128.464  0.00  0.00    +0.000 OA
ATOM      3  N   UNL     1     -11.924   8.004 129.738  0.00  0.00    +0.000 N 
ATOM      4  H   UNL     1     -11.584   8.375 130.621  0.00  0.00    +0.000 HD
ENDROOT
BRANCH   1   5
ATOM      5  C   UNL     1     -11.689   5.759 130.786  0.00  0.00    +0.000 C 
BRANCH   5   7
ATOM      6  C   UNL     1      -9.857   3.986 130.877  0.00  0.00    +0.000 C 
ATOM      7  C   UNL     1     -10.156   5.502 130.932  0.00  0.00    +0.000 C 
ATOM      8  C   UNL     1      -9.640   6.016 132.296  0.00  0.00    +0.000 C 
BRANCH   7   9
ATOM      9  C   UNL     1      -9.402   6.178 129.756  0.00  0.00    +0.000 C 
BRANCH   9  10
ATOM     10  O   UNL     1      -8.828   7.421 130.145  0.00  0.00    +0.000 OA
ATOM     11  H   UNL     1      -8.115   7.223 130.775  0.00  0.00    +0.000 HD
ENDBRANCH   9  10
ENDBRANCH   7   9
ENDBRANCH   5   7
BRANCH   5  12
ATOM     12  O   UNL     1     -12.246   6.341 131.967  0.00  0.00    +0.000 OA
ATOM     13  H   UNL     1     -13.127   6.690 131.744  0.00  0.00    +0.000 HD
ENDBRANCH   5  12
ENDBRANCH   1   5
BRANCH   3  14
ATOM     14  C   UNL     1     -12.200   8.841 128.591  0.00  0.00    +0.000 C 
BRANCH  14  15
ATOM     15  C   UNL     1     -13.442   9.683 128.714  0.00  0.00    +0.000 C 
BRANCH  15  16
ATOM     16  C   UNL     1     -13.366  10.780 129.748  0.00  0.00    +0.000 C 
ATOM     17  O   UNL     1     -13.310  10.517 130.948  0.00  0.00    +0.000 OA
BRANCH  16  18
ATOM     18  O   UNL     1     -13.361  12.058 129.330  0.00  0.00    +0.000 OA
ATOM     19  H   UNL     1     -12.665  12.370 128.725  0.00  0.00    +0.000 HD
ENDBRANCH  16  18
ENDBRANCH  15  16
ENDBRANCH  14  15
ENDBRANCH   3  14
TORSDOF 9
ENDMDL
MODEL 4
REMARK VINA RESULT:      -5.2      1.660      2.199
REMARK  Name = Pantothenic acid
REMARK  11 active torsions:
REMARK  status: ('A' for Active; 'I' for Inactive)
REMARK    1  A    between atoms: C_1  and  C_2
REMARK    2  A    between atoms: C_2  and  C_3
REMARK    3  A    between atoms: C_2  and  C_4
REMARK    4  A    between atoms: C_2  and  C_6
REMARK    5  A    between atoms: C_4  and  O_5
REMARK    6  A    between atoms: C_6  and  O_7
REMARK    7  A    between atoms: C_6  and  C_8
REMARK    8  A    between atoms: N_10  and  C_11
REMARK    9  A    between atoms: C_11  and  C_12
REMARK   10  A    between atoms: C_12  and  C_13
REMARK   11  A    between atoms: C_13  and  O_14
REMARK                            x       y       z     vdW  Elec       q    Type
REMARK                         _______ _______ _______ _____ _____    ______ ____
ROOT
ATOM      1  C   UNL     1     -11.288   6.214 130.269  0.00  0.00    +0.000 C 
ATOM      2  O   UNL     1     -11.970   5.587 129.460  0.00  0.00    +0.000 OA
ATOM      3  N   UNL     1     -11.090   7.563 130.089  0.00  0.00    +0.000 N 
ATOM      4  H   UNL     1     -10.478   8.074 130.719  0.00  0.00    +0.000 HD
ENDROOT
BRANCH   1   5
ATOM      5  C   UNL     1     -10.622   5.577 131.514  0.00  0.00    +0.000 C 
BRANCH   5   7
ATOM      6  C   UNL     1      -8.207   6.399 131.574  0.00  0.00    +0.000 C 
ATOM      7  C   UNL     1      -9.128   5.198 131.258  0.00  0.00    +0.000 C 
ATOM      8  C   UNL     1      -8.901   4.831 129.773  0.00  0.00    +0.000 C 
BRANCH   7   9
ATOM      9  C   UNL     1      -8.722   4.029 132.194  0.00  0.00    +0.000 C 
BRANCH   9  10
ATOM     10  O   UNL     1      -9.744   3.733 133.140  0.00  0.00    +0.000 OA
ATOM     11  H   UNL     1      -9.764   2.766 133.246  0.00  0.00    +0.000 HD
ENDBRANCH   9  10
ENDBRANCH   7   9
ENDBRANCH   5   7
BRANCH   5  12
ATOM     12  O   UNL     1     -10.764   6.450 132.638  0.00  0.00    +0.000 OA
ATOM     13  H   UNL     1     -11.666   6.814 132.624  0.00  0.00    +0.000 HD
ENDBRANCH   5  12
ENDBRANCH   1   5
BRANCH   3  14
ATOM     14  C   UNL     1     -11.679   8.163 128.912  0.00  0.00    +0.000 C 
BRANCH  14  15
ATOM     15  C   UNL     1     -10.731   8.331 127.754  0.00  0.00    +0.000 C 
BRANCH  15  16
ATOM     16  C   UNL     1     -11.138   7.612 126.490  0.00  0.00    +0.000 C 
ATOM     17  O   UNL     1     -10.733   7.984 125.390  0.00  0.00    +0.000 OA
BRANCH  16  18
ATOM     18  O   UNL     1     -11.957   6.550 126.591  0.00  0.00    +0.000 OA
ATOM     19  H   UNL     1     -12.749   6.597 127.155  0.00  0.00    +0.000 HD
ENDBRANCH  16  18
ENDBRANCH  15  16
ENDBRANCH  14  15
ENDBRANCH   3  14
TORSDOF 9
ENDMDL
MODEL 5
REMARK VINA RESULT:      -5.1      2.407      5.168
REMARK  Name = Pantothenic acid
REMARK  11 active torsions:
REMARK  status: ('A' for Active; 'I' for Inactive)
REMARK    1  A    between atoms: C_1  and  C_2
REMARK    2  A    between atoms: C_2  and  C_3
REMARK    3  A    between atoms: C_2  and  C_4
REMARK    4  A    between atoms: C_2  and  C_6
REMARK    5  A    between atoms: C_4  and  O_5
REMARK    6  A    between atoms: C_6  and  O_7
REMARK    7  A    between atoms: C_6  and  C_8
REMARK    8  A    between atoms: N_10  and  C_11
REMARK    9  A    between atoms: C_11  and  C_12
REMARK   10  A    between atoms: C_12  and  C_13
REMARK   11  A    between atoms: C_13  and  O_14
REMARK                            x       y       z     vdW  Elec       q    Type
REMARK                         _______ _______ _______ _____ _____    ______ ____
ROOT
ATOM      1  C   UNL     1     -10.382   5.581 130.777  0.00  0.00    +0.000 C 
ATOM      2  O   UNL     1      -9.197   5.677 130.462  0.00  0.00    +0.000 OA
ATOM      3  N   UNL     1     -10.938   4.336 130.959  0.00  0.00    +0.000 N 
ATOM      4  H   UNL     1     -11.930   4.249 131.159  0.00  0.00    +0.000 HD
ENDROOT
BRANCH   1   5
ATOM      5  C   UNL     1     -11.319   6.795 130.992  0.00  0.00    +0.000 C 
BRANCH   5   7
ATOM      6  C   UNL     1     -12.617   8.708 129.911  0.00  0.00    +0.000 C 
ATOM      7  C   UNL     1     -11.782   7.434 129.644  0.00  0.00    +0.000 C 
ATOM      8  C   UNL     1     -12.685   6.457 128.855  0.00  0.00    +0.000 C 
BRANCH   7   9
ATOM      9  C   UNL     1     -10.539   7.846 128.812  0.00  0.00    +0.000 C 
BRANCH   9  10
ATOM     10  O   UNL     1     -10.828   8.932 127.938  0.00  0.00    +0.000 OA
ATOM     11  H   UNL     1      -9.980   9.243 127.578  0.00  0.00    +0.000 HD
ENDBRANCH   9  10
ENDBRANCH   7   9
ENDBRANCH   5   7
BRANCH   5  12
ATOM     12  O   UNL     1     -12.429   6.410 131.808  0.00  0.00    +0.000 OA
ATOM     13  H   UNL     1     -13.240   6.510 131.278  0.00  0.00    +0.000 HD
ENDBRANCH   5  12
ENDBRANCH   1   5
BRANCH   3  14
ATOM     14  C   UNL     1     -10.082   3.193 130.727  0.00  0.00    +0.000 C 
BRANCH  14  15
ATOM     15  C   UNL     1      -9.993   2.233 131.884  0.00  0.00    +0.000 C 
BRANCH  15  16
ATOM     16  C   UNL     1      -9.323   2.786 133.119  0.00  0.00    +0.000 C 
ATOM     17  O   UNL     1      -8.247   2.338 133.510  0.00  0.00    +0.000 OA
BRANCH  16  18
ATOM     18  O   UNL     1      -9.930   3.784 133.785  0.00  0.00    +0.000 OA
ATOM     19  H   UNL     1      -9.632   4.704 133.663  0.00  0.00    +0.000 HD
ENDBRANCH  16  18
ENDBRANCH  15  16
ENDBRANCH  14  15
ENDBRANCH   3  14
TORSDOF 9
ENDMDL
MODEL 6
REMARK VINA RESULT:      -5.0      1.461      2.007
REMARK  Name = Pantothenic acid
REMARK  11 active torsions:
REMARK  status: ('A' for Active; 'I' for Inactive)
REMARK    1  A    between atoms: C_1  and  C_2
REMARK    2  A    between atoms: C_2  and  C_3
REMARK    3  A    between atoms: C_2  and  C_4
REMARK    4  A    between atoms: C_2  and  C_6
REMARK    5  A    between atoms: C_4  and  O_5
REMARK    6  A    between atoms: C_6  and  O_7
REMARK    7  A    between atoms: C_6  and  C_8
REMARK    8  A    between atoms: N_10  and  C_11
REMARK    9  A    between atoms: C_11  and  C_12
REMARK   10  A    between atoms: C_12  and  C_13
REMARK   11  A    between atoms: C_13  and  O_14
REMARK                            x       y       z     vdW  Elec       q    Type
REMARK                         _______ _______ _______ _____ _____    ______ ____
ROOT
ATOM      1  C   UNL     1     -11.125   5.406 130.422  0.00  0.00    +0.000 C 
ATOM      2  O   UNL     1     -11.592   4.382 129.926  0.00  0.00    +0.000 OA
ATOM      3  N   UNL     1     -11.489   6.632 129.918  0.00  0.00    +0.000 N 
ATOM      4  H   UNL     1     -11.060   7.478 130.283  0.00  0.00    +0.000 HD
ENDROOT
BRANCH   1   5
ATOM      5  C   UNL     1     -10.132   5.414 131.611  0.00  0.00    +0.000 C 
BRANCH   5   7
ATOM      6  C   UNL     1      -8.535   4.757 129.733  0.00  0.00    +0.000 C 
ATOM      7  C   UNL     1      -8.643   5.389 131.140  0.00  0.00    +0.000 C 
ATOM      8  C   UNL     1      -7.780   4.529 132.091  0.00  0.00    +0.000 C 
BRANCH   7   9
ATOM      9  C   UNL     1      -8.102   6.841 131.051  0.00  0.00    +0.000 C 
BRANCH   9  10
ATOM     10  O   UNL     1      -8.716   7.567 129.992  0.00  0.00    +0.000 OA
ATOM     11  H   UNL     1      -8.010   8.050 129.529  0.00  0.00    +0.000 HD
ENDBRANCH   9  10
ENDBRANCH   7   9
ENDBRANCH   5   7
BRANCH   5  12
ATOM     12  O   UNL     1     -10.402   6.534 132.459  0.00  0.00    +0.000 OA
ATOM     13  H   UNL     1     -10.900   6.212 133.231  0.00  0.00    +0.000 HD
ENDBRANCH   5  12
ENDBRANCH   1   5
BRANCH   3  14
ATOM     14  C   UNL     1     -12.389   6.638 128.785  0.00  0.00    +0.000 C 
BRANCH  14  15
ATOM     15  C   UNL     1     -12.099   7.701 127.759  0.00  0.00    +0.000 C 
BRANCH  15  16
ATOM     16  C   UNL     1     -10.897   7.430 126.886  0.00  0.00    +0.000 C 
ATOM     17  O   UNL     1      -9.968   6.731 127.285  0.00  0.00    +0.000 OA
BRANCH  16  18
ATOM     18  O   UNL     1     -10.863   7.971 125.655  0.00  0.00    +0.000 OA
ATOM     19  H   UNL     1     -11.561   8.591 125.376  0.00  0.00    +0.000 HD
ENDBRANCH  16  18
ENDBRANCH  15  16
ENDBRANCH  14  15
ENDBRANCH   3  14
TORSDOF 9
ENDMDL
MODEL 7
REMARK VINA RESULT:      -5.0      1.674      5.059
REMARK  Name = Pantothenic acid
REMARK  11 active torsions:
REMARK  status: ('A' for Active; 'I' for Inactive)
REMARK    1  A    between atoms: C_1  and  C_2
REMARK    2  A    between atoms: C_2  and  C_3
REMARK    3  A    between atoms: C_2  and  C_4
REMARK    4  A    between atoms: C_2  and  C_6
REMARK    5  A    between atoms: C_4  and  O_5
REMARK    6  A    between atoms: C_6  and  O_7
REMARK    7  A    between atoms: C_6  and  C_8
REMARK    8  A    between atoms: N_10  and  C_11
REMARK    9  A    between atoms: C_11  and  C_12
REMARK   10  A    between atoms: C_12  and  C_13
REMARK   11  A    between atoms: C_13  and  O_14
REMARK                            x       y       z     vdW  Elec       q    Type
REMARK                         _______ _______ _______ _____ _____    ______ ____
ROOT
ATOM      1  C   UNL     1     -10.085   6.862 128.905  0.00  0.00    +0.000 C 
ATOM      2  O   UNL     1      -9.609   5.781 128.562  0.00  0.00    +0.000 OA
ATOM      3  N   UNL     1      -9.654   7.456 130.067  0.00  0.00    +0.000 N 
ATOM      4  H   UNL     1     -10.087   8.318 130.386  0.00  0.00    +0.000 HD
ENDROOT
BRANCH   1   5
ATOM      5  C   UNL     1     -11.162   7.626 128.095  0.00  0.00    +0.000 C 
BRANCH   5   7
ATOM      6  C   UNL     1     -13.697   7.659 127.807  0.00  0.00    +0.000 C 
ATOM      7  C   UNL     1     -12.539   7.667 128.831  0.00  0.00    +0.000 C 
ATOM      8  C   UNL     1     -12.679   8.962 129.665  0.00  0.00    +0.000 C 
BRANCH   7   9
ATOM      9  C   UNL     1     -12.687   6.406 129.724  0.00  0.00    +0.000 C 
BRANCH   9  10
ATOM     10  O   UNL     1     -12.654   6.735 131.108  0.00  0.00    +0.000 OA
ATOM     11  H   UNL     1     -13.259   6.124 131.563  0.00  0.00    +0.000 HD
ENDBRANCH   9  10
ENDBRANCH   7   9
ENDBRANCH   5   7
BRANCH   5  12
ATOM     12  O   UNL     1     -10.689   8.939 127.779  0.00  0.00    +0.000 OA
ATOM     13  H   UNL     1     -10.873   9.106 126.839  0.00  0.00    +0.000 HD
ENDBRANCH   5  12
ENDBRANCH   1   5
BRANCH   3  14
ATOM     14  C   UNL     1      -8.673   6.737 130.850  0.00  0.00    +0.000 C 
BRANCH  14  15
ATOM     15  C   UNL     1      -9.191   6.191 132.154  0.00  0.00    +0.000 C 
BRANCH  15  16
ATOM     16  C   UNL     1      -9.639   4.750 132.108  0.00  0.00    +0.000 C 
ATOM     17  O   UNL     1      -9.144   3.908 132.854  0.00  0.00    +0.000 OA
BRANCH  16  18
ATOM     18  O   UNL     1     -10.598   4.405 131.230  0.00  0.00    +0.000 OA
ATOM     19  H   UNL     1     -10.354   4.099 130.338  0.00  0.00    +0.000 HD
ENDBRANCH  16  18
ENDBRANCH  15  16
ENDBRANCH  14  15
ENDBRANCH   3  14
TORSDOF 9
ENDMDL
MODEL 8
REMARK VINA RESULT:      -5.0      1.808      4.283
REMARK  Name = Pantothenic acid
REMARK  11 active torsions:
REMARK  status: ('A' for Active; 'I' for Inactive)
REMARK    1  A    between atoms: C_1  and  C_2
REMARK    2  A    between atoms: C_2  and  C_3
REMARK    3  A    between atoms: C_2  and  C_4
REMARK    4  A    between atoms: C_2  and  C_6
REMARK    5  A    between atoms: C_4  and  O_5
REMARK    6  A    between atoms: C_6  and  O_7
REMARK    7  A    between atoms: C_6  and  C_8
REMARK    8  A    between atoms: N_10  and  C_11
REMARK    9  A    between atoms: C_11  and  C_12
REMARK   10  A    between atoms: C_12  and  C_13
REMARK   11  A    between atoms: C_13  and  O_14
REMARK                            x       y       z     vdW  Elec       q    Type
REMARK                         _______ _______ _______ _____ _____    ______ ____
ROOT
ATOM      1  C   UNL     1     -12.120   6.863 130.869  0.00  0.00    +0.000 C 
ATOM      2  O   UNL     1     -12.508   7.599 131.775  0.00  0.00    +0.000 OA
ATOM      3  N   UNL     1     -11.048   6.028 131.083  0.00  0.00    +0.000 N 
ATOM      4  H   UNL     1     -10.686   5.463 130.321  0.00  0.00    +0.000 HD
ENDROOT
BRANCH   1   5
ATOM      5  C   UNL     1     -12.773   6.804 129.465  0.00  0.00    +0.000 C 
BRANCH   5   7
ATOM      6  C   UNL     1     -13.032   9.267 128.852  0.00  0.00    +0.000 C 
ATOM      7  C   UNL     1     -12.278   7.955 128.533  0.00  0.00    +0.000 C 
ATOM      8  C   UNL     1     -12.558   7.620 127.050  0.00  0.00    +0.000 C 
BRANCH   7   9
ATOM      9  C   UNL     1     -10.766   8.205 128.775  0.00  0.00    +0.000 C 
BRANCH   9  10
ATOM     10  O   UNL     1      -9.968   7.143 128.265  0.00  0.00    +0.000 OA
ATOM     11  H   UNL     1      -9.060   7.291 128.579  0.00  0.00    +0.000 HD
ENDBRANCH   9  10
ENDBRANCH   7   9
ENDBRANCH   5   7
BRANCH   5  12
ATOM     12  O   UNL     1     -12.552   5.516 128.883  0.00  0.00    +0.000 OA
ATOM     13  H   UNL     1     -11.940   5.027 129.460  0.00  0.00    +0.000 HD
ENDBRANCH   5  12
ENDBRANCH   1   5
BRANCH   3  14
ATOM     14  C   UNL     1     -10.408   6.098 132.379  0.00  0.00    +0.000 C 
BRANCH  14  15
ATOM     15  C   UNL     1      -8.905   6.162 132.331  0.00  0.00    +0.000 C 
BRANCH  15  16
ATOM     16  C   UNL     1      -8.317   6.307 130.948  0.00  0.00    +0.000 C 
ATOM     17  O   UNL     1      -7.800   7.362 130.586  0.00  0.00    +0.000 OA
BRANCH  16  18
ATOM     18  O   UNL     1      -8.371   5.253 130.115  0.00  0.00    +0.000 OA
ATOM     19  H   UNL     1      -8.053   5.339 129.198  0.00  0.00    +0.000 HD
ENDBRANCH  16  18
ENDBRANCH  15  16
ENDBRANCH  14  15
ENDBRANCH   3  14
TORSDOF 9
ENDMDL
MODEL 9
REMARK VINA RESULT:      -5.0      1.628      3.821
REMARK  Name = Pantothenic acid
REMARK  11 active torsions:
REMARK  status: ('A' for Active; 'I' for Inactive)
REMARK    1  A    between atoms: C_1  and  C_2
REMARK    2  A    between atoms: C_2  and  C_3
REMARK    3  A    between atoms: C_2  and  C_4
REMARK    4  A    between atoms: C_2  and  C_6
REMARK    5  A    between atoms: C_4  and  O_5
REMARK    6  A    between atoms: C_6  and  O_7
REMARK    7  A    between atoms: C_6  and  C_8
REMARK    8  A    between atoms: N_10  and  C_11
REMARK    9  A    between atoms: C_11  and  C_12
REMARK   10  A    between atoms: C_12  and  C_13
REMARK   11  A    between atoms: C_13  and  O_14
REMARK                            x       y       z     vdW  Elec       q    Type
REMARK                         _______ _______ _______ _____ _____    ______ ____
ROOT
ATOM      1  C   UNL     1     -11.040   6.447 131.363  0.00  0.00    +0.000 C 
ATOM      2  O   UNL     1     -10.049   6.698 132.048  0.00  0.00    +0.000 OA
ATOM      3  N   UNL     1     -11.203   5.186 130.840  0.00  0.00    +0.000 N 
ATOM      4  H   UNL     1     -11.987   4.991 130.224  0.00  0.00    +0.000 HD
ENDROOT
BRANCH   1   5
ATOM      5  C   UNL     1     -12.151   7.478 131.043  0.00  0.00    +0.000 C 
BRANCH   5   7
ATOM      6  C   UNL     1     -12.821   9.224 129.307  0.00  0.00    +0.000 C 
ATOM      7  C   UNL     1     -12.228   7.812 129.519  0.00  0.00    +0.000 C 
ATOM      8  C   UNL     1     -13.154   6.816 128.784  0.00  0.00    +0.000 C 
BRANCH   7   9
ATOM      9  C   UNL     1     -10.799   7.802 128.913  0.00  0.00    +0.000 C 
BRANCH   9  10
ATOM     10  O   UNL     1     -10.625   6.727 127.996  0.00  0.00    +0.000 OA
ATOM     11  H   UNL     1     -11.154   6.935 127.207  0.00  0.00    +0.000 HD
ENDBRANCH   9  10
ENDBRANCH   7   9
ENDBRANCH   5   7
BRANCH   5  12
ATOM     12  O   UNL     1     -13.404   7.011 131.549  0.00  0.00    +0.000 OA
ATOM     13  H   UNL     1     -13.743   7.677 132.172  0.00  0.00    +0.000 HD
ENDBRANCH   5  12
ENDBRANCH   1   5
BRANCH   3  14
ATOM     14  C   UNL     1     -10.155   4.224 131.104  0.00  0.00    +0.000 C 
BRANCH  14  15
ATOM     15  C   UNL     1      -9.436   3.730 129.877  0.00  0.00    +0.000 C 
BRANCH  15  16
ATOM     16  C   UNL     1      -8.606   4.771 129.164  0.00  0.00    +0.000 C 
ATOM     17  O   UNL     1      -8.385   4.688 127.957  0.00  0.00    +0.000 OA
BRANCH  16  18
ATOM     18  O   UNL     1      -8.112   5.797 129.879  0.00  0.00    +0.000 OA
ATOM     19  H   UNL     1      -8.234   5.822 130.845  0.00  0.00    +0.000 HD
ENDBRANCH  16  18
ENDBRANCH  15  16
ENDBRANCH  14  15
ENDBRANCH   3  14
TORSDOF 9
ENDMDL
