MODEL 1
REMARK VINA RESULT:      -7.2      0.000      0.000
REMARK  Name = Pantoprazole
REMARK  9 active torsions:
REMARK  status: ('A' for Active; 'I' for Inactive)
REMARK    1  A    between atoms: C_1  and  O_2
REMARK    2  A    between atoms: O_2  and  C_3
REMARK    3  A    between atoms: C_4  and  O_5
REMARK    4  A    between atoms: O_5  and  C_6
REMARK    5  A    between atoms: C_7  and  C_8
REMARK    6  A    between atoms: C_8  and  S_9
REMARK    7  A    between atoms: S_9  and  C_11
REMARK    8  A    between atoms: C_17  and  O_18
REMARK    9  A    between atoms: O_18  and  C_19
REMARK                            x       y       z     vdW  Elec       q    Type
REMARK                         _______ _______ _______ _____ _____    ______ ____
ROOT
ATOM      1  C   UNL     1      -7.872   3.309 127.532  0.00  0.00    +0.000 A 
ATOM      2  N   UNL     1      -8.412   2.614 126.578  0.00  0.00    +0.000 NA
ATOM      3  C   UNL     1      -7.753   3.041 125.453  0.00  0.00    +0.000 A 
ATOM      4  C   UNL     1      -6.811   4.018 125.747  0.00  0.00    +0.000 A 
ATOM      5  N   UNL     1      -6.949   4.218 127.084  0.00  0.00    +0.000 N 
ATOM      6  C   UNL     1      -5.955   4.593 124.816  0.00  0.00    +0.000 A 
ATOM      7  C   UNL     1      -6.066   4.112 123.510  0.00  0.00    +0.000 A 
ATOM      8  C   UNL     1      -7.021   3.137 123.183  0.00  0.00    +0.000 A 
ATOM      9  C   UNL     1      -7.893   2.610 124.139  0.00  0.00    +0.000 A 
ATOM     10  H   UNL     1      -6.482   4.877 127.681  0.00  0.00    +0.000 HD
ENDROOT
BRANCH   1  11
ATOM     11  S   UNL     1      -8.319   3.397 129.154  0.00  0.00    +0.000 S 
ATOM     12  O   UNL     1      -9.757   2.965 129.199  0.00  0.00    +0.000 OA
BRANCH  11  13
ATOM     13  C   UNL     1      -8.160   5.116 129.706  0.00  0.00    +0.000 C 
BRANCH  13  16
ATOM     14  C   UNL     1     -11.192   7.557 129.596  0.00  0.00    +0.000 A 
ATOM     15  C   UNL     1     -10.126   6.810 130.100  0.00  0.00    +0.000 A 
ATOM     16  C   UNL     1      -9.288   6.062 129.214  0.00  0.00    +0.000 A 
ATOM     17  N   UNL     1      -9.439   6.135 127.861  0.00  0.00    +0.000 NA
ATOM     18  C   UNL     1     -10.442   6.914 127.397  0.00  0.00    +0.000 A 
ATOM     19  C   UNL     1     -11.338   7.599 128.208  0.00  0.00    +0.000 A 
BRANCH  14  21
ATOM     20  C   UNL     1     -12.904   9.281 129.716  0.00  0.00    +0.000 C 
ATOM     21  O   UNL     1     -12.212   8.172 130.276  0.00  0.00    +0.000 OA
ENDBRANCH  14  21
BRANCH  15  22
ATOM     22  O   UNL     1      -9.694   6.768 131.372  0.00  0.00    +0.000 OA
ATOM     23  C   UNL     1     -10.294   6.133 132.455  0.00  0.00    +0.000 C 
ENDBRANCH  15  22
ENDBRANCH  13  16
ENDBRANCH  11  13
ENDBRANCH   1  11
BRANCH   7  24
ATOM     24  O   UNL     1      -5.182   4.675 122.629  0.00  0.00    +0.000 OA
BRANCH  24  25
ATOM     25  C   UNL     1      -5.404   4.369 121.263  0.00  0.00    +0.000 C 
ATOM     26  F   UNL     1      -5.040   5.430 120.501  0.00  0.00    +0.000 F 
ATOM     27  F   UNL     1      -4.573   3.351 120.931  0.00  0.00    +0.000 F 
ENDBRANCH  24  25
ENDBRANCH   7  24
TORSDOF 7
ENDMDL
MODEL 2
REMARK VINA RESULT:      -7.2      5.467      7.549
REMARK  Name = Pantoprazole
REMARK  9 active torsions:
REMARK  status: ('A' for Active; 'I' for Inactive)
REMARK    1  A    between atoms: C_1  and  O_2
REMARK    2  A    between atoms: O_2  and  C_3
REMARK    3  A    between atoms: C_4  and  O_5
REMARK    4  A    between atoms: O_5  and  C_6
REMARK    5  A    between atoms: C_7  and  C_8
REMARK    6  A    between atoms: C_8  and  S_9
REMARK    7  A    between atoms: S_9  and  C_11
REMARK    8  A    between atoms: C_17  and  O_18
REMARK    9  A    between atoms: O_18  and  C_19
REMARK                            x       y       z     vdW  Elec       q    Type
REMARK                         _______ _______ _______ _____ _____    ______ ____
ROOT
ATOM      1  C   UNL     1      -7.851   2.422 124.265  0.00  0.00    +0.000 A 
ATOM      2  N   UNL     1      -8.863   2.629 123.479  0.00  0.00    +0.000 NA
ATOM      3  C   UNL     1      -8.294   3.163 122.351  0.00  0.00    +0.000 A 
ATOM      4  C   UNL     1      -6.916   3.285 122.477  0.00  0.00    +0.000 A 
ATOM      5  N   UNL     1      -6.662   2.859 123.742  0.00  0.00    +0.000 N 
ATOM      6  C   UNL     1      -6.070   3.739 121.474  0.00  0.00    +0.000 A 
ATOM      7  C   UNL     1      -6.684   4.065 120.262  0.00  0.00    +0.000 A 
ATOM      8  C   UNL     1      -8.075   3.966 120.113  0.00  0.00    +0.000 A 
ATOM      9  C   UNL     1      -8.900   3.542 121.159  0.00  0.00    +0.000 A 
ATOM     10  H   UNL     1      -5.791   2.831 124.242  0.00  0.00    +0.000 HD
ENDROOT
BRANCH   1  11
ATOM     11  S   UNL     1      -7.852   1.927 125.875  0.00  0.00    +0.000 S 
ATOM     12  O   UNL     1      -6.438   1.511 126.168  0.00  0.00    +0.000 OA
BRANCH  11  13
ATOM     13  C   UNL     1      -8.973   0.513 126.046  0.00  0.00    +0.000 C 
BRANCH  13  16
ATOM     14  C   UNL     1      -7.554  -2.678 124.324  0.00  0.00    +0.000 A 
ATOM     15  C   UNL     1      -7.823  -1.730 125.313  0.00  0.00    +0.000 A 
ATOM     16  C   UNL     1      -8.715  -0.644 125.043  0.00  0.00    +0.000 A 
ATOM     17  N   UNL     1      -9.399  -0.558 123.867  0.00  0.00    +0.000 NA
ATOM     18  C   UNL     1      -9.165  -1.525 122.950  0.00  0.00    +0.000 A 
ATOM     19  C   UNL     1      -8.251  -2.558 123.120  0.00  0.00    +0.000 A 
BRANCH  14  21
ATOM     20  C   UNL     1      -5.252  -3.375 123.956  0.00  0.00    +0.000 C 
ATOM     21  O   UNL     1      -6.599  -3.662 124.312  0.00  0.00    +0.000 OA
ENDBRANCH  14  21
BRANCH  15  22
ATOM     22  O   UNL     1      -7.407  -1.748 126.590  0.00  0.00    +0.000 OA
ATOM     23  C   UNL     1      -7.819  -2.602 127.608  0.00  0.00    +0.000 C 
ENDBRANCH  15  22
ENDBRANCH  13  16
ENDBRANCH  11  13
ENDBRANCH   1  11
BRANCH   7  24
ATOM     24  O   UNL     1      -5.814   4.473 119.287  0.00  0.00    +0.000 OA
BRANCH  24  25
ATOM     25  C   UNL     1      -6.138   5.702 118.658  0.00  0.00    +0.000 C 
ATOM     26  F   UNL     1      -5.407   6.698 119.218  0.00  0.00    +0.000 F 
ATOM     27  F   UNL     1      -5.746   5.616 117.363  0.00  0.00    +0.000 F 
ENDBRANCH  24  25
ENDBRANCH   7  24
TORSDOF 7
ENDMDL
MODEL 3
REMARK VINA RESULT:      -7.1      5.368      7.715
REMARK  Name = Pantoprazole
REMARK  9 active torsions:
REMARK  status: ('A' for Active; 'I' for Inactive)
REMARK    1  A    between atoms: C_1  and  O_2
REMARK    2  A    between atoms: O_2  and  C_3
REMARK    3  A    between atoms: C_4  and  O_5
REMARK    4  A    between atoms: O_5  and  C_6
REMARK    5  A    between atoms: C_7  and  C_8
REMARK    6  A    between atoms: C_8  and  S_9
REMARK    7  A    between atoms: S_9  and  C_11
REMARK    8  A    between atoms: C_17  and  O_18
REMARK    9  A    between atoms: O_18  and  C_19
REMARK                            x       y       z     vdW  Elec       q    Type
REMARK                         _______ _______ _______ _____ _____    ______ ____
ROOT
ATOM      1  C   UNL     1      -9.305   6.072 132.271  0.00  0.00    +0.000 A 
ATOM      2  N   UNL     1     -10.561   6.190 132.576  0.00  0.00    +0.000 NA
ATOM      3  C   UNL     1     -11.117   6.748 131.453  0.00  0.00    +0.000 A 
ATOM      4  C   UNL     1     -10.166   6.975 130.467  0.00  0.00    +0.000 A 
ATOM      5  N   UNL     1      -8.996   6.588 131.040  0.00  0.00    +0.000 N 
ATOM      6  C   UNL     1     -10.447   7.476 129.201  0.00  0.00    +0.000 A 
ATOM      7  C   UNL     1     -11.793   7.736 128.936  0.00  0.00    +0.000 A 
ATOM      8  C   UNL     1     -12.772   7.531 129.921  0.00  0.00    +0.000 A 
ATOM      9  C   UNL     1     -12.446   7.063 131.197  0.00  0.00    +0.000 A 
ATOM     10  H   UNL     1      -8.062   6.634 130.674  0.00  0.00    +0.000 HD
ENDROOT
BRANCH   1  11
ATOM     11  S   UNL     1      -8.021   5.603 133.256  0.00  0.00    +0.000 S 
ATOM     12  O   UNL     1      -6.898   5.264 132.318  0.00  0.00    +0.000 OA
BRANCH  11  13
ATOM     13  C   UNL     1      -8.519   4.137 134.198  0.00  0.00    +0.000 C 
BRANCH  13  16
ATOM     14  C   UNL     1      -7.452   0.801 132.496  0.00  0.00    +0.000 A 
ATOM     15  C   UNL     1      -7.417   1.916 133.336  0.00  0.00    +0.000 A 
ATOM     16  C   UNL     1      -8.529   2.816 133.383  0.00  0.00    +0.000 A 
ATOM     17  N   UNL     1      -9.680   2.561 132.699  0.00  0.00    +0.000 NA
ATOM     18  C   UNL     1      -9.709   1.442 131.941  0.00  0.00    +0.000 A 
ATOM     19  C   UNL     1      -8.635   0.573 131.790  0.00  0.00    +0.000 A 
BRANCH  14  21
ATOM     20  C   UNL     1      -6.244  -0.478 130.816  0.00  0.00    +0.000 C 
ATOM     21  O   UNL     1      -6.436  -0.058 132.161  0.00  0.00    +0.000 OA
ENDBRANCH  14  21
BRANCH  15  22
ATOM     22  O   UNL     1      -6.464   2.230 134.228  0.00  0.00    +0.000 OA
ATOM     23  C   UNL     1      -5.148   2.603 133.974  0.00  0.00    +0.000 C 
ENDBRANCH  15  22
ENDBRANCH  13  16
ENDBRANCH  11  13
ENDBRANCH   1  11
BRANCH   7  24
ATOM     24  O   UNL     1     -12.036   8.194 127.669  0.00  0.00    +0.000 OA
BRANCH  24  25
ATOM     25  C   UNL     1     -11.574   7.359 126.621  0.00  0.00    +0.000 C 
ATOM     26  F   UNL     1     -12.631   6.941 125.881  0.00  0.00    +0.000 F 
ATOM     27  F   UNL     1     -10.804   8.116 125.801  0.00  0.00    +0.000 F 
ENDBRANCH  24  25
ENDBRANCH   7  24
TORSDOF 7
ENDMDL
MODEL 4
REMARK VINA RESULT:      -7.1      5.051      6.720
REMARK  Name = Pantoprazole
REMARK  9 active torsions:
REMARK  status: ('A' for Active; 'I' for Inactive)
REMARK    1  A    between atoms: C_1  and  O_2
REMARK    2  A    between atoms: O_2  and  C_3
REMARK    3  A    between atoms: C_4  and  O_5
REMARK    4  A    between atoms: O_5  and  C_6
REMARK    5  A    between atoms: C_7  and  C_8
REMARK    6  A    between atoms: C_8  and  S_9
REMARK    7  A    between atoms: S_9  and  C_11
REMARK    8  A    between atoms: C_17  and  O_18
REMARK    9  A    between atoms: O_18  and  C_19
REMARK                            x       y       z     vdW  Elec       q    Type
REMARK                         _______ _______ _______ _____ _____    ______ ____
ROOT
ATOM      1  C   UNL     1      -8.078   3.049 124.787  0.00  0.00    +0.000 A 
ATOM      2  N   UNL     1      -9.075   2.956 123.961  0.00  0.00    +0.000 NA
ATOM      3  C   UNL     1      -9.052   1.640 123.572  0.00  0.00    +0.000 A 
ATOM      4  C   UNL     1      -8.012   0.943 124.173  0.00  0.00    +0.000 A 
ATOM      5  N   UNL     1      -7.362   1.886 124.903  0.00  0.00    +0.000 N 
ATOM      6  C   UNL     1      -7.779  -0.417 124.012  0.00  0.00    +0.000 A 
ATOM      7  C   UNL     1      -8.688  -1.098 123.200  0.00  0.00    +0.000 A 
ATOM      8  C   UNL     1      -9.738  -0.414 122.567  0.00  0.00    +0.000 A 
ATOM      9  C   UNL     1      -9.918   0.963 122.721  0.00  0.00    +0.000 A 
ATOM     10  H   UNL     1      -6.525   1.801 125.453  0.00  0.00    +0.000 HD
ENDROOT
BRANCH   1  11
ATOM     11  S   UNL     1      -7.440   4.426 125.517  0.00  0.00    +0.000 S 
ATOM     12  O   UNL     1      -6.309   4.864 124.629  0.00  0.00    +0.000 OA
BRANCH  11  13
ATOM     13  C   UNL     1      -6.815   3.976 127.157  0.00  0.00    +0.000 C 
BRANCH  13  16
ATOM     14  C   UNL     1      -3.089   4.742 127.990  0.00  0.00    +0.000 A 
ATOM     15  C   UNL     1      -4.483   4.809 128.028  0.00  0.00    +0.000 A 
ATOM     16  C   UNL     1      -5.268   3.891 127.261  0.00  0.00    +0.000 A 
ATOM     17  N   UNL     1      -4.692   2.873 126.561  0.00  0.00    +0.000 NA
ATOM     18  C   UNL     1      -3.342   2.795 126.591  0.00  0.00    +0.000 A 
ATOM     19  C   UNL     1      -2.522   3.703 127.249  0.00  0.00    +0.000 A 
BRANCH  14  21
ATOM     20  C   UNL     1      -2.232   7.013 128.147  0.00  0.00    +0.000 C 
ATOM     21  O   UNL     1      -2.170   5.633 128.483  0.00  0.00    +0.000 OA
ENDBRANCH  14  21
BRANCH  15  22
ATOM     22  O   UNL     1      -5.236   5.605 128.805  0.00  0.00    +0.000 OA
ATOM     23  C   UNL     1      -5.290   5.638 130.194  0.00  0.00    +0.000 C 
ENDBRANCH  15  22
ENDBRANCH  13  16
ENDBRANCH  11  13
ENDBRANCH   1  11
BRANCH   7  24
ATOM     24  O   UNL     1      -8.448  -2.442 123.094  0.00  0.00    +0.000 OA
BRANCH  24  25
ATOM     25  C   UNL     1      -9.243  -3.270 123.924  0.00  0.00    +0.000 C 
ATOM     26  F   UNL     1     -10.199  -3.872 123.172  0.00  0.00    +0.000 F 
ATOM     27  F   UNL     1      -8.448  -4.258 124.402  0.00  0.00    +0.000 F 
ENDBRANCH  24  25
ENDBRANCH   7  24
TORSDOF 7
ENDMDL
MODEL 5
REMARK VINA RESULT:      -7.0      1.529      2.474
REMARK  Name = Pantoprazole
REMARK  9 active torsions:
REMARK  status: ('A' for Active; 'I' for Inactive)
REMARK    1  A    between atoms: C_1  and  O_2
REMARK    2  A    between atoms: O_2  and  C_3
REMARK    3  A    between atoms: C_4  and  O_5
REMARK    4  A    between atoms: O_5  and  C_6
REMARK    5  A    between atoms: C_7  and  C_8
REMARK    6  A    between atoms: C_8  and  S_9
REMARK    7  A    between atoms: S_9  and  C_11
REMARK    8  A    between atoms: C_17  and  O_18
REMARK    9  A    between atoms: O_18  and  C_19
REMARK                            x       y       z     vdW  Elec       q    Type
REMARK                         _______ _______ _______ _____ _____    ______ ____
ROOT
ATOM      1  C   UNL     1      -7.584   4.216 128.179  0.00  0.00    +0.000 A 
ATOM      2  N   UNL     1      -6.412   4.674 127.862  0.00  0.00    +0.000 NA
ATOM      3  C   UNL     1      -6.257   4.289 126.554  0.00  0.00    +0.000 A 
ATOM      4  C   UNL     1      -7.356   3.578 126.093  0.00  0.00    +0.000 A 
ATOM      5  N   UNL     1      -8.172   3.491 127.176  0.00  0.00    +0.000 N 
ATOM      6  C   UNL     1      -7.504   3.113 124.791  0.00  0.00    +0.000 A 
ATOM      7  C   UNL     1      -6.463   3.422 123.914  0.00  0.00    +0.000 A 
ATOM      8  C   UNL     1      -5.333   4.125 124.359  0.00  0.00    +0.000 A 
ATOM      9  C   UNL     1      -5.201   4.542 125.686  0.00  0.00    +0.000 A 
ATOM     10  H   UNL     1      -9.051   3.015 127.274  0.00  0.00    +0.000 HD
ENDROOT
BRANCH   1  11
ATOM     11  S   UNL     1      -8.336   4.198 129.687  0.00  0.00    +0.000 S 
ATOM     12  O   UNL     1      -9.705   3.629 129.447  0.00  0.00    +0.000 OA
BRANCH  11  13
ATOM     13  C   UNL     1      -8.459   5.901 130.293  0.00  0.00    +0.000 C 
BRANCH  13  16
ATOM     14  C   UNL     1     -11.822   7.762 129.674  0.00  0.00    +0.000 A 
ATOM     15  C   UNL     1     -10.558   7.222 129.434  0.00  0.00    +0.000 A 
ATOM     16  C   UNL     1      -9.910   6.435 130.438  0.00  0.00    +0.000 A 
ATOM     17  N   UNL     1     -10.539   6.106 131.601  0.00  0.00    +0.000 NA
ATOM     18  C   UNL     1     -11.788   6.593 131.782  0.00  0.00    +0.000 A 
ATOM     19  C   UNL     1     -12.438   7.429 130.882  0.00  0.00    +0.000 A 
BRANCH  14  21
ATOM     20  C   UNL     1     -13.619   8.303 128.125  0.00  0.00    +0.000 C 
ATOM     21  O   UNL     1     -12.518   8.689 128.939  0.00  0.00    +0.000 OA
ENDBRANCH  14  21
BRANCH  15  22
ATOM     22  O   UNL     1      -9.862   7.265 128.286  0.00  0.00    +0.000 OA
ATOM     23  C   UNL     1     -10.309   6.955 127.005  0.00  0.00    +0.000 C 
ENDBRANCH  15  22
ENDBRANCH  13  16
ENDBRANCH  11  13
ENDBRANCH   1  11
BRANCH   7  24
ATOM     24  O   UNL     1      -6.660   2.979 122.633  0.00  0.00    +0.000 OA
BRANCH  24  25
ATOM     25  C   UNL     1      -5.818   3.558 121.652  0.00  0.00    +0.000 C 
ATOM     26  F   UNL     1      -5.314   2.579 120.860  0.00  0.00    +0.000 F 
ATOM     27  F   UNL     1      -6.591   4.338 120.857  0.00  0.00    +0.000 F 
ENDBRANCH  24  25
ENDBRANCH   7  24
TORSDOF 7
ENDMDL
MODEL 6
REMARK VINA RESULT:      -7.0      4.913      5.715
REMARK  Name = Pantoprazole
REMARK  9 active torsions:
REMARK  status: ('A' for Active; 'I' for Inactive)
REMARK    1  A    between atoms: C_1  and  O_2
REMARK    2  A    between atoms: O_2  and  C_3
REMARK    3  A    between atoms: C_4  and  O_5
REMARK    4  A    between atoms: O_5  and  C_6
REMARK    5  A    between atoms: C_7  and  C_8
REMARK    6  A    between atoms: C_8  and  S_9
REMARK    7  A    between atoms: S_9  and  C_11
REMARK    8  A    between atoms: C_17  and  O_18
REMARK    9  A    between atoms: O_18  and  C_19
REMARK                            x       y       z     vdW  Elec       q    Type
REMARK                         _______ _______ _______ _____ _____    ______ ____
ROOT
ATOM      1  C   UNL     1      -9.439   2.913 129.920  0.00  0.00    +0.000 A 
ATOM      2  N   UNL     1      -8.974   2.796 128.714  0.00  0.00    +0.000 NA
ATOM      3  C   UNL     1      -8.289   1.608 128.744  0.00  0.00    +0.000 A 
ATOM      4  C   UNL     1      -8.342   1.015 129.999  0.00  0.00    +0.000 A 
ATOM      5  N   UNL     1      -9.036   1.905 130.756  0.00  0.00    +0.000 N 
ATOM      6  C   UNL     1      -7.788  -0.221 130.310  0.00  0.00    +0.000 A 
ATOM      7  C   UNL     1      -7.165  -0.891 129.255  0.00  0.00    +0.000 A 
ATOM      8  C   UNL     1      -7.084  -0.307 127.982  0.00  0.00    +0.000 A 
ATOM      9  C   UNL     1      -7.617   0.957 127.716  0.00  0.00    +0.000 A 
ATOM     10  H   UNL     1      -9.255   1.873 131.735  0.00  0.00    +0.000 HD
ENDROOT
BRANCH   1  11
ATOM     11  S   UNL     1     -10.243   4.219 130.617  0.00  0.00    +0.000 S 
ATOM     12  O   UNL     1     -11.650   4.151 130.094  0.00  0.00    +0.000 OA
BRANCH  11  13
ATOM     13  C   UNL     1      -9.442   5.750 130.073  0.00  0.00    +0.000 C 
BRANCH  13  16
ATOM     14  C   UNL     1     -12.096   7.984 128.304  0.00  0.00    +0.000 A 
ATOM     15  C   UNL     1     -11.361   7.377 129.324  0.00  0.00    +0.000 A 
ATOM     16  C   UNL     1     -10.235   6.553 129.006  0.00  0.00    +0.000 A 
ATOM     17  N   UNL     1      -9.790   6.419 127.725  0.00  0.00    +0.000 NA
ATOM     18  C   UNL     1     -10.485   7.068 126.763  0.00  0.00    +0.000 A 
ATOM     19  C   UNL     1     -11.632   7.815 126.998  0.00  0.00    +0.000 A 
BRANCH  14  21
ATOM     20  C   UNL     1     -13.388   9.957 128.901  0.00  0.00    +0.000 C 
ATOM     21  O   UNL     1     -13.301   8.636 128.381  0.00  0.00    +0.000 OA
ENDBRANCH  14  21
BRANCH  15  22
ATOM     22  O   UNL     1     -11.519   7.544 130.647  0.00  0.00    +0.000 OA
ATOM     23  C   UNL     1     -12.630   7.226 131.421  0.00  0.00    +0.000 C 
ENDBRANCH  15  22
ENDBRANCH  13  16
ENDBRANCH  11  13
ENDBRANCH   1  11
BRANCH   7  24
ATOM     24  O   UNL     1      -6.664  -2.120 129.591  0.00  0.00    +0.000 OA
BRANCH  24  25
ATOM     25  C   UNL     1      -7.555  -2.969 130.293  0.00  0.00    +0.000 C 
ATOM     26  F   UNL     1      -8.525  -3.399 129.448  0.00  0.00    +0.000 F 
ATOM     27  F   UNL     1      -6.859  -4.069 130.674  0.00  0.00    +0.000 F 
ENDBRANCH  24  25
ENDBRANCH   7  24
TORSDOF 7
ENDMDL
MODEL 7
REMARK VINA RESULT:      -6.9      4.780      7.493
REMARK  Name = Pantoprazole
REMARK  9 active torsions:
REMARK  status: ('A' for Active; 'I' for Inactive)
REMARK    1  A    between atoms: C_1  and  O_2
REMARK    2  A    between atoms: O_2  and  C_3
REMARK    3  A    between atoms: C_4  and  O_5
REMARK    4  A    between atoms: O_5  and  C_6
REMARK    5  A    between atoms: C_7  and  C_8
REMARK    6  A    between atoms: C_8  and  S_9
REMARK    7  A    between atoms: S_9  and  C_11
REMARK    8  A    between atoms: C_17  and  O_18
REMARK    9  A    between atoms: O_18  and  C_19
REMARK                            x       y       z     vdW  Elec       q    Type
REMARK                         _______ _______ _______ _____ _____    ______ ____
ROOT
ATOM      1  C   UNL     1      -8.959   5.922 132.342  0.00  0.00    +0.000 A 
ATOM      2  N   UNL     1     -10.226   6.040 132.597  0.00  0.00    +0.000 NA
ATOM      3  C   UNL     1     -10.723   6.672 131.486  0.00  0.00    +0.000 A 
ATOM      4  C   UNL     1      -9.725   6.945 130.559  0.00  0.00    +0.000 A 
ATOM      5  N   UNL     1      -8.588   6.508 131.160  0.00  0.00    +0.000 N 
ATOM      6  C   UNL     1      -9.942   7.526 129.315  0.00  0.00    +0.000 A 
ATOM      7  C   UNL     1     -11.272   7.820 129.006  0.00  0.00    +0.000 A 
ATOM      8  C   UNL     1     -12.297   7.570 129.931  0.00  0.00    +0.000 A 
ATOM      9  C   UNL     1     -12.035   7.021 131.189  0.00  0.00    +0.000 A 
ATOM     10  H   UNL     1      -7.637   6.562 130.840  0.00  0.00    +0.000 HD
ENDROOT
BRANCH   1  11
ATOM     11  S   UNL     1      -7.727   5.376 133.353  0.00  0.00    +0.000 S 
ATOM     12  O   UNL     1      -8.069   5.896 134.721  0.00  0.00    +0.000 OA
BRANCH  11  13
ATOM     13  C   UNL     1      -6.156   6.079 132.786  0.00  0.00    +0.000 C 
BRANCH  13  16
ATOM     14  C   UNL     1      -4.440   4.650 129.597  0.00  0.00    +0.000 A 
ATOM     15  C   UNL     1      -5.066   5.553 130.458  0.00  0.00    +0.000 A 
ATOM     16  C   UNL     1      -5.358   5.177 131.807  0.00  0.00    +0.000 A 
ATOM     17  N   UNL     1      -4.949   3.981 132.317  0.00  0.00    +0.000 NA
ATOM     18  C   UNL     1      -4.291   3.149 131.478  0.00  0.00    +0.000 A 
ATOM     19  C   UNL     1      -4.049   3.423 130.137  0.00  0.00    +0.000 A 
BRANCH  14  21
ATOM     20  C   UNL     1      -3.007   5.158 127.698  0.00  0.00    +0.000 C 
ATOM     21  O   UNL     1      -4.253   4.739 128.241  0.00  0.00    +0.000 OA
ENDBRANCH  14  21
BRANCH  15  22
ATOM     22  O   UNL     1      -5.367   6.838 130.206  0.00  0.00    +0.000 OA
ATOM     23  C   UNL     1      -4.487   7.899 130.016  0.00  0.00    +0.000 C 
ENDBRANCH  15  22
ENDBRANCH  13  16
ENDBRANCH  11  13
ENDBRANCH   1  11
BRANCH   7  24
ATOM     24  O   UNL     1     -11.450   8.358 127.759  0.00  0.00    +0.000 OA
BRANCH  24  25
ATOM     25  C   UNL     1     -11.257   7.463 126.677  0.00  0.00    +0.000 C 
ATOM     26  F   UNL     1     -12.449   6.922 126.324  0.00  0.00    +0.000 F 
ATOM     27  F   UNL     1     -10.832   8.190 125.614  0.00  0.00    +0.000 F 
ENDBRANCH  24  25
ENDBRANCH   7  24
TORSDOF 7
ENDMDL
MODEL 8
REMARK VINA RESULT:      -6.9      5.127      6.576
REMARK  Name = Pantoprazole
REMARK  9 active torsions:
REMARK  status: ('A' for Active; 'I' for Inactive)
REMARK    1  A    between atoms: C_1  and  O_2
REMARK    2  A    between atoms: O_2  and  C_3
REMARK    3  A    between atoms: C_4  and  O_5
REMARK    4  A    between atoms: O_5  and  C_6
REMARK    5  A    between atoms: C_7  and  C_8
REMARK    6  A    between atoms: C_8  and  S_9
REMARK    7  A    between atoms: S_9  and  C_11
REMARK    8  A    between atoms: C_17  and  O_18
REMARK    9  A    between atoms: O_18  and  C_19
REMARK                            x       y       z     vdW  Elec       q    Type
REMARK                         _______ _______ _______ _____ _____    ______ ____
ROOT
ATOM      1  C   UNL     1      -8.542  -0.933 124.175  0.00  0.00    +0.000 A 
ATOM      2  N   UNL     1      -9.534  -0.244 123.702  0.00  0.00    +0.000 NA
ATOM      3  C   UNL     1      -8.944   0.911 123.255  0.00  0.00    +0.000 A 
ATOM      4  C   UNL     1      -7.574   0.909 123.480  0.00  0.00    +0.000 A 
ATOM      5  N   UNL     1      -7.347  -0.263 124.129  0.00  0.00    +0.000 N 
ATOM      6  C   UNL     1      -6.708   1.920 123.080  0.00  0.00    +0.000 A 
ATOM      7  C   UNL     1      -7.293   2.983 122.389  0.00  0.00    +0.000 A 
ATOM      8  C   UNL     1      -8.677   3.018 122.163  0.00  0.00    +0.000 A 
ATOM      9  C   UNL     1      -9.523   2.001 122.615  0.00  0.00    +0.000 A 
ATOM     10  H   UNL     1      -6.491  -0.626 124.508  0.00  0.00    +0.000 HD
ENDROOT
BRANCH   1  11
ATOM     11  S   UNL     1      -8.579  -2.388 125.022  0.00  0.00    +0.000 S 
ATOM     12  O   UNL     1      -9.852  -2.358 125.819  0.00  0.00    +0.000 OA
BRANCH  11  13
ATOM     13  C   UNL     1      -7.145  -2.453 126.128  0.00  0.00    +0.000 C 
BRANCH  13  16
ATOM     14  C   UNL     1      -7.674  -0.765 129.597  0.00  0.00    +0.000 A 
ATOM     15  C   UNL     1      -7.482  -0.906 128.222  0.00  0.00    +0.000 A 
ATOM     16  C   UNL     1      -7.470  -2.207 127.626  0.00  0.00    +0.000 A 
ATOM     17  N   UNL     1      -7.744  -3.326 128.355  0.00  0.00    +0.000 NA
ATOM     18  C   UNL     1      -7.986  -3.154 129.674  0.00  0.00    +0.000 A 
ATOM     19  C   UNL     1      -7.932  -1.928 130.326  0.00  0.00    +0.000 A 
BRANCH  14  21
ATOM     20  C   UNL     1      -8.657   1.040 130.898  0.00  0.00    +0.000 C 
ATOM     21  O   UNL     1      -7.526   0.353 130.378  0.00  0.00    +0.000 OA
ENDBRANCH  14  21
BRANCH  15  22
ATOM     22  O   UNL     1      -7.393   0.077 127.310  0.00  0.00    +0.000 OA
ATOM     23  C   UNL     1      -8.241   1.169 127.148  0.00  0.00    +0.000 C 
ENDBRANCH  15  22
ENDBRANCH  13  16
ENDBRANCH  11  13
ENDBRANCH   1  11
BRANCH   7  24
ATOM     24  O   UNL     1      -6.404   3.941 121.980  0.00  0.00    +0.000 OA
BRANCH  24  25
ATOM     25  C   UNL     1      -5.898   3.782 120.666  0.00  0.00    +0.000 C 
ATOM     26  F   UNL     1      -5.783   4.999 120.079  0.00  0.00    +0.000 F 
ATOM     27  F   UNL     1      -4.643   3.281 120.768  0.00  0.00    +0.000 F 
ENDBRANCH  24  25
ENDBRANCH   7  24
TORSDOF 7
ENDMDL
MODEL 9
REMARK VINA RESULT:      -6.9      5.075      7.385
REMARK  Name = Pantoprazole
REMARK  9 active torsions:
REMARK  status: ('A' for Active; 'I' for Inactive)
REMARK    1  A    between atoms: C_1  and  O_2
REMARK    2  A    between atoms: O_2  and  C_3
REMARK    3  A    between atoms: C_4  and  O_5
REMARK    4  A    between atoms: O_5  and  C_6
REMARK    5  A    between atoms: C_7  and  C_8
REMARK    6  A    between atoms: C_8  and  S_9
REMARK    7  A    between atoms: S_9  and  C_11
REMARK    8  A    between atoms: C_17  and  O_18
REMARK    9  A    between atoms: O_18  and  C_19
REMARK                            x       y       z     vdW  Elec       q    Type
REMARK                         _______ _______ _______ _____ _____    ______ ____
ROOT
ATOM      1  C   UNL     1      -7.739   2.508 124.570  0.00  0.00    +0.000 A 
ATOM      2  N   UNL     1      -8.734   2.592 123.741  0.00  0.00    +0.000 NA
ATOM      3  C   UNL     1      -8.171   3.129 122.611  0.00  0.00    +0.000 A 
ATOM      4  C   UNL     1      -6.815   3.378 122.780  0.00  0.00    +0.000 A 
ATOM      5  N   UNL     1      -6.574   3.028 124.071  0.00  0.00    +0.000 N 
ATOM      6  C   UNL     1      -5.973   3.866 121.788  0.00  0.00    +0.000 A 
ATOM      7  C   UNL     1      -6.566   4.086 120.543  0.00  0.00    +0.000 A 
ATOM      8  C   UNL     1      -7.937   3.857 120.349  0.00  0.00    +0.000 A 
ATOM      9  C   UNL     1      -8.761   3.404 121.383  0.00  0.00    +0.000 A 
ATOM     10  H   UNL     1      -5.724   3.098 124.601  0.00  0.00    +0.000 HD
ENDROOT
BRANCH   1  11
ATOM     11  S   UNL     1      -7.759   2.080 126.199  0.00  0.00    +0.000 S 
ATOM     12  O   UNL     1      -7.356   3.320 126.946  0.00  0.00    +0.000 OA
BRANCH  11  13
ATOM     13  C   UNL     1      -6.546   0.761 126.466  0.00  0.00    +0.000 C 
BRANCH  13  16
ATOM     14  C   UNL     1      -7.825  -2.669 125.142  0.00  0.00    +0.000 A 
ATOM     15  C   UNL     1      -7.193  -1.425 125.166  0.00  0.00    +0.000 A 
ATOM     16  C   UNL     1      -7.123  -0.677 126.384  0.00  0.00    +0.000 A 
ATOM     17  N   UNL     1      -7.572  -1.194 127.563  0.00  0.00    +0.000 NA
ATOM     18  C   UNL     1      -8.124  -2.428 127.522  0.00  0.00    +0.000 A 
ATOM     19  C   UNL     1      -8.295  -3.168 126.358  0.00  0.00    +0.000 A 
BRANCH  14  21
ATOM     20  C   UNL     1      -9.494  -3.441 123.549  0.00  0.00    +0.000 C 
ATOM     21  O   UNL     1      -8.167  -3.441 124.061  0.00  0.00    +0.000 OA
ENDBRANCH  14  21
BRANCH  15  22
ATOM     22  O   UNL     1      -6.520  -0.837 124.163  0.00  0.00    +0.000 OA
ATOM     23  C   UNL     1      -6.970  -0.576 122.873  0.00  0.00    +0.000 C 
ENDBRANCH  15  22
ENDBRANCH  13  16
ENDBRANCH  11  13
ENDBRANCH   1  11
BRANCH   7  24
ATOM     24  O   UNL     1      -5.699   4.531 119.581  0.00  0.00    +0.000 OA
BRANCH  24  25
ATOM     25  C   UNL     1      -6.158   5.624 118.805  0.00  0.00    +0.000 C 
ATOM     26  F   UNL     1      -5.428   6.726 119.107  0.00  0.00    +0.000 F 
ATOM     27  F   UNL     1      -5.908   5.338 117.504  0.00  0.00    +0.000 F 
ENDBRANCH  24  25
ENDBRANCH   7  24
TORSDOF 7
ENDMDL
