MODEL 1
REMARK VINA RESULT:      -5.2      0.000      0.000
REMARK  Name = Panthenol
REMARK  11 active torsions:
REMARK  status: ('A' for Active; 'I' for Inactive)
REMARK    1  A    between atoms: C_1  and  C_2
REMARK    2  A    between atoms: C_2  and  C_3
REMARK    3  A    between atoms: C_2  and  C_4
REMARK    4  A    between atoms: C_2  and  C_6
REMARK    5  A    between atoms: C_4  and  O_5
REMARK    6  A    between atoms: C_6  and  O_7
REMARK    7  A    between atoms: C_6  and  C_8
REMARK    8  A    between atoms: N_10  and  C_11
REMARK    9  A    between atoms: C_11  and  C_12
REMARK   10  A    between atoms: C_12  and  C_13
REMARK   11  A    between atoms: C_13  and  O_14
REMARK                            x       y       z     vdW  Elec       q    Type
REMARK                         _______ _______ _______ _____ _____    ______ ____
ROOT
ATOM      1  C   UNL     1     -11.667   6.784 129.406  0.00  0.00    +0.000 C 
ENDROOT
BRANCH   1   2
ATOM      2  C   UNL     1     -10.159   6.477 129.599  0.00  0.00    +0.000 C 
ATOM      3  O   UNL     1      -9.473   5.878 128.767  0.00  0.00    +0.000 OA
ATOM      4  N   UNL     1      -9.589   6.918 130.767  0.00  0.00    +0.000 N 
ATOM      5  H   UNL     1     -10.170   7.344 131.483  0.00  0.00    +0.000 HD
BRANCH   4   6
ATOM      6  C   UNL     1      -8.192   6.612 130.995  0.00  0.00    +0.000 C 
BRANCH   6   7
ATOM      7  C   UNL     1      -7.990   5.496 131.995  0.00  0.00    +0.000 C 
BRANCH   7   8
ATOM      8  C   UNL     1      -9.255   5.268 132.809  0.00  0.00    +0.000 C 
BRANCH   8   9
ATOM      9  O   UNL     1      -9.501   6.398 133.634  0.00  0.00    +0.000 OA
ATOM     10  H   UNL     1      -9.984   7.053 133.102  0.00  0.00    +0.000 HD
ENDBRANCH   8   9
ENDBRANCH   7   8
ENDBRANCH   6   7
ENDBRANCH   4   6
ENDBRANCH   1   2
BRANCH   1  12
ATOM     11  C   UNL     1     -10.601   8.614 127.980  0.00  0.00    +0.000 C 
ATOM     12  C   UNL     1     -11.917   7.874 128.313  0.00  0.00    +0.000 C 
ATOM     13  C   UNL     1     -12.920   8.938 128.817  0.00  0.00    +0.000 C 
BRANCH  12  14
ATOM     14  C   UNL     1     -12.423   7.196 127.011  0.00  0.00    +0.000 C 
BRANCH  14  15
ATOM     15  O   UNL     1     -11.376   6.505 126.339  0.00  0.00    +0.000 OA
ATOM     16  H   UNL     1     -11.679   6.346 125.429  0.00  0.00    +0.000 HD
ENDBRANCH  14  15
ENDBRANCH  12  14
ENDBRANCH   1  12
BRANCH   1  17
ATOM     17  O   UNL     1     -12.382   5.577 129.121  0.00  0.00    +0.000 OA
ATOM     18  H   UNL     1     -13.175   5.562 129.684  0.00  0.00    +0.000 HD
ENDBRANCH   1  17
TORSDOF 9
ENDMDL
MODEL 2
REMARK VINA RESULT:      -5.2      1.661      4.831
REMARK  Name = Panthenol
REMARK  11 active torsions:
REMARK  status: ('A' for Active; 'I' for Inactive)
REMARK    1  A    between atoms: C_1  and  C_2
REMARK    2  A    between atoms: C_2  and  C_3
REMARK    3  A    between atoms: C_2  and  C_4
REMARK    4  A    between atoms: C_2  and  C_6
REMARK    5  A    between atoms: C_4  and  O_5
REMARK    6  A    between atoms: C_6  and  O_7
REMARK    7  A    between atoms: C_6  and  C_8
REMARK    8  A    between atoms: N_10  and  C_11
REMARK    9  A    between atoms: C_11  and  C_12
REMARK   10  A    between atoms: C_12  and  C_13
REMARK   11  A    between atoms: C_13  and  O_14
REMARK                            x       y       z     vdW  Elec       q    Type
REMARK                         _______ _______ _______ _____ _____    ______ ____
ROOT
ATOM      1  C   UNL     1     -10.807   5.699 131.263  0.00  0.00    +0.000 C 
ENDROOT
BRANCH   1   2
ATOM      2  C   UNL     1     -11.958   6.485 130.583  0.00  0.00    +0.000 C 
ATOM      3  O   UNL     1     -12.612   7.364 131.150  0.00  0.00    +0.000 OA
ATOM      4  N   UNL     1     -12.229   6.165 129.276  0.00  0.00    +0.000 N 
ATOM      5  H   UNL     1     -11.742   5.392 128.834  0.00  0.00    +0.000 HD
BRANCH   4   6
ATOM      6  C   UNL     1     -13.325   6.853 128.625  0.00  0.00    +0.000 C 
BRANCH   6   7
ATOM      7  C   UNL     1     -13.049   7.154 127.169  0.00  0.00    +0.000 C 
BRANCH   7   8
ATOM      8  C   UNL     1     -11.592   7.543 126.969  0.00  0.00    +0.000 C 
BRANCH   8   9
ATOM      9  O   UNL     1     -10.891   6.466 126.363  0.00  0.00    +0.000 OA
ATOM     10  H   UNL     1      -9.981   6.477 126.706  0.00  0.00    +0.000 HD
ENDBRANCH   8   9
ENDBRANCH   7   8
ENDBRANCH   6   7
ENDBRANCH   4   6
ENDBRANCH   1   2
BRANCH   1  12
ATOM     11  C   UNL     1      -8.384   6.215 131.886  0.00  0.00    +0.000 C 
ATOM     12  C   UNL     1      -9.401   6.120 130.724  0.00  0.00    +0.000 C 
ATOM     13  C   UNL     1      -9.462   7.516 130.060  0.00  0.00    +0.000 C 
BRANCH  12  14
ATOM     14  C   UNL     1      -8.885   5.046 129.729  0.00  0.00    +0.000 C 
BRANCH  14  15
ATOM     15  O   UNL     1      -9.164   5.403 128.380  0.00  0.00    +0.000 OA
ATOM     16  H   UNL     1      -8.746   6.268 128.223  0.00  0.00    +0.000 HD
ENDBRANCH  14  15
ENDBRANCH  12  14
ENDBRANCH   1  12
BRANCH   1  17
ATOM     17  O   UNL     1     -10.891   5.838 132.685  0.00  0.00    +0.000 OA
ATOM     18  H   UNL     1     -11.439   5.108 133.022  0.00  0.00    +0.000 HD
ENDBRANCH   1  17
TORSDOF 9
ENDMDL
MODEL 3
REMARK VINA RESULT:      -5.1      1.410      1.720
REMARK  Name = Panthenol
REMARK  11 active torsions:
REMARK  status: ('A' for Active; 'I' for Inactive)
REMARK    1  A    between atoms: C_1  and  C_2
REMARK    2  A    between atoms: C_2  and  C_3
REMARK    3  A    between atoms: C_2  and  C_4
REMARK    4  A    between atoms: C_2  and  C_6
REMARK    5  A    between atoms: C_4  and  O_5
REMARK    6  A    between atoms: C_6  and  O_7
REMARK    7  A    between atoms: C_6  and  C_8
REMARK    8  A    between atoms: N_10  and  C_11
REMARK    9  A    between atoms: C_11  and  C_12
REMARK   10  A    between atoms: C_12  and  C_13
REMARK   11  A    between atoms: C_13  and  O_14
REMARK                            x       y       z     vdW  Elec       q    Type
REMARK                         _______ _______ _______ _____ _____    ______ ____
ROOT
ATOM      1  C   UNL     1     -12.209   7.595 130.093  0.00  0.00    +0.000 C 
ENDROOT
BRANCH   1   2
ATOM      2  C   UNL     1     -11.038   6.577 130.099  0.00  0.00    +0.000 C 
ATOM      3  O   UNL     1     -11.167   5.388 129.798  0.00  0.00    +0.000 OA
ATOM      4  N   UNL     1      -9.806   7.063 130.457  0.00  0.00    +0.000 N 
ATOM      5  H   UNL     1      -9.716   8.023 130.777  0.00  0.00    +0.000 HD
BRANCH   4   6
ATOM      6  C   UNL     1      -8.701   6.129 130.513  0.00  0.00    +0.000 C 
BRANCH   6   7
ATOM      7  C   UNL     1      -7.776   6.379 131.683  0.00  0.00    +0.000 C 
BRANCH   7   8
ATOM      8  C   UNL     1      -8.315   5.718 132.943  0.00  0.00    +0.000 C 
BRANCH   8   9
ATOM      9  O   UNL     1      -9.550   6.319 133.306  0.00  0.00    +0.000 OA
ATOM     10  H   UNL     1     -10.241   5.638 133.239  0.00  0.00    +0.000 HD
ENDBRANCH   8   9
ENDBRANCH   7   8
ENDBRANCH   6   7
ENDBRANCH   4   6
ENDBRANCH   1   2
BRANCH   1  12
ATOM     11  C   UNL     1     -13.299   9.364 128.608  0.00  0.00    +0.000 C 
ATOM     12  C   UNL     1     -12.682   7.946 128.645  0.00  0.00    +0.000 C 
ATOM     13  C   UNL     1     -13.779   6.962 128.172  0.00  0.00    +0.000 C 
BRANCH  12  14
ATOM     14  C   UNL     1     -11.463   7.933 127.684  0.00  0.00    +0.000 C 
BRANCH  14  15
ATOM     15  O   UNL     1     -10.567   9.004 127.959  0.00  0.00    +0.000 OA
ATOM     16  H   UNL     1     -10.936   9.799 127.535  0.00  0.00    +0.000 HD
ENDBRANCH  14  15
ENDBRANCH  12  14
ENDBRANCH   1  12
BRANCH   1  17
ATOM     17  O   UNL     1     -13.287   7.109 130.898  0.00  0.00    +0.000 OA
ATOM     18  H   UNL     1     -13.871   6.581 130.325  0.00  0.00    +0.000 HD
ENDBRANCH   1  17
TORSDOF 9
ENDMDL
MODEL 4
REMARK VINA RESULT:      -5.1      1.669      2.232
REMARK  Name = Panthenol
REMARK  11 active torsions:
REMARK  status: ('A' for Active; 'I' for Inactive)
REMARK    1  A    between atoms: C_1  and  C_2
REMARK    2  A    between atoms: C_2  and  C_3
REMARK    3  A    between atoms: C_2  and  C_4
REMARK    4  A    between atoms: C_2  and  C_6
REMARK    5  A    between atoms: C_4  and  O_5
REMARK    6  A    between atoms: C_6  and  O_7
REMARK    7  A    between atoms: C_6  and  C_8
REMARK    8  A    between atoms: N_10  and  C_11
REMARK    9  A    between atoms: C_11  and  C_12
REMARK   10  A    between atoms: C_12  and  C_13
REMARK   11  A    between atoms: C_13  and  O_14
REMARK                            x       y       z     vdW  Elec       q    Type
REMARK                         _______ _______ _______ _____ _____    ______ ____
ROOT
ATOM      1  C   UNL     1     -12.127   7.705 130.150  0.00  0.00    +0.000 C 
ENDROOT
BRANCH   1   2
ATOM      2  C   UNL     1     -10.949   6.698 130.095  0.00  0.00    +0.000 C 
ATOM      3  O   UNL     1     -11.060   5.541 129.682  0.00  0.00    +0.000 OA
ATOM      4  N   UNL     1      -9.731   7.156 130.531  0.00  0.00    +0.000 N 
ATOM      5  H   UNL     1      -9.657   8.082 130.941  0.00  0.00    +0.000 HD
BRANCH   4   6
ATOM      6  C   UNL     1      -8.620   6.227 130.531  0.00  0.00    +0.000 C 
BRANCH   6   7
ATOM      7  C   UNL     1      -7.920   6.145 131.869  0.00  0.00    +0.000 C 
BRANCH   7   8
ATOM      8  C   UNL     1      -8.807   5.459 132.898  0.00  0.00    +0.000 C 
BRANCH   8   9
ATOM      9  O   UNL     1      -9.759   6.386 133.399  0.00  0.00    +0.000 OA
ATOM     10  H   UNL     1      -9.738   6.335 134.370  0.00  0.00    +0.000 HD
ENDBRANCH   8   9
ENDBRANCH   7   8
ENDBRANCH   6   7
ENDBRANCH   4   6
ENDBRANCH   1   2
BRANCH   1  12
ATOM     11  C   UNL     1     -13.583   7.177 128.120  0.00  0.00    +0.000 C 
ATOM     12  C   UNL     1     -12.572   8.177 128.728  0.00  0.00    +0.000 C 
ATOM     13  C   UNL     1     -11.361   8.239 127.766  0.00  0.00    +0.000 C 
BRANCH  12  14
ATOM     14  C   UNL     1     -13.276   9.556 128.835  0.00  0.00    +0.000 C 
BRANCH  14  15
ATOM     15  O   UNL     1     -13.174  10.096 130.148  0.00  0.00    +0.000 OA
ATOM     16  H   UNL     1     -13.694   9.518 130.734  0.00  0.00    +0.000 HD
ENDBRANCH  14  15
ENDBRANCH  12  14
ENDBRANCH   1  12
BRANCH   1  17
ATOM     17  O   UNL     1     -13.219   7.145 130.886  0.00  0.00    +0.000 OA
ATOM     18  H   UNL     1     -13.739   7.882 131.252  0.00  0.00    +0.000 HD
ENDBRANCH   1  17
TORSDOF 9
ENDMDL
MODEL 5
REMARK VINA RESULT:      -5.0      1.606      2.370
REMARK  Name = Panthenol
REMARK  11 active torsions:
REMARK  status: ('A' for Active; 'I' for Inactive)
REMARK    1  A    between atoms: C_1  and  C_2
REMARK    2  A    between atoms: C_2  and  C_3
REMARK    3  A    between atoms: C_2  and  C_4
REMARK    4  A    between atoms: C_2  and  C_6
REMARK    5  A    between atoms: C_4  and  O_5
REMARK    6  A    between atoms: C_6  and  O_7
REMARK    7  A    between atoms: C_6  and  C_8
REMARK    8  A    between atoms: N_10  and  C_11
REMARK    9  A    between atoms: C_11  and  C_12
REMARK   10  A    between atoms: C_12  and  C_13
REMARK   11  A    between atoms: C_13  and  O_14
REMARK                            x       y       z     vdW  Elec       q    Type
REMARK                         _______ _______ _______ _____ _____    ______ ____
ROOT
ATOM      1  C   UNL     1     -11.131   7.619 128.103  0.00  0.00    +0.000 C 
ENDROOT
BRANCH   1   2
ATOM      2  C   UNL     1     -10.064   6.854 128.929  0.00  0.00    +0.000 C 
ATOM      3  O   UNL     1      -9.597   5.762 128.595  0.00  0.00    +0.000 OA
ATOM      4  N   UNL     1      -9.635   7.458 130.084  0.00  0.00    +0.000 N 
ATOM      5  H   UNL     1     -10.075   8.319 130.397  0.00  0.00    +0.000 HD
BRANCH   4   6
ATOM      6  C   UNL     1      -8.670   6.751 130.899  0.00  0.00    +0.000 C 
BRANCH   6   7
ATOM      7  C   UNL     1      -9.281   6.140 132.140  0.00  0.00    +0.000 C 
BRANCH   7   8
ATOM      8  C   UNL     1      -9.459   4.638 131.967  0.00  0.00    +0.000 C 
BRANCH   8   9
ATOM      9  O   UNL     1     -10.653   4.381 131.241  0.00  0.00    +0.000 OA
ATOM     10  H   UNL     1     -10.414   3.853 130.460  0.00  0.00    +0.000 HD
ENDBRANCH   8   9
ENDBRANCH   7   8
ENDBRANCH   6   7
ENDBRANCH   4   6
ENDBRANCH   1   2
BRANCH   1  12
ATOM     11  C   UNL     1     -13.663   7.653 127.776  0.00  0.00    +0.000 C 
ATOM     12  C   UNL     1     -12.521   7.657 128.818  0.00  0.00    +0.000 C 
ATOM     13  C   UNL     1     -12.674   8.950 129.654  0.00  0.00    +0.000 C 
BRANCH  12  14
ATOM     14  C   UNL     1     -12.683   6.392 129.703  0.00  0.00    +0.000 C 
BRANCH  14  15
ATOM     15  O   UNL     1     -12.638   6.713 131.089  0.00  0.00    +0.000 OA
ATOM     16  H   UNL     1     -12.228   7.592 131.164  0.00  0.00    +0.000 HD
ENDBRANCH  14  15
ENDBRANCH  12  14
ENDBRANCH   1  12
BRANCH   1  17
ATOM     17  O   UNL     1     -10.661   8.934 127.792  0.00  0.00    +0.000 OA
ATOM     18  H   UNL     1     -11.433   9.527 127.771  0.00  0.00    +0.000 HD
ENDBRANCH   1  17
TORSDOF 9
ENDMDL
MODEL 6
REMARK VINA RESULT:      -5.0      1.115      5.250
REMARK  Name = Panthenol
REMARK  11 active torsions:
REMARK  status: ('A' for Active; 'I' for Inactive)
REMARK    1  A    between atoms: C_1  and  C_2
REMARK    2  A    between atoms: C_2  and  C_3
REMARK    3  A    between atoms: C_2  and  C_4
REMARK    4  A    between atoms: C_2  and  C_6
REMARK    5  A    between atoms: C_4  and  O_5
REMARK    6  A    between atoms: C_6  and  O_7
REMARK    7  A    between atoms: C_6  and  C_8
REMARK    8  A    between atoms: N_10  and  C_11
REMARK    9  A    between atoms: C_11  and  C_12
REMARK   10  A    between atoms: C_12  and  C_13
REMARK   11  A    between atoms: C_13  and  O_14
REMARK                            x       y       z     vdW  Elec       q    Type
REMARK                         _______ _______ _______ _____ _____    ______ ____
ROOT
ATOM      1  C   UNL     1      -9.943   4.998 130.484  0.00  0.00    +0.000 C 
ENDROOT
BRANCH   1   2
ATOM      2  C   UNL     1      -9.949   6.006 129.306  0.00  0.00    +0.000 C 
ATOM      3  O   UNL     1      -9.295   5.851 128.272  0.00  0.00    +0.000 OA
ATOM      4  N   UNL     1     -10.743   7.116 129.454  0.00  0.00    +0.000 N 
ATOM      5  H   UNL     1     -11.222   7.280 130.335  0.00  0.00    +0.000 HD
BRANCH   4   6
ATOM      6  C   UNL     1     -10.740   8.097 128.389  0.00  0.00    +0.000 C 
BRANCH   6   7
ATOM      7  C   UNL     1     -12.116   8.348 127.815  0.00  0.00    +0.000 C 
BRANCH   7   8
ATOM      8  C   UNL     1     -12.555   7.180 126.942  0.00  0.00    +0.000 C 
BRANCH   8   9
ATOM      9  O   UNL     1     -11.426   6.632 126.277  0.00  0.00    +0.000 OA
ATOM     10  H   UNL     1     -11.224   5.778 126.694  0.00  0.00    +0.000 HD
ENDBRANCH   8   9
ENDBRANCH   7   8
ENDBRANCH   6   7
ENDBRANCH   4   6
ENDBRANCH   1   2
BRANCH   1  12
ATOM     11  C   UNL     1      -8.138   6.639 131.238  0.00  0.00    +0.000 C 
ATOM     12  C   UNL     1      -8.749   5.237 131.464  0.00  0.00    +0.000 C 
ATOM     13  C   UNL     1      -7.621   4.206 131.219  0.00  0.00    +0.000 C 
BRANCH  12  14
ATOM     14  C   UNL     1      -9.259   5.174 132.929  0.00  0.00    +0.000 C 
BRANCH  14  15
ATOM     15  O   UNL     1      -9.858   6.401 133.329  0.00  0.00    +0.000 OA
ATOM     16  H   UNL     1     -10.584   6.580 132.707  0.00  0.00    +0.000 HD
ENDBRANCH  14  15
ENDBRANCH  12  14
ENDBRANCH   1  12
BRANCH   1  17
ATOM     17  O   UNL     1     -11.200   5.030 131.166  0.00  0.00    +0.000 OA
ATOM     18  H   UNL     1     -11.091   4.563 132.013  0.00  0.00    +0.000 HD
ENDBRANCH   1  17
TORSDOF 9
ENDMDL
MODEL 7
REMARK VINA RESULT:      -4.9      1.739      2.570
REMARK  Name = Panthenol
REMARK  11 active torsions:
REMARK  status: ('A' for Active; 'I' for Inactive)
REMARK    1  A    between atoms: C_1  and  C_2
REMARK    2  A    between atoms: C_2  and  C_3
REMARK    3  A    between atoms: C_2  and  C_4
REMARK    4  A    between atoms: C_2  and  C_6
REMARK    5  A    between atoms: C_4  and  O_5
REMARK    6  A    between atoms: C_6  and  O_7
REMARK    7  A    between atoms: C_6  and  C_8
REMARK    8  A    between atoms: N_10  and  C_11
REMARK    9  A    between atoms: C_11  and  C_12
REMARK   10  A    between atoms: C_12  and  C_13
REMARK   11  A    between atoms: C_13  and  O_14
REMARK                            x       y       z     vdW  Elec       q    Type
REMARK                         _______ _______ _______ _____ _____    ______ ____
ROOT
ATOM      1  C   UNL     1     -12.100   7.373 130.371  0.00  0.00    +0.000 C 
ENDROOT
BRANCH   1   2
ATOM      2  C   UNL     1     -11.246   6.080 130.302  0.00  0.00    +0.000 C 
ATOM      3  O   UNL     1     -11.589   5.068 129.684  0.00  0.00    +0.000 OA
ATOM      4  N   UNL     1     -10.048   6.101 130.970  0.00  0.00    +0.000 N 
ATOM      5  H   UNL     1      -9.801   6.905 131.540  0.00  0.00    +0.000 HD
BRANCH   4   6
ATOM      6  C   UNL     1      -9.246   4.895 130.959  0.00  0.00    +0.000 C 
BRANCH   6   7
ATOM      7  C   UNL     1      -7.959   5.050 130.181  0.00  0.00    +0.000 C 
BRANCH   7   8
ATOM      8  C   UNL     1      -8.095   4.443 128.792  0.00  0.00    +0.000 C 
BRANCH   8   9
ATOM      9  O   UNL     1      -8.922   5.272 127.989  0.00  0.00    +0.000 OA
ATOM     10  H   UNL     1      -8.758   6.194 128.249  0.00  0.00    +0.000 HD
ENDBRANCH   8   9
ENDBRANCH   7   8
ENDBRANCH   6   7
ENDBRANCH   4   6
ENDBRANCH   1   2
BRANCH   1  12
ATOM     11  C   UNL     1     -12.947   9.380 129.038  0.00  0.00    +0.000 C 
ATOM     12  C   UNL     1     -12.484   7.907 128.953  0.00  0.00    +0.000 C 
ATOM     13  C   UNL     1     -13.661   7.095 128.360  0.00  0.00    +0.000 C 
BRANCH  12  14
ATOM     14  C   UNL     1     -11.241   7.853 128.025  0.00  0.00    +0.000 C 
BRANCH  14  15
ATOM     15  O   UNL     1     -11.348   6.809 127.064  0.00  0.00    +0.000 OA
ATOM     16  H   UNL     1     -11.666   6.020 127.536  0.00  0.00    +0.000 HD
ENDBRANCH  14  15
ENDBRANCH  12  14
ENDBRANCH   1  12
BRANCH   1  17
ATOM     17  O   UNL     1     -13.257   7.155 131.185  0.00  0.00    +0.000 OA
ATOM     18  H   UNL     1     -13.653   6.308 130.916  0.00  0.00    +0.000 HD
ENDBRANCH   1  17
TORSDOF 9
ENDMDL
MODEL 8
REMARK VINA RESULT:      -4.9      1.912      2.082
REMARK  Name = Panthenol
REMARK  11 active torsions:
REMARK  status: ('A' for Active; 'I' for Inactive)
REMARK    1  A    between atoms: C_1  and  C_2
REMARK    2  A    between atoms: C_2  and  C_3
REMARK    3  A    between atoms: C_2  and  C_4
REMARK    4  A    between atoms: C_2  and  C_6
REMARK    5  A    between atoms: C_4  and  O_5
REMARK    6  A    between atoms: C_6  and  O_7
REMARK    7  A    between atoms: C_6  and  C_8
REMARK    8  A    between atoms: N_10  and  C_11
REMARK    9  A    between atoms: C_11  and  C_12
REMARK   10  A    between atoms: C_12  and  C_13
REMARK   11  A    between atoms: C_13  and  O_14
REMARK                            x       y       z     vdW  Elec       q    Type
REMARK                         _______ _______ _______ _____ _____    ______ ____
ROOT
ATOM      1  C   UNL     1     -11.563   7.043 130.519  0.00  0.00    +0.000 C 
ENDROOT
BRANCH   1   2
ATOM      2  C   UNL     1     -10.869   5.713 130.125  0.00  0.00    +0.000 C 
ATOM      3  O   UNL     1     -10.114   5.599 129.156  0.00  0.00    +0.000 OA
ATOM      4  N   UNL     1     -11.127   4.627 130.924  0.00  0.00    +0.000 N 
ATOM      5  H   UNL     1     -11.806   4.703 131.675  0.00  0.00    +0.000 HD
BRANCH   4   6
ATOM      6  C   UNL     1     -10.526   3.361 130.559  0.00  0.00    +0.000 C 
BRANCH   6   7
ATOM      7  C   UNL     1      -9.880   2.656 131.730  0.00  0.00    +0.000 C 
BRANCH   7   8
ATOM      8  C   UNL     1      -9.196   3.658 132.649  0.00  0.00    +0.000 C 
BRANCH   8   9
ATOM      9  O   UNL     1     -10.011   3.893 133.788  0.00  0.00    +0.000 OA
ATOM     10  H   UNL     1     -10.939   3.819 133.507  0.00  0.00    +0.000 HD
ENDBRANCH   8   9
ENDBRANCH   7   8
ENDBRANCH   6   7
ENDBRANCH   4   6
ENDBRANCH   1   2
BRANCH   1  12
ATOM     11  C   UNL     1     -10.853   8.339 128.437  0.00  0.00    +0.000 C 
ATOM     12  C   UNL     1     -12.057   7.847 129.273  0.00  0.00    +0.000 C 
ATOM     13  C   UNL     1     -12.850   9.103 129.708  0.00  0.00    +0.000 C 
BRANCH  12  14
ATOM     14  C   UNL     1     -12.918   6.924 128.369  0.00  0.00    +0.000 C 
BRANCH  14  15
ATOM     15  O   UNL     1     -12.262   6.636 127.139  0.00  0.00    +0.000 OA
ATOM     16  H   UNL     1     -12.715   5.869 126.748  0.00  0.00    +0.000 HD
ENDBRANCH  14  15
ENDBRANCH  12  14
ENDBRANCH   1  12
BRANCH   1  17
ATOM     17  O   UNL     1     -12.628   6.787 131.440  0.00  0.00    +0.000 OA
ATOM     18  H   UNL     1     -12.379   7.174 132.297  0.00  0.00    +0.000 HD
ENDBRANCH   1  17
TORSDOF 9
ENDMDL
MODEL 9
REMARK VINA RESULT:      -4.8      1.450      5.237
REMARK  Name = Panthenol
REMARK  11 active torsions:
REMARK  status: ('A' for Active; 'I' for Inactive)
REMARK    1  A    between atoms: C_1  and  C_2
REMARK    2  A    between atoms: C_2  and  C_3
REMARK    3  A    between atoms: C_2  and  C_4
REMARK    4  A    between atoms: C_2  and  C_6
REMARK    5  A    between atoms: C_4  and  O_5
REMARK    6  A    between atoms: C_6  and  O_7
REMARK    7  A    between atoms: C_6  and  C_8
REMARK    8  A    between atoms: N_10  and  C_11
REMARK    9  A    between atoms: C_11  and  C_12
REMARK   10  A    between atoms: C_12  and  C_13
REMARK   11  A    between atoms: C_13  and  O_14
REMARK                            x       y       z     vdW  Elec       q    Type
REMARK                         _______ _______ _______ _____ _____    ______ ____
ROOT
ATOM      1  C   UNL     1     -10.764   5.657 131.612  0.00  0.00    +0.000 C 
ENDROOT
BRANCH   1   2
ATOM      2  C   UNL     1     -11.402   6.145 130.285  0.00  0.00    +0.000 C 
ATOM      3  O   UNL     1     -11.998   5.402 129.501  0.00  0.00    +0.000 OA
ATOM      4  N   UNL     1     -11.284   7.483 130.005  0.00  0.00    +0.000 N 
ATOM      5  H   UNL     1     -10.729   8.079 130.612  0.00  0.00    +0.000 HD
BRANCH   4   6
ATOM      6  C   UNL     1     -11.834   7.963 128.754  0.00  0.00    +0.000 C 
BRANCH   6   7
ATOM      7  C   UNL     1     -10.769   8.326 127.743  0.00  0.00    +0.000 C 
BRANCH   7   8
ATOM      8  C   UNL     1     -10.528   7.172 126.780  0.00  0.00    +0.000 C 
BRANCH   8   9
ATOM      9  O   UNL     1     -11.772   6.703 126.278  0.00  0.00    +0.000 OA
ATOM     10  H   UNL     1     -11.712   6.688 125.308  0.00  0.00    +0.000 HD
ENDBRANCH   8   9
ENDBRANCH   7   8
ENDBRANCH   6   7
ENDBRANCH   4   6
ENDBRANCH   1   2
BRANCH   1  12
ATOM     11  C   UNL     1      -8.358   6.512 131.554  0.00  0.00    +0.000 C 
ATOM     12  C   UNL     1      -9.261   5.262 131.438  0.00  0.00    +0.000 C 
ATOM     13  C   UNL     1      -9.012   4.650 130.039  0.00  0.00    +0.000 C 
BRANCH  12  14
ATOM     14  C   UNL     1      -8.851   4.275 132.564  0.00  0.00    +0.000 C 
BRANCH  14  15
ATOM     15  O   UNL     1      -9.812   4.249 133.615  0.00  0.00    +0.000 OA
ATOM     16  H   UNL     1      -9.602   4.990 134.209  0.00  0.00    +0.000 HD
ENDBRANCH  14  15
ENDBRANCH  12  14
ENDBRANCH   1  12
BRANCH   1  17
ATOM     17  O   UNL     1     -10.935   6.645 132.632  0.00  0.00    +0.000 OA
ATOM     18  H   UNL     1     -11.889   6.819 132.719  0.00  0.00    +0.000 HD
ENDBRANCH   1  17
TORSDOF 9
ENDMDL
