MODEL 1
REMARK VINA RESULT:      -7.6      0.000      0.000
REMARK  Name = Papaverine
REMARK  10 active torsions:
REMARK  status: ('A' for Active; 'I' for Inactive)
REMARK    1  A    between atoms: C_1  and  O_2
REMARK    2  A    between atoms: O_2  and  C_3
REMARK    3  A    between atoms: C_4  and  O_5
REMARK    4  A    between atoms: O_5  and  C_6
REMARK    5  A    between atoms: C_8  and  C_9
REMARK    6  A    between atoms: C_9  and  C_10
REMARK    7  A    between atoms: C_16  and  O_17
REMARK    8  A    between atoms: O_17  and  C_18
REMARK    9  A    between atoms: C_19  and  O_20
REMARK   10  A    between atoms: O_20  and  C_21
REMARK                            x       y       z     vdW  Elec       q    Type
REMARK                         _______ _______ _______ _____ _____    ______ ____
ROOT
ATOM      1  C   UNL     1      -8.569   3.815 133.152  0.00  0.00    +0.000 A 
ATOM      2  N   UNL     1      -9.642   3.341 132.572  0.00  0.00    +0.000 NA
ATOM      3  C   UNL     1      -9.328   2.708 131.517  0.00  0.00    +0.000 A 
ATOM      4  C   UNL     1      -9.482   1.454 131.883  0.00  0.00    +0.000 A 
ATOM      5  C   UNL     1      -8.322   1.050 132.310  0.00  0.00    +0.000 A 
ATOM      6  C   UNL     1      -8.176  -0.497 131.850  0.00  0.00    +0.000 A 
ATOM      7  C   UNL     1      -7.202  -1.474 132.057  0.00  0.00    +0.000 A 
ATOM      8  C   UNL     1      -6.188  -0.837 132.716  0.00  0.00    +0.000 A 
ATOM      9  C   UNL     1      -6.439   0.808 133.209  0.00  0.00    +0.000 A 
ATOM     10  C   UNL     1      -7.635   2.112 133.049  0.00  0.00    +0.000 A 
ENDROOT
BRANCH   7  11
ATOM     11  O   UNL     1      -7.390  -2.768 131.591  0.00  0.00    +0.000 OA
ATOM     12  C   UNL     1      -7.702  -3.138 130.210  0.00  0.00    +0.000 C 
ENDBRANCH   7  11
BRANCH   8  13
ATOM     13  O   UNL     1      -5.141  -1.756 132.748  0.00  0.00    +0.000 OA
ATOM     14  C   UNL     1      -3.794  -1.832 132.317  0.00  0.00    +0.000 C 
ENDBRANCH   8  13
BRANCH   1  15
ATOM     15  C   UNL     1      -9.738   5.334 132.867  0.00  0.00    +0.000 C 
BRANCH  15  19
ATOM     16  C   UNL     1     -12.333   8.017 129.672  0.00  0.00    +0.000 A 
ATOM     17  C   UNL     1     -11.015   7.874 129.259  0.00  0.00    +0.000 A 
ATOM     18  C   UNL     1     -10.108   6.993 130.145  0.00  0.00    +0.000 A 
ATOM     19  C   UNL     1     -10.536   6.339 131.511  0.00  0.00    +0.000 A 
ATOM     20  C   UNL     1     -11.819   6.718 131.804  0.00  0.00    +0.000 A 
ATOM     21  C   UNL     1     -12.669   7.484 130.928  0.00  0.00    +0.000 A 
BRANCH  16  23
ATOM     22  C   UNL     1     -13.557   9.877 128.772  0.00  0.00    +0.000 C 
ATOM     23  O   UNL     1     -13.305   8.477 128.813  0.00  0.00    +0.000 OA
ENDBRANCH  16  23
BRANCH  17  24
ATOM     24  O   UNL     1     -10.545   8.528 128.093  0.00  0.00    +0.000 OA
ATOM     25  C   UNL     1     -10.755   7.901 126.770  0.00  0.00    +0.000 C 
ENDBRANCH  17  24
ENDBRANCH  15  19
ENDBRANCH   1  15
TORSDOF 6
ENDMDL
MODEL 2
REMARK VINA RESULT:      -7.4      7.257     11.689
REMARK  Name = Papaverine
REMARK  10 active torsions:
REMARK  status: ('A' for Active; 'I' for Inactive)
REMARK    1  A    between atoms: C_1  and  O_2
REMARK    2  A    between atoms: O_2  and  C_3
REMARK    3  A    between atoms: C_4  and  O_5
REMARK    4  A    between atoms: O_5  and  C_6
REMARK    5  A    between atoms: C_8  and  C_9
REMARK    6  A    between atoms: C_9  and  C_10
REMARK    7  A    between atoms: C_16  and  O_17
REMARK    8  A    between atoms: O_17  and  C_18
REMARK    9  A    between atoms: C_19  and  O_20
REMARK   10  A    between atoms: O_20  and  C_21
REMARK                            x       y       z     vdW  Elec       q    Type
REMARK                         _______ _______ _______ _____ _____    ______ ____
ROOT
ATOM      1  C   UNL     1      -9.080  -0.253 124.909  0.00  0.00    +0.000 A 
ATOM      2  N   UNL     1      -7.868  -0.101 125.378  0.00  0.00    +0.000 NA
ATOM      3  C   UNL     1      -7.025  -0.111 124.429  0.00  0.00    +0.000 A 
ATOM      4  C   UNL     1      -6.694   1.159 124.332  0.00  0.00    +0.000 A 
ATOM      5  C   UNL     1      -7.489   1.679 123.442  0.00  0.00    +0.000 A 
ATOM      6  C   UNL     1      -6.611   2.765 122.621  0.00  0.00    +0.000 A 
ATOM      7  C   UNL     1      -6.910   3.671 121.603  0.00  0.00    +0.000 A 
ATOM      8  C   UNL     1      -8.212   3.422 121.271  0.00  0.00    +0.000 A 
ATOM      9  C   UNL     1      -9.095   2.273 122.226  0.00  0.00    +0.000 A 
ATOM     10  C   UNL     1      -8.838   1.119 123.552  0.00  0.00    +0.000 A 
ENDROOT
BRANCH   7  11
ATOM     11  O   UNL     1      -5.943   4.551 121.135  0.00  0.00    +0.000 OA
ATOM     12  C   UNL     1      -4.624   4.761 121.733  0.00  0.00    +0.000 C 
ENDBRANCH   7  11
BRANCH   8  13
ATOM     13  O   UNL     1      -8.449   4.187 120.131  0.00  0.00    +0.000 OA
ATOM     14  C   UNL     1      -9.464   4.332 119.153  0.00  0.00    +0.000 C 
ENDBRANCH   8  13
BRANCH   1  15
ATOM     15  C   UNL     1      -8.835  -1.656 126.223  0.00  0.00    +0.000 C 
BRANCH  15  19
ATOM     16  C   UNL     1      -6.265  -3.476 129.995  0.00  0.00    +0.000 A 
ATOM     17  C   UNL     1      -5.463  -2.712 129.158  0.00  0.00    +0.000 A 
ATOM     18  C   UNL     1      -6.167  -2.025 127.968  0.00  0.00    +0.000 A 
ATOM     19  C   UNL     1      -7.682  -2.209 127.584  0.00  0.00    +0.000 A 
ATOM     20  C   UNL     1      -8.255  -3.106 128.444  0.00  0.00    +0.000 A 
ATOM     21  C   UNL     1      -7.596  -3.681 129.591  0.00  0.00    +0.000 A 
BRANCH  16  23
ATOM     22  C   UNL     1      -6.111  -2.964 132.337  0.00  0.00    +0.000 C 
ATOM     23  O   UNL     1      -5.842  -3.845 131.251  0.00  0.00    +0.000 OA
ENDBRANCH  16  23
BRANCH  17  24
ATOM     24  O   UNL     1      -4.070  -2.596 129.395  0.00  0.00    +0.000 OA
ATOM     25  C   UNL     1      -3.182  -3.741 129.098  0.00  0.00    +0.000 C 
ENDBRANCH  17  24
ENDBRANCH  15  19
ENDBRANCH   1  15
TORSDOF 6
ENDMDL
MODEL 3
REMARK VINA RESULT:      -7.2      6.767     11.552
REMARK  Name = Papaverine
REMARK  10 active torsions:
REMARK  status: ('A' for Active; 'I' for Inactive)
REMARK    1  A    between atoms: C_1  and  O_2
REMARK    2  A    between atoms: O_2  and  C_3
REMARK    3  A    between atoms: C_4  and  O_5
REMARK    4  A    between atoms: O_5  and  C_6
REMARK    5  A    between atoms: C_8  and  C_9
REMARK    6  A    between atoms: C_9  and  C_10
REMARK    7  A    between atoms: C_16  and  O_17
REMARK    8  A    between atoms: O_17  and  C_18
REMARK    9  A    between atoms: C_19  and  O_20
REMARK   10  A    between atoms: O_20  and  C_21
REMARK                            x       y       z     vdW  Elec       q    Type
REMARK                         _______ _______ _______ _____ _____    ______ ____
ROOT
ATOM      1  C   UNL     1      -8.946  -0.728 125.380  0.00  0.00    +0.000 A 
ATOM      2  N   UNL     1      -7.660  -0.655 125.612  0.00  0.00    +0.000 NA
ATOM      3  C   UNL     1      -7.017  -0.633 124.518  0.00  0.00    +0.000 A 
ATOM      4  C   UNL     1      -6.646   0.627 124.434  0.00  0.00    +0.000 A 
ATOM      5  C   UNL     1      -7.569   1.237 123.748  0.00  0.00    +0.000 A 
ATOM      6  C   UNL     1      -6.810   2.341 122.838  0.00  0.00    +0.000 A 
ATOM      7  C   UNL     1      -7.252   3.325 121.953  0.00  0.00    +0.000 A 
ATOM      8  C   UNL     1      -8.605   3.150 121.867  0.00  0.00    +0.000 A 
ATOM      9  C   UNL     1      -9.346   1.974 122.906  0.00  0.00    +0.000 A 
ATOM     10  C   UNL     1      -8.899   0.723 124.085  0.00  0.00    +0.000 A 
ENDROOT
BRANCH   7  11
ATOM     11  O   UNL     1      -6.350   4.197 121.359  0.00  0.00    +0.000 OA
ATOM     12  C   UNL     1      -4.943   4.352 121.735  0.00  0.00    +0.000 C 
ENDBRANCH   7  11
BRANCH   8  13
ATOM     13  O   UNL     1      -9.017   3.999 120.842  0.00  0.00    +0.000 OA
ATOM     14  C   UNL     1      -9.070   3.991 119.426  0.00  0.00    +0.000 C 
ENDBRANCH   8  13
BRANCH   1  15
ATOM     15  C   UNL     1      -8.526  -2.226 126.535  0.00  0.00    +0.000 C 
BRANCH  15  19
ATOM     16  C   UNL     1      -5.717  -3.229 130.440  0.00  0.00    +0.000 A 
ATOM     17  C   UNL     1      -7.061  -3.176 130.784  0.00  0.00    +0.000 A 
ATOM     18  C   UNL     1      -8.058  -2.935 129.630  0.00  0.00    +0.000 A 
ATOM     19  C   UNL     1      -7.660  -2.649 128.135  0.00  0.00    +0.000 A 
ATOM     20  C   UNL     1      -6.295  -2.603 128.037  0.00  0.00    +0.000 A 
ATOM     21  C   UNL     1      -5.384  -2.901 129.114  0.00  0.00    +0.000 A 
BRANCH  16  23
ATOM     22  C   UNL     1      -3.869  -2.883 131.936  0.00  0.00    +0.000 C 
ATOM     23  O   UNL     1      -4.781  -3.768 131.292  0.00  0.00    +0.000 OA
ENDBRANCH  16  23
BRANCH  17  24
ATOM     24  O   UNL     1      -7.471  -3.321 132.133  0.00  0.00    +0.000 OA
ATOM     25  C   UNL     1      -7.569  -2.127 132.999  0.00  0.00    +0.000 C 
ENDBRANCH  17  24
ENDBRANCH  15  19
ENDBRANCH   1  15
TORSDOF 6
ENDMDL
MODEL 4
REMARK VINA RESULT:      -7.1      1.405      9.828
REMARK  Name = Papaverine
REMARK  10 active torsions:
REMARK  status: ('A' for Active; 'I' for Inactive)
REMARK    1  A    between atoms: C_1  and  O_2
REMARK    2  A    between atoms: O_2  and  C_3
REMARK    3  A    between atoms: C_4  and  O_5
REMARK    4  A    between atoms: O_5  and  C_6
REMARK    5  A    between atoms: C_8  and  C_9
REMARK    6  A    between atoms: C_9  and  C_10
REMARK    7  A    between atoms: C_16  and  O_17
REMARK    8  A    between atoms: O_17  and  C_18
REMARK    9  A    between atoms: C_19  and  O_20
REMARK   10  A    between atoms: O_20  and  C_21
REMARK                            x       y       z     vdW  Elec       q    Type
REMARK                         _______ _______ _______ _____ _____    ______ ____
ROOT
ATOM      1  C   UNL     1      -9.273   3.642 132.337  0.00  0.00    +0.000 A 
ATOM      2  N   UNL     1      -8.416   3.553 131.352  0.00  0.00    +0.000 NA
ATOM      3  C   UNL     1      -9.027   3.540 130.239  0.00  0.00    +0.000 A 
ATOM      4  C   UNL     1      -8.795   4.749 129.775  0.00  0.00    +0.000 A 
ATOM      5  C   UNL     1      -9.793   5.489 130.161  0.00  0.00    +0.000 A 
ATOM      6  C   UNL     1     -10.087   6.529 128.954  0.00  0.00    +0.000 A 
ATOM      7  C   UNL     1     -10.978   7.591 128.796  0.00  0.00    +0.000 A 
ATOM      8  C   UNL     1     -11.753   7.581 129.922  0.00  0.00    +0.000 A 
ATOM      9  C   UNL     1     -11.346   6.463 131.185  0.00  0.00    +0.000 A 
ATOM     10  C   UNL     1     -10.225   5.125 131.512  0.00  0.00    +0.000 A 
ENDROOT
BRANCH   7  11
ATOM     11  O   UNL     1     -10.951   8.371 127.647  0.00  0.00    +0.000 OA
ATOM     12  C   UNL     1     -11.028   7.866 126.275  0.00  0.00    +0.000 C 
ENDBRANCH   7  11
BRANCH   8  13
ATOM     13  O   UNL     1     -12.762   8.510 129.677  0.00  0.00    +0.000 OA
ATOM     14  C   UNL     1     -13.073   9.845 130.036  0.00  0.00    +0.000 C 
ENDBRANCH   8  13
BRANCH   1  15
ATOM     15  C   UNL     1      -8.208   2.064 132.696  0.00  0.00    +0.000 C 
BRANCH  15  19
ATOM     16  C   UNL     1      -7.570  -2.344 130.620  0.00  0.00    +0.000 A 
ATOM     17  C   UNL     1      -7.364  -2.397 131.992  0.00  0.00    +0.000 A 
ATOM     18  C   UNL     1      -7.601  -1.087 132.774  0.00  0.00    +0.000 A 
ATOM     19  C   UNL     1      -7.954   0.303 132.126  0.00  0.00    +0.000 A 
ATOM     20  C   UNL     1      -7.969   0.169 130.764  0.00  0.00    +0.000 A 
ATOM     21  C   UNL     1      -7.814  -1.079 130.060  0.00  0.00    +0.000 A 
BRANCH  16  23
ATOM     22  C   UNL     1      -8.514  -3.420 128.691  0.00  0.00    +0.000 C 
ATOM     23  O   UNL     1      -7.727  -3.491 129.876  0.00  0.00    +0.000 OA
ENDBRANCH  16  23
BRANCH  17  24
ATOM     24  O   UNL     1      -6.942  -3.597 132.617  0.00  0.00    +0.000 OA
ATOM     25  C   UNL     1      -5.506  -3.949 132.628  0.00  0.00    +0.000 C 
ENDBRANCH  17  24
ENDBRANCH  15  19
ENDBRANCH   1  15
TORSDOF 6
ENDMDL
MODEL 5
REMARK VINA RESULT:      -7.0      7.626      9.015
REMARK  Name = Papaverine
REMARK  10 active torsions:
REMARK  status: ('A' for Active; 'I' for Inactive)
REMARK    1  A    between atoms: C_1  and  O_2
REMARK    2  A    between atoms: O_2  and  C_3
REMARK    3  A    between atoms: C_4  and  O_5
REMARK    4  A    between atoms: O_5  and  C_6
REMARK    5  A    between atoms: C_8  and  C_9
REMARK    6  A    between atoms: C_9  and  C_10
REMARK    7  A    between atoms: C_16  and  O_17
REMARK    8  A    between atoms: O_17  and  C_18
REMARK    9  A    between atoms: C_19  and  O_20
REMARK   10  A    between atoms: O_20  and  C_21
REMARK                            x       y       z     vdW  Elec       q    Type
REMARK                         _______ _______ _______ _____ _____    ______ ____
ROOT
ATOM      1  C   UNL     1      -4.015   3.849 127.883  0.00  0.00    +0.000 A 
ATOM      2  N   UNL     1      -3.185   4.674 127.298  0.00  0.00    +0.000 NA
ATOM      3  C   UNL     1      -3.329   5.847 127.765  0.00  0.00    +0.000 A 
ATOM      4  C   UNL     1      -2.264   5.980 128.526  0.00  0.00    +0.000 A 
ATOM      5  C   UNL     1      -2.618   5.606 129.721  0.00  0.00    +0.000 A 
ATOM      6  C   UNL     1      -1.837   6.578 130.756  0.00  0.00    +0.000 A 
ATOM      7  C   UNL     1      -1.760   6.636 132.148  0.00  0.00    +0.000 A 
ATOM      8  C   UNL     1      -2.632   5.685 132.597  0.00  0.00    +0.000 A 
ATOM      9  C   UNL     1      -3.397   4.658 131.425  0.00  0.00    +0.000 A 
ATOM     10  C   UNL     1      -3.530   4.462 129.665  0.00  0.00    +0.000 A 
ENDROOT
BRANCH   7  11
ATOM     11  O   UNL     1      -0.929   7.558 132.771  0.00  0.00    +0.000 OA
ATOM     12  C   UNL     1      -1.277   8.947 133.075  0.00  0.00    +0.000 C 
ENDBRANCH   7  11
BRANCH   8  13
ATOM     13  O   UNL     1      -2.700   5.875 133.975  0.00  0.00    +0.000 OA
ATOM     14  C   UNL     1      -3.394   5.324 135.081  0.00  0.00    +0.000 C 
ENDBRANCH   8  13
BRANCH   1  15
ATOM     15  C   UNL     1      -4.352   3.688 125.982  0.00  0.00    +0.000 C 
BRANCH  15  19
ATOM     16  C   UNL     1      -8.282   2.600 123.240  0.00  0.00    +0.000 A 
ATOM     17  C   UNL     1      -7.333   3.301 122.508  0.00  0.00    +0.000 A 
ATOM     18  C   UNL     1      -6.017   3.645 123.238  0.00  0.00    +0.000 A 
ATOM     19  C   UNL     1      -5.720   3.352 124.756  0.00  0.00    +0.000 A 
ATOM     20  C   UNL     1      -6.830   2.791 125.327  0.00  0.00    +0.000 A 
ATOM     21  C   UNL     1      -8.022   2.415 124.609  0.00  0.00    +0.000 A 
BRANCH  16  23
ATOM     22  C   UNL     1     -10.327   1.357 123.441  0.00  0.00    +0.000 C 
ATOM     23  O   UNL     1      -9.323   1.948 122.622  0.00  0.00    +0.000 OA
ENDBRANCH  16  23
BRANCH  17  24
ATOM     24  O   UNL     1      -7.588   3.685 121.168  0.00  0.00    +0.000 OA
ATOM     25  C   UNL     1      -6.459   3.848 120.227  0.00  0.00    +0.000 C 
ENDBRANCH  17  24
ENDBRANCH  15  19
ENDBRANCH   1  15
TORSDOF 6
ENDMDL
MODEL 6
REMARK VINA RESULT:      -7.0      6.866     10.897
REMARK  Name = Papaverine
REMARK  10 active torsions:
REMARK  status: ('A' for Active; 'I' for Inactive)
REMARK    1  A    between atoms: C_1  and  O_2
REMARK    2  A    between atoms: O_2  and  C_3
REMARK    3  A    between atoms: C_4  and  O_5
REMARK    4  A    between atoms: O_5  and  C_6
REMARK    5  A    between atoms: C_8  and  C_9
REMARK    6  A    between atoms: C_9  and  C_10
REMARK    7  A    between atoms: C_16  and  O_17
REMARK    8  A    between atoms: O_17  and  C_18
REMARK    9  A    between atoms: C_19  and  O_20
REMARK   10  A    between atoms: O_20  and  C_21
REMARK                            x       y       z     vdW  Elec       q    Type
REMARK                         _______ _______ _______ _____ _____    ______ ____
ROOT
ATOM      1  C   UNL     1      -6.487  -2.397 130.133  0.00  0.00    +0.000 A 
ATOM      2  N   UNL     1      -7.000  -3.570 129.862  0.00  0.00    +0.000 NA
ATOM      3  C   UNL     1      -8.208  -3.446 129.493  0.00  0.00    +0.000 A 
ATOM      4  C   UNL     1      -8.129  -3.649 128.195  0.00  0.00    +0.000 A 
ATOM      5  C   UNL     1      -7.983  -2.477 127.649  0.00  0.00    +0.000 A 
ATOM      6  C   UNL     1      -8.810  -2.514 126.256  0.00  0.00    +0.000 A 
ATOM      7  C   UNL     1      -8.983  -1.599 125.216  0.00  0.00    +0.000 A 
ATOM      8  C   UNL     1      -8.348  -0.462 125.629  0.00  0.00    +0.000 A 
ATOM      9  C   UNL     1      -7.450  -0.517 127.113  0.00  0.00    +0.000 A 
ATOM     10  C   UNL     1      -7.123  -1.619 128.467  0.00  0.00    +0.000 A 
ENDROOT
BRANCH   7  11
ATOM     11  O   UNL     1      -9.708  -1.946 124.084  0.00  0.00    +0.000 OA
ATOM     12  C   UNL     1      -9.465  -3.123 123.248  0.00  0.00    +0.000 C 
ENDBRANCH   7  11
BRANCH   8  13
ATOM     13  O   UNL     1      -8.685   0.506 124.684  0.00  0.00    +0.000 OA
ATOM     14  C   UNL     1      -9.629   1.553 124.541  0.00  0.00    +0.000 C 
ENDBRANCH   8  13
BRANCH   1  15
ATOM     15  C   UNL     1      -6.233  -3.472 131.725  0.00  0.00    +0.000 C 
BRANCH  15  19
ATOM     16  C   UNL     1      -7.847  -4.882 136.147  0.00  0.00    +0.000 A 
ATOM     17  C   UNL     1      -8.296  -3.608 135.827  0.00  0.00    +0.000 A 
ATOM     18  C   UNL     1      -7.913  -3.073 134.431  0.00  0.00    +0.000 A 
ATOM     19  C   UNL     1      -6.982  -3.815 133.401  0.00  0.00    +0.000 A 
ATOM     20  C   UNL     1      -6.535  -4.980 133.963  0.00  0.00    +0.000 A 
ATOM     21  C   UNL     1      -6.962  -5.492 135.241  0.00  0.00    +0.000 A 
BRANCH  16  23
ATOM     22  C   UNL     1      -9.557  -6.376 136.931  0.00  0.00    +0.000 C 
ATOM     23  O   UNL     1      -8.395  -5.593 137.189  0.00  0.00    +0.000 OA
ENDBRANCH  16  23
BRANCH  17  24
ATOM     24  O   UNL     1      -9.050  -2.850 136.757  0.00  0.00    +0.000 OA
ATOM     25  C   UNL     1      -8.400  -2.346 137.986  0.00  0.00    +0.000 C 
ENDBRANCH  17  24
ENDBRANCH  15  19
ENDBRANCH   1  15
TORSDOF 6
ENDMDL
MODEL 7
REMARK VINA RESULT:      -6.9      7.581      9.382
REMARK  Name = Papaverine
REMARK  10 active torsions:
REMARK  status: ('A' for Active; 'I' for Inactive)
REMARK    1  A    between atoms: C_1  and  O_2
REMARK    2  A    between atoms: O_2  and  C_3
REMARK    3  A    between atoms: C_4  and  O_5
REMARK    4  A    between atoms: O_5  and  C_6
REMARK    5  A    between atoms: C_8  and  C_9
REMARK    6  A    between atoms: C_9  and  C_10
REMARK    7  A    between atoms: C_16  and  O_17
REMARK    8  A    between atoms: O_17  and  C_18
REMARK    9  A    between atoms: C_19  and  O_20
REMARK   10  A    between atoms: O_20  and  C_21
REMARK                            x       y       z     vdW  Elec       q    Type
REMARK                         _______ _______ _______ _____ _____    ______ ____
ROOT
ATOM      1  C   UNL     1      -3.940   4.890 129.111  0.00  0.00    +0.000 A 
ATOM      2  N   UNL     1      -4.861   5.818 129.167  0.00  0.00    +0.000 NA
ATOM      3  C   UNL     1      -5.120   6.107 130.377  0.00  0.00    +0.000 A 
ATOM      4  C   UNL     1      -4.530   7.274 130.520  0.00  0.00    +0.000 A 
ATOM      5  C   UNL     1      -3.336   7.030 130.975  0.00  0.00    +0.000 A 
ATOM      6  C   UNL     1      -2.986   8.223 132.013  0.00  0.00    +0.000 A 
ATOM      7  C   UNL     1      -1.854   8.545 132.762  0.00  0.00    +0.000 A 
ATOM      8  C   UNL     1      -0.979   7.517 132.549  0.00  0.00    +0.000 A 
ATOM      9  C   UNL     1      -1.412   6.299 131.391  0.00  0.00    +0.000 A 
ATOM     10  C   UNL     1      -2.777   5.823 130.360  0.00  0.00    +0.000 A 
ENDROOT
BRANCH   7  11
ATOM     11  O   UNL     1      -1.819   9.702 133.528  0.00  0.00    +0.000 OA
ATOM     12  C   UNL     1      -2.395   9.854 134.865  0.00  0.00    +0.000 C 
ENDBRANCH   7  11
BRANCH   8  13
ATOM     13  O   UNL     1       0.066   7.738 133.444  0.00  0.00    +0.000 OA
ATOM     14  C   UNL     1       0.433   7.341 134.754  0.00  0.00    +0.000 C 
ENDBRANCH   8  13
BRANCH   1  15
ATOM     15  C   UNL     1      -5.447   4.210 128.101  0.00  0.00    +0.000 C 
BRANCH  15  19
ATOM     16  C   UNL     1      -6.376   3.454 123.335  0.00  0.00    +0.000 A 
ATOM     17  C   UNL     1      -7.140   2.618 124.138  0.00  0.00    +0.000 A 
ATOM     18  C   UNL     1      -6.991   2.804 125.663  0.00  0.00    +0.000 A 
ATOM     19  C   UNL     1      -5.979   3.786 126.361  0.00  0.00    +0.000 A 
ATOM     20  C   UNL     1      -5.226   4.407 125.401  0.00  0.00    +0.000 A 
ATOM     21  C   UNL     1      -5.431   4.270 123.981  0.00  0.00    +0.000 A 
BRANCH  16  23
ATOM     22  C   UNL     1      -5.641   4.128 121.150  0.00  0.00    +0.000 C 
ATOM     23  O   UNL     1      -6.666   3.625 122.001  0.00  0.00    +0.000 OA
ENDBRANCH  16  23
BRANCH  17  24
ATOM     24  O   UNL     1      -7.992   1.641 123.565  0.00  0.00    +0.000 OA
ATOM     25  C   UNL     1      -9.439   1.917 123.440  0.00  0.00    +0.000 C 
ENDBRANCH  17  24
ENDBRANCH  15  19
ENDBRANCH   1  15
TORSDOF 6
ENDMDL
MODEL 8
REMARK VINA RESULT:      -6.9      5.771      7.240
REMARK  Name = Papaverine
REMARK  10 active torsions:
REMARK  status: ('A' for Active; 'I' for Inactive)
REMARK    1  A    between atoms: C_1  and  O_2
REMARK    2  A    between atoms: O_2  and  C_3
REMARK    3  A    between atoms: C_4  and  O_5
REMARK    4  A    between atoms: O_5  and  C_6
REMARK    5  A    between atoms: C_8  and  C_9
REMARK    6  A    between atoms: C_9  and  C_10
REMARK    7  A    between atoms: C_16  and  O_17
REMARK    8  A    between atoms: O_17  and  C_18
REMARK    9  A    between atoms: C_19  and  O_20
REMARK   10  A    between atoms: O_20  and  C_21
REMARK                            x       y       z     vdW  Elec       q    Type
REMARK                         _______ _______ _______ _____ _____    ______ ____
ROOT
ATOM      1  C   UNL     1      -7.969  -2.811 127.543  0.00  0.00    +0.000 A 
ATOM      2  N   UNL     1      -7.241  -1.750 127.307  0.00  0.00    +0.000 NA
ATOM      3  C   UNL     1      -7.009  -1.127 128.389  0.00  0.00    +0.000 A 
ATOM      4  C   UNL     1      -5.748  -1.424 128.621  0.00  0.00    +0.000 A 
ATOM      5  C   UNL     1      -5.753  -2.476 129.386  0.00  0.00    +0.000 A 
ATOM      6  C   UNL     1      -4.514  -2.302 130.415  0.00  0.00    +0.000 A 
ATOM      7  C   UNL     1      -3.976  -3.109 131.418  0.00  0.00    +0.000 A 
ATOM      8  C   UNL     1      -4.812  -4.188 131.497  0.00  0.00    +0.000 A 
ATOM      9  C   UNL     1      -6.091  -4.320 130.332  0.00  0.00    +0.000 A 
ATOM     10  C   UNL     1      -6.826  -3.397 129.004  0.00  0.00    +0.000 A 
ENDROOT
BRANCH   7  11
ATOM     11  O   UNL     1      -2.834  -2.717 132.103  0.00  0.00    +0.000 OA
ATOM     12  C   UNL     1      -2.807  -1.854 133.285  0.00  0.00    +0.000 C 
ENDBRANCH   7  11
BRANCH   8  13
ATOM     13  O   UNL     1      -4.389  -4.893 132.622  0.00  0.00    +0.000 OA
ATOM     14  C   UNL     1      -4.904  -5.256 133.891  0.00  0.00    +0.000 C 
ENDBRANCH   8  13
BRANCH   1  15
ATOM     15  C   UNL     1      -8.933  -1.787 126.210  0.00  0.00    +0.000 C 
BRANCH  15  19
ATOM     16  C   UNL     1      -9.056   2.226 123.378  0.00  0.00    +0.000 A 
ATOM     17  C   UNL     1      -8.891   2.557 124.716  0.00  0.00    +0.000 A 
ATOM     18  C   UNL     1      -8.768   1.379 125.706  0.00  0.00    +0.000 A 
ATOM     19  C   UNL     1      -8.915  -0.142 125.327  0.00  0.00    +0.000 A 
ATOM     20  C   UNL     1      -9.215  -0.242 123.995  0.00  0.00    +0.000 A 
ATOM     21  C   UNL     1      -9.255   0.868 123.076  0.00  0.00    +0.000 A 
BRANCH  16  23
ATOM     22  C   UNL     1      -7.501   3.329 121.916  0.00  0.00    +0.000 C 
ATOM     23  O   UNL     1      -8.835   3.149 122.381  0.00  0.00    +0.000 OA
ENDBRANCH  16  23
BRANCH  17  24
ATOM     24  O   UNL     1      -8.857   3.912 125.130  0.00  0.00    +0.000 OA
ATOM     25  C   UNL     1      -7.588   4.496 125.615  0.00  0.00    +0.000 C 
ENDBRANCH  17  24
ENDBRANCH  15  19
ENDBRANCH   1  15
TORSDOF 6
ENDMDL
MODEL 9
REMARK VINA RESULT:      -6.9      7.606      8.953
REMARK  Name = Papaverine
REMARK  10 active torsions:
REMARK  status: ('A' for Active; 'I' for Inactive)
REMARK    1  A    between atoms: C_1  and  O_2
REMARK    2  A    between atoms: O_2  and  C_3
REMARK    3  A    between atoms: C_4  and  O_5
REMARK    4  A    between atoms: O_5  and  C_6
REMARK    5  A    between atoms: C_8  and  C_9
REMARK    6  A    between atoms: C_9  and  C_10
REMARK    7  A    between atoms: C_16  and  O_17
REMARK    8  A    between atoms: O_17  and  C_18
REMARK    9  A    between atoms: C_19  and  O_20
REMARK   10  A    between atoms: O_20  and  C_21
REMARK                            x       y       z     vdW  Elec       q    Type
REMARK                         _______ _______ _______ _____ _____    ______ ____
ROOT
ATOM      1  C   UNL     1      -5.873  -2.900 131.120  0.00  0.00    +0.000 A 
ATOM      2  N   UNL     1      -6.298  -4.121 131.321  0.00  0.00    +0.000 NA
ATOM      3  C   UNL     1      -5.332  -4.941 131.243  0.00  0.00    +0.000 A 
ATOM      4  C   UNL     1      -5.125  -5.254 132.504  0.00  0.00    +0.000 A 
ATOM      5  C   UNL     1      -4.217  -4.433 132.943  0.00  0.00    +0.000 A 
ATOM      6  C   UNL     1      -3.290  -5.278 133.968  0.00  0.00    +0.000 A 
ATOM      7  C   UNL     1      -2.210  -4.944 134.787  0.00  0.00    +0.000 A 
ATOM      8  C   UNL     1      -1.932  -3.637 134.499  0.00  0.00    +0.000 A 
ATOM      9  C   UNL     1      -2.998  -2.791 133.422  0.00  0.00    +0.000 A 
ATOM     10  C   UNL     1      -4.405  -3.093 132.381  0.00  0.00    +0.000 A 
ENDROOT
BRANCH   7  11
ATOM     11  O   UNL     1      -1.649  -5.888 135.635  0.00  0.00    +0.000 OA
ATOM     12  C   UNL     1      -2.086  -6.167 137.004  0.00  0.00    +0.000 C 
ENDBRANCH   7  11
BRANCH   8  13
ATOM     13  O   UNL     1      -0.740  -3.364 135.167  0.00  0.00    +0.000 OA
ATOM     14  C   UNL     1       0.588  -2.993 134.842  0.00  0.00    +0.000 C 
ENDBRANCH   8  13
BRANCH   1  15
ATOM     15  C   UNL     1      -7.289  -3.193 129.829  0.00  0.00    +0.000 C 
BRANCH  15  19
ATOM     16  C   UNL     1      -9.230  -2.196 125.426  0.00  0.00    +0.000 A 
ATOM     17  C   UNL     1      -8.507  -1.117 125.917  0.00  0.00    +0.000 A 
ATOM     18  C   UNL     1      -7.788  -1.326 127.266  0.00  0.00    +0.000 A 
ATOM     19  C   UNL     1      -7.896  -2.617 128.160  0.00  0.00    +0.000 A 
ATOM     20  C   UNL     1      -8.764  -3.496 127.569  0.00  0.00    +0.000 A 
ATOM     21  C   UNL     1      -9.369  -3.309 126.274  0.00  0.00    +0.000 A 
BRANCH  16  23
ATOM     22  C   UNL     1      -8.720  -2.841 123.170  0.00  0.00    +0.000 C 
ATOM     23  O   UNL     1      -9.619  -2.258 124.108  0.00  0.00    +0.000 OA
ENDBRANCH  16  23
BRANCH  17  24
ATOM     24  O   UNL     1      -8.461   0.108 125.205  0.00  0.00    +0.000 OA
ATOM     25  C   UNL     1      -7.255   0.452 124.421  0.00  0.00    +0.000 C 
ENDBRANCH  17  24
ENDBRANCH  15  19
ENDBRANCH   1  15
TORSDOF 6
ENDMDL
