MODEL 1
REMARK VINA RESULT:      -4.9      0.000      0.000
REMARK  Name = Parachlorophenol
REMARK  1 active torsions:
REMARK  status: ('A' for Active; 'I' for Inactive)
REMARK    1  A    between atoms: O_1  and  C_2
REMARK                            x       y       z     vdW  Elec       q    Type
REMARK                         _______ _______ _______ _____ _____    ______ ____
ROOT
ATOM      1  C   UNL     1     -11.366   7.788 126.802  0.00  0.00    +0.000 A 
ATOM      2  C   UNL     1     -12.577   7.124 126.981  0.00  0.00    +0.000 A 
ATOM      3  C   UNL     1     -13.087   6.968 128.274  0.00  0.00    +0.000 A 
ATOM      4  C   UNL     1     -12.382   7.477 129.366  0.00  0.00    +0.000 A 
ATOM      5 CL   UNL     1     -13.014   7.287 130.955  0.00  0.00    +0.000 Cl
ATOM      6  C   UNL     1     -11.169   8.139 129.178  0.00  0.00    +0.000 A 
ATOM      7  C   UNL     1     -10.660   8.293 127.889  0.00  0.00    +0.000 A 
ENDROOT
BRANCH   1   8
ATOM      8  O   UNL     1     -10.826   7.968 125.563  0.00  0.00    +0.000 OA
ATOM      9  H   UNL     1     -10.588   7.104 125.191  0.00  0.00    +0.000 HD
ENDBRANCH   1   8
TORSDOF 1
ENDMDL
MODEL 2
REMARK VINA RESULT:      -4.9      0.043      1.713
REMARK  Name = Parachlorophenol
REMARK  1 active torsions:
REMARK  status: ('A' for Active; 'I' for Inactive)
REMARK    1  A    between atoms: O_1  and  C_2
REMARK                            x       y       z     vdW  Elec       q    Type
REMARK                         _______ _______ _______ _____ _____    ______ ____
ROOT
ATOM      1  C   UNL     1     -11.314   7.822 126.817  0.00  0.00    +0.000 A 
ATOM      2  C   UNL     1     -10.626   8.327 127.919  0.00  0.00    +0.000 A 
ATOM      3  C   UNL     1     -11.162   8.152 129.198  0.00  0.00    +0.000 A 
ATOM      4  C   UNL     1     -12.373   7.478 129.359  0.00  0.00    +0.000 A 
ATOM      5 CL   UNL     1     -13.028   7.262 130.936  0.00  0.00    +0.000 Cl
ATOM      6  C   UNL     1     -13.056   6.977 128.252  0.00  0.00    +0.000 A 
ATOM      7  C   UNL     1     -12.522   7.152 126.975  0.00  0.00    +0.000 A 
ENDROOT
BRANCH   1   8
ATOM      8  O   UNL     1     -10.834   7.963 125.549  0.00  0.00    +0.000 OA
ATOM      9  H   UNL     1     -10.206   8.703 125.526  0.00  0.00    +0.000 HD
ENDBRANCH   1   8
TORSDOF 1
ENDMDL
MODEL 3
REMARK VINA RESULT:      -4.6      2.533      3.065
REMARK  Name = Parachlorophenol
REMARK  1 active torsions:
REMARK  status: ('A' for Active; 'I' for Inactive)
REMARK    1  A    between atoms: O_1  and  C_2
REMARK                            x       y       z     vdW  Elec       q    Type
REMARK                         _______ _______ _______ _____ _____    ______ ____
ROOT
ATOM      1  C   UNL     1     -12.350   6.671 129.432  0.00  0.00    +0.000 A 
ATOM      2  C   UNL     1     -12.448   7.484 128.305  0.00  0.00    +0.000 A 
ATOM      3  C   UNL     1     -12.784   8.832 128.461  0.00  0.00    +0.000 A 
ATOM      4  C   UNL     1     -13.016   9.348 129.737  0.00  0.00    +0.000 A 
ATOM      5 CL   UNL     1     -13.427  11.009 129.926  0.00  0.00    +0.000 Cl
ATOM      6  C   UNL     1     -12.919   8.527 130.860  0.00  0.00    +0.000 A 
ATOM      7  C   UNL     1     -12.584   7.182 130.704  0.00  0.00    +0.000 A 
ENDROOT
BRANCH   1   8
ATOM      8  O   UNL     1     -12.024   5.351 129.335  0.00  0.00    +0.000 OA
ATOM      9  H   UNL     1     -12.765   4.869 128.935  0.00  0.00    +0.000 HD
ENDBRANCH   1   8
TORSDOF 1
ENDMDL
MODEL 4
REMARK VINA RESULT:      -4.6      3.670      4.386
REMARK  Name = Parachlorophenol
REMARK  1 active torsions:
REMARK  status: ('A' for Active; 'I' for Inactive)
REMARK    1  A    between atoms: O_1  and  C_2
REMARK                            x       y       z     vdW  Elec       q    Type
REMARK                         _______ _______ _______ _____ _____    ______ ____
ROOT
ATOM      1  C   UNL     1     -10.686   6.247 131.921  0.00  0.00    +0.000 A 
ATOM      2  C   UNL     1     -11.925   6.688 131.462  0.00  0.00    +0.000 A 
ATOM      3  C   UNL     1     -11.991   7.424 130.276  0.00  0.00    +0.000 A 
ATOM      4  C   UNL     1     -10.824   7.707 129.566  0.00  0.00    +0.000 A 
ATOM      5 CL   UNL     1     -10.910   8.611 128.103  0.00  0.00    +0.000 Cl
ATOM      6  C   UNL     1      -9.587   7.264 130.033  0.00  0.00    +0.000 A 
ATOM      7  C   UNL     1      -9.521   6.531 131.218  0.00  0.00    +0.000 A 
ENDROOT
BRANCH   1   8
ATOM      8  O   UNL     1     -10.566   5.525 133.071  0.00  0.00    +0.000 OA
ATOM      9  H   UNL     1     -11.060   4.695 132.979  0.00  0.00    +0.000 HD
ENDBRANCH   1   8
TORSDOF 1
ENDMDL
MODEL 5
REMARK VINA RESULT:      -4.5      3.760      4.706
REMARK  Name = Parachlorophenol
REMARK  1 active torsions:
REMARK  status: ('A' for Active; 'I' for Inactive)
REMARK    1  A    between atoms: O_1  and  C_2
REMARK                            x       y       z     vdW  Elec       q    Type
REMARK                         _______ _______ _______ _____ _____    ______ ____
ROOT
ATOM      1  C   UNL     1     -10.473   6.191 131.926  0.00  0.00    +0.000 A 
ATOM      2  C   UNL     1      -9.282   6.535 131.291  0.00  0.00    +0.000 A 
ATOM      3  C   UNL     1      -9.329   7.279 130.108  0.00  0.00    +0.000 A 
ATOM      4  C   UNL     1     -10.560   7.669 129.579  0.00  0.00    +0.000 A 
ATOM      5 CL   UNL     1     -10.613   8.588 128.125  0.00  0.00    +0.000 Cl
ATOM      6  C   UNL     1     -11.748   7.319 130.220  0.00  0.00    +0.000 A 
ATOM      7  C   UNL     1     -11.701   6.576 131.399  0.00  0.00    +0.000 A 
ENDROOT
BRANCH   1   8
ATOM      8  O   UNL     1     -10.484   5.469 133.082  0.00  0.00    +0.000 OA
ATOM      9  H   UNL     1     -11.231   5.756 133.631  0.00  0.00    +0.000 HD
ENDBRANCH   1   8
TORSDOF 1
ENDMDL
MODEL 6
REMARK VINA RESULT:      -4.4      3.025      3.873
REMARK  Name = Parachlorophenol
REMARK  1 active torsions:
REMARK  status: ('A' for Active; 'I' for Inactive)
REMARK    1  A    between atoms: O_1  and  C_2
REMARK                            x       y       z     vdW  Elec       q    Type
REMARK                         _______ _______ _______ _____ _____    ______ ____
ROOT
ATOM      1  C   UNL     1     -12.613   7.282 130.177  0.00  0.00    +0.000 A 
ATOM      2  C   UNL     1     -11.278   7.652 130.025  0.00  0.00    +0.000 A 
ATOM      3  C   UNL     1     -10.758   7.815 128.738  0.00  0.00    +0.000 A 
ATOM      4  C   UNL     1     -11.574   7.608 127.625  0.00  0.00    +0.000 A 
ATOM      5 CL   UNL     1     -10.930   7.813 126.042  0.00  0.00    +0.000 Cl
ATOM      6  C   UNL     1     -12.908   7.237 127.786  0.00  0.00    +0.000 A 
ATOM      7  C   UNL     1     -13.428   7.073 129.070  0.00  0.00    +0.000 A 
ENDROOT
BRANCH   1   8
ATOM      8  O   UNL     1     -13.171   7.112 131.410  0.00  0.00    +0.000 OA
ATOM      9  H   UNL     1     -12.791   7.760 132.024  0.00  0.00    +0.000 HD
ENDBRANCH   1   8
TORSDOF 1
ENDMDL
MODEL 7
REMARK VINA RESULT:      -4.3     12.061     12.542
REMARK  Name = Parachlorophenol
REMARK  1 active torsions:
REMARK  status: ('A' for Active; 'I' for Inactive)
REMARK    1  A    between atoms: O_1  and  C_2
REMARK                            x       y       z     vdW  Elec       q    Type
REMARK                         _______ _______ _______ _____ _____    ______ ____
ROOT
ATOM      1  C   UNL     1      -8.531  -2.074 123.410  0.00  0.00    +0.000 A 
ATOM      2  C   UNL     1      -7.378  -1.535 122.844  0.00  0.00    +0.000 A 
ATOM      3  C   UNL     1      -6.150  -2.166 123.063  0.00  0.00    +0.000 A 
ATOM      4  C   UNL     1      -6.091  -3.323 123.841  0.00  0.00    +0.000 A 
ATOM      5 CL   UNL     1      -4.578  -4.099 124.106  0.00  0.00    +0.000 Cl
ATOM      6  C   UNL     1      -7.250  -3.855 124.406  0.00  0.00    +0.000 A 
ATOM      7  C   UNL     1      -8.475  -3.225 124.188  0.00  0.00    +0.000 A 
ENDROOT
BRANCH   1   8
ATOM      8  O   UNL     1      -9.754  -1.499 123.226  0.00  0.00    +0.000 OA
ATOM      9  H   UNL     1      -9.638  -0.632 122.805  0.00  0.00    +0.000 HD
ENDBRANCH   1   8
TORSDOF 1
ENDMDL
MODEL 8
REMARK VINA RESULT:      -4.3      2.363      2.905
REMARK  Name = Parachlorophenol
REMARK  1 active torsions:
REMARK  status: ('A' for Active; 'I' for Inactive)
REMARK    1  A    between atoms: O_1  and  C_2
REMARK                            x       y       z     vdW  Elec       q    Type
REMARK                         _______ _______ _______ _____ _____    ______ ____
ROOT
ATOM      1  C   UNL     1     -12.660   9.083 129.290  0.00  0.00    +0.000 A 
ATOM      2  C   UNL     1     -12.945   8.560 130.549  0.00  0.00    +0.000 A 
ATOM      3  C   UNL     1     -12.536   7.259 130.857  0.00  0.00    +0.000 A 
ATOM      4  C   UNL     1     -11.850   6.502 129.907  0.00  0.00    +0.000 A 
ATOM      5 CL   UNL     1     -11.346   4.901 130.291  0.00  0.00    +0.000 Cl
ATOM      6  C   UNL     1     -11.570   7.031 128.648  0.00  0.00    +0.000 A 
ATOM      7  C   UNL     1     -11.979   8.329 128.340  0.00  0.00    +0.000 A 
ENDROOT
BRANCH   1   8
ATOM      8  O   UNL     1     -13.034  10.346 128.939  0.00  0.00    +0.000 OA
ATOM      9  H   UNL     1     -13.952  10.495 129.216  0.00  0.00    +0.000 HD
ENDBRANCH   1   8
TORSDOF 1
ENDMDL
MODEL 9
REMARK VINA RESULT:      -4.1     11.376     11.748
REMARK  Name = Parachlorophenol
REMARK  1 active torsions:
REMARK  status: ('A' for Active; 'I' for Inactive)
REMARK    1  A    between atoms: O_1  and  C_2
REMARK                            x       y       z     vdW  Elec       q    Type
REMARK                         _______ _______ _______ _____ _____    ______ ____
ROOT
ATOM      1  C   UNL     1      -9.153  -3.183 124.348  0.00  0.00    +0.000 A 
ATOM      2  C   UNL     1      -7.822  -3.142 123.939  0.00  0.00    +0.000 A 
ATOM      3  C   UNL     1      -6.829  -2.838 124.875  0.00  0.00    +0.000 A 
ATOM      4  C   UNL     1      -7.177  -2.581 126.202  0.00  0.00    +0.000 A 
ATOM      5 CL   UNL     1      -5.951  -2.210 127.351  0.00  0.00    +0.000 Cl
ATOM      6  C   UNL     1      -8.512  -2.621 126.603  0.00  0.00    +0.000 A 
ATOM      7  C   UNL     1      -9.503  -2.924 125.669  0.00  0.00    +0.000 A 
ENDROOT
BRANCH   1   8
ATOM      8  O   UNL     1     -10.160  -3.476 123.477  0.00  0.00    +0.000 OA
ATOM      9  H   UNL     1      -9.778  -3.816 122.652  0.00  0.00    +0.000 HD
ENDBRANCH   1   8
TORSDOF 1
ENDMDL
