MODEL 1
REMARK VINA RESULT:      -4.8      0.000      0.000
REMARK  Name = Paraldehyde
REMARK  3 active torsions:
REMARK  status: ('A' for Active; 'I' for Inactive)
REMARK    1  A    between atoms: C_1  and  C_2
REMARK    2  A    between atoms: C_4  and  C_5
REMARK    3  A    between atoms: C_7  and  C_8
REMARK                            x       y       z     vdW  Elec       q    Type
REMARK                         _______ _______ _______ _____ _____    ______ ____
ROOT
ATOM      1  C   UNL     1     -11.838   7.531 127.145  0.00  0.00    +0.000 C 
ATOM      2  C   UNL     1     -13.120   7.474 127.979  0.00  0.00    +0.000 C 
ATOM      3  O   UNL     1     -12.944   6.726 129.175  0.00  0.00    +0.000 OA
ATOM      4  C   UNL     1     -12.168   7.455 130.110  0.00  0.00    +0.000 C 
ATOM      5  C   UNL     1     -12.047   6.642 131.386  0.00  0.00    +0.000 C 
ATOM      6  O   UNL     1     -12.767   8.706 130.404  0.00  0.00    +0.000 OA
ATOM      7  C   UNL     1     -12.883   9.455 129.203  0.00  0.00    +0.000 C 
ATOM      8  C   UNL     1     -13.550  10.783 129.513  0.00  0.00    +0.000 C 
ATOM      9  O   UNL     1     -13.659   8.765 128.237  0.00  0.00    +0.000 OA
ENDROOT
TORSDOF 0
ENDMDL
MODEL 2
REMARK VINA RESULT:      -4.7      1.301      3.022
REMARK  Name = Paraldehyde
REMARK  3 active torsions:
REMARK  status: ('A' for Active; 'I' for Inactive)
REMARK    1  A    between atoms: C_1  and  C_2
REMARK    2  A    between atoms: C_4  and  C_5
REMARK    3  A    between atoms: C_7  and  C_8
REMARK                            x       y       z     vdW  Elec       q    Type
REMARK                         _______ _______ _______ _____ _____    ______ ____
ROOT
ATOM      1  C   UNL     1     -11.537   5.994 130.320  0.00  0.00    +0.000 C 
ATOM      2  C   UNL     1     -12.617   6.406 129.318  0.00  0.00    +0.000 C 
ATOM      3  O   UNL     1     -13.257   7.618 129.694  0.00  0.00    +0.000 OA
ATOM      4  C   UNL     1     -12.399   8.725 129.482  0.00  0.00    +0.000 C 
ATOM      5  C   UNL     1     -13.139   9.998 129.850  0.00  0.00    +0.000 C 
ATOM      6  O   UNL     1     -11.985   8.795 128.127  0.00  0.00    +0.000 OA
ATOM      7  C   UNL     1     -11.302   7.597 127.790  0.00  0.00    +0.000 C 
ATOM      8  C   UNL     1     -10.885   7.661 126.332  0.00  0.00    +0.000 C 
ATOM      9  O   UNL     1     -12.128   6.460 127.983  0.00  0.00    +0.000 OA
ENDROOT
TORSDOF 0
ENDMDL
MODEL 3
REMARK VINA RESULT:      -4.7      2.291      4.003
REMARK  Name = Paraldehyde
REMARK  3 active torsions:
REMARK  status: ('A' for Active; 'I' for Inactive)
REMARK    1  A    between atoms: C_1  and  C_2
REMARK    2  A    between atoms: C_4  and  C_5
REMARK    3  A    between atoms: C_7  and  C_8
REMARK                            x       y       z     vdW  Elec       q    Type
REMARK                         _______ _______ _______ _____ _____    ______ ____
ROOT
ATOM      1  C   UNL     1     -12.787   7.413 130.648  0.00  0.00    +0.000 C 
ATOM      2  C   UNL     1     -11.988   6.264 130.029  0.00  0.00    +0.000 C 
ATOM      3  O   UNL     1     -11.901   6.379 128.615  0.00  0.00    +0.000 OA
ATOM      4  C   UNL     1     -11.011   7.419 128.251  0.00  0.00    +0.000 C 
ATOM      5  C   UNL     1     -10.912   7.473 126.737  0.00  0.00    +0.000 C 
ATOM      6  O   UNL     1      -9.722   7.201 128.800  0.00  0.00    +0.000 OA
ATOM      7  C   UNL     1      -9.827   7.144 130.215  0.00  0.00    +0.000 C 
ATOM      8  C   UNL     1      -8.451   6.882 130.801  0.00  0.00    +0.000 C 
ATOM      9  O   UNL     1     -10.706   6.110 130.626  0.00  0.00    +0.000 OA
ENDROOT
TORSDOF 0
ENDMDL
MODEL 4
REMARK VINA RESULT:      -4.7      2.431      3.473
REMARK  Name = Paraldehyde
REMARK  3 active torsions:
REMARK  status: ('A' for Active; 'I' for Inactive)
REMARK    1  A    between atoms: C_1  and  C_2
REMARK    2  A    between atoms: C_4  and  C_5
REMARK    3  A    between atoms: C_7  and  C_8
REMARK                            x       y       z     vdW  Elec       q    Type
REMARK                         _______ _______ _______ _____ _____    ______ ____
ROOT
ATOM      1  C   UNL     1     -10.670   7.362 127.368  0.00  0.00    +0.000 C 
ATOM      2  C   UNL     1     -10.501   8.349 128.525  0.00  0.00    +0.000 C 
ATOM      3  O   UNL     1     -11.660   8.410 129.346  0.00  0.00    +0.000 OA
ATOM      4  C   UNL     1     -11.774   7.240 130.138  0.00  0.00    +0.000 C 
ATOM      5  C   UNL     1     -12.994   7.369 131.032  0.00  0.00    +0.000 C 
ATOM      6  O   UNL     1     -10.619   7.055 130.941  0.00  0.00    +0.000 OA
ATOM      7  C   UNL     1      -9.483   6.945 130.096  0.00  0.00    +0.000 C 
ATOM      8  C   UNL     1      -8.244   6.775 130.957  0.00  0.00    +0.000 C 
ATOM      9  O   UNL     1      -9.327   8.098 129.287  0.00  0.00    +0.000 OA
ENDROOT
TORSDOF 0
ENDMDL
MODEL 5
REMARK VINA RESULT:      -4.5      3.035      3.902
REMARK  Name = Paraldehyde
REMARK  3 active torsions:
REMARK  status: ('A' for Active; 'I' for Inactive)
REMARK    1  A    between atoms: C_1  and  C_2
REMARK    2  A    between atoms: C_4  and  C_5
REMARK    3  A    between atoms: C_7  and  C_8
REMARK                            x       y       z     vdW  Elec       q    Type
REMARK                         _______ _______ _______ _____ _____    ______ ____
ROOT
ATOM      1  C   UNL     1     -11.150   4.993 130.495  0.00  0.00    +0.000 C 
ATOM      2  C   UNL     1     -10.976   6.414 131.035  0.00  0.00    +0.000 C 
ATOM      3  O   UNL     1      -9.687   6.614 131.599  0.00  0.00    +0.000 OA
ATOM      4  C   UNL     1      -8.704   6.699 130.583  0.00  0.00    +0.000 C 
ATOM      5  C   UNL     1      -7.354   6.961 131.226  0.00  0.00    +0.000 C 
ATOM      6  O   UNL     1      -9.002   7.744 129.672  0.00  0.00    +0.000 OA
ATOM      7  C   UNL     1     -10.269   7.493 129.082  0.00  0.00    +0.000 C 
ATOM      8  C   UNL     1     -10.602   8.627 128.128  0.00  0.00    +0.000 C 
ATOM      9  O   UNL     1     -11.288   7.406 130.065  0.00  0.00    +0.000 OA
ENDROOT
TORSDOF 0
ENDMDL
MODEL 6
REMARK VINA RESULT:      -4.3     11.824     13.002
REMARK  Name = Paraldehyde
REMARK  3 active torsions:
REMARK  status: ('A' for Active; 'I' for Inactive)
REMARK    1  A    between atoms: C_1  and  C_2
REMARK    2  A    between atoms: C_4  and  C_5
REMARK    3  A    between atoms: C_7  and  C_8
REMARK                            x       y       z     vdW  Elec       q    Type
REMARK                         _______ _______ _______ _____ _____    ______ ____
ROOT
ATOM      1  C   UNL     1      -9.286  -2.935 125.815  0.00  0.00    +0.000 C 
ATOM      2  C   UNL     1      -9.140  -3.351 124.350  0.00  0.00    +0.000 C 
ATOM      3  O   UNL     1      -9.810  -2.455 123.473  0.00  0.00    +0.000 OA
ATOM      4  C   UNL     1      -9.103  -1.232 123.371  0.00  0.00    +0.000 C 
ATOM      5  C   UNL     1      -9.825  -0.326 122.391  0.00  0.00    +0.000 C 
ATOM      6  O   UNL     1      -7.775  -1.448 122.923  0.00  0.00    +0.000 OA
ATOM      7  C   UNL     1      -7.111  -2.302 123.842  0.00  0.00    +0.000 C 
ATOM      8  C   UNL     1      -5.698  -2.556 123.347  0.00  0.00    +0.000 C 
ATOM      9  O   UNL     1      -7.783  -3.544 123.972  0.00  0.00    +0.000 OA
ENDROOT
TORSDOF 0
ENDMDL
MODEL 7
REMARK VINA RESULT:      -4.2     12.111     13.588
REMARK  Name = Paraldehyde
REMARK  3 active torsions:
REMARK  status: ('A' for Active; 'I' for Inactive)
REMARK    1  A    between atoms: C_1  and  C_2
REMARK    2  A    between atoms: C_4  and  C_5
REMARK    3  A    between atoms: C_7  and  C_8
REMARK                            x       y       z     vdW  Elec       q    Type
REMARK                         _______ _______ _______ _____ _____    ______ ____
ROOT
ATOM      1  C   UNL     1      -6.723  -0.113 123.923  0.00  0.00    +0.000 C 
ATOM      2  C   UNL     1      -6.814  -1.188 122.837  0.00  0.00    +0.000 C 
ATOM      3  O   UNL     1      -5.735  -2.110 122.909  0.00  0.00    +0.000 OA
ATOM      4  C   UNL     1      -5.891  -2.977 124.018  0.00  0.00    +0.000 C 
ATOM      5  C   UNL     1      -4.745  -3.973 124.027  0.00  0.00    +0.000 C 
ATOM      6  O   UNL     1      -7.122  -3.677 123.948  0.00  0.00    +0.000 OA
ATOM      7  C   UNL     1      -8.186  -2.737 123.931  0.00  0.00    +0.000 C 
ATOM      8  C   UNL     1      -9.504  -3.485 123.827  0.00  0.00    +0.000 C 
ATOM      9  O   UNL     1      -8.074  -1.849 122.831  0.00  0.00    +0.000 OA
ENDROOT
TORSDOF 0
ENDMDL
MODEL 8
REMARK VINA RESULT:      -4.1     10.831     12.337
REMARK  Name = Paraldehyde
REMARK  3 active torsions:
REMARK  status: ('A' for Active; 'I' for Inactive)
REMARK    1  A    between atoms: C_1  and  C_2
REMARK    2  A    between atoms: C_4  and  C_5
REMARK    3  A    between atoms: C_7  and  C_8
REMARK                            x       y       z     vdW  Elec       q    Type
REMARK                         _______ _______ _______ _____ _____    ______ ____
ROOT
ATOM      1  C   UNL     1      -9.564  -3.368 123.486  0.00  0.00    +0.000 C 
ATOM      2  C   UNL     1      -8.257  -3.170 124.257  0.00  0.00    +0.000 C 
ATOM      3  O   UNL     1      -7.948  -1.794 124.434  0.00  0.00    +0.000 OA
ATOM      4  C   UNL     1      -8.804  -1.209 125.400  0.00  0.00    +0.000 C 
ATOM      5  C   UNL     1      -8.407   0.244 125.593  0.00  0.00    +0.000 C 
ATOM      6  O   UNL     1      -8.713  -1.891 126.640  0.00  0.00    +0.000 OA
ATOM      7  C   UNL     1      -9.077  -3.249 126.448  0.00  0.00    +0.000 C 
ATOM      8  C   UNL     1      -8.952  -3.986 127.770  0.00  0.00    +0.000 C 
ATOM      9  O   UNL     1      -8.241  -3.878 125.490  0.00  0.00    +0.000 OA
ENDROOT
TORSDOF 0
ENDMDL
MODEL 9
REMARK VINA RESULT:      -4.1      2.933      4.435
REMARK  Name = Paraldehyde
REMARK  3 active torsions:
REMARK  status: ('A' for Active; 'I' for Inactive)
REMARK    1  A    between atoms: C_1  and  C_2
REMARK    2  A    between atoms: C_4  and  C_5
REMARK    3  A    between atoms: C_7  and  C_8
REMARK                            x       y       z     vdW  Elec       q    Type
REMARK                         _______ _______ _______ _____ _____    ______ ____
ROOT
ATOM      1  C   UNL     1     -11.926   7.860 130.072  0.00  0.00    +0.000 C 
ATOM      2  C   UNL     1     -10.982   7.039 129.192  0.00  0.00    +0.000 C 
ATOM      3  O   UNL     1      -9.616   7.312 129.477  0.00  0.00    +0.000 OA
ATOM      4  C   UNL     1      -9.238   6.734 130.714  0.00  0.00    +0.000 C 
ATOM      5  C   UNL     1      -7.765   7.008 130.955  0.00  0.00    +0.000 C 
ATOM      6  O   UNL     1      -9.463   5.334 130.713  0.00  0.00    +0.000 OA
ATOM      7  C   UNL     1     -10.842   5.089 130.479  0.00  0.00    +0.000 C 
ATOM      8  C   UNL     1     -11.077   3.588 130.449  0.00  0.00    +0.000 C 
ATOM      9  O   UNL     1     -11.264   5.646 129.245  0.00  0.00    +0.000 OA
ENDROOT
TORSDOF 0
ENDMDL
