MODEL 1
REMARK VINA RESULT:      -8.9      0.000      0.000
REMARK  Name = Paramethasone acetate
REMARK  10 active torsions:
REMARK  status: ('A' for Active; 'I' for Inactive)
REMARK    1  A    between atoms: C_4  and  C_5
REMARK    2  A    between atoms: C_6  and  O_7
REMARK    3  A    between atoms: C_6  and  C_8
REMARK    4  A    between atoms: C_8  and  C_10
REMARK    5  A    between atoms: C_10  and  O_11
REMARK    6  A    between atoms: O_11  and  C_12
REMARK    7  A    between atoms: C_12  and  C_13
REMARK    8  A    between atoms: C_15  and  C_16
REMARK    9  A    between atoms: C_18  and  O_19
REMARK   10  A    between atoms: C_33  and  C_34
REMARK                            x       y       z     vdW  Elec       q    Type
REMARK                         _______ _______ _______ _____ _____    ______ ____
ROOT
ATOM      1  C   UNL     1      -8.248   3.770 129.870  0.00  0.00    +0.000 C 
ATOM      2  C   UNL     1      -8.211   2.924 131.012  0.00  0.00    +0.000 C 
ATOM      3  C   UNL     1      -8.238   4.379 131.481  0.00  0.00    +0.000 C 
ATOM      4  C   UNL     1      -7.458   4.619 133.156  0.00  0.00    +0.000 C 
ATOM      5  C   UNL     1      -8.799   5.692 129.933  0.00  0.00    +0.000 C 
ATOM      6  C   UNL     1      -9.605   4.848 130.589  0.00  0.00    +0.000 C 
ATOM      7  C   UNL     1     -10.972   4.371 130.325  0.00  0.00    +0.000 C 
ATOM      8  C   UNL     1      -9.155   6.183 131.815  0.00  0.00    +0.000 C 
ATOM      9  C   UNL     1      -7.452   6.721 131.474  0.00  0.00    +0.000 C 
ATOM     10  C   UNL     1      -6.251   5.541 131.031  0.00  0.00    +0.000 C 
ATOM     11  C   UNL     1      -6.662   4.591 129.750  0.00  0.00    +0.000 C 
ATOM     12  C   UNL     1      -5.629   3.486 129.602  0.00  0.00    +0.000 C 
ATOM     13  C   UNL     1      -4.216   4.024 129.600  0.00  0.00    +0.000 C 
ATOM     14  F   UNL     1      -3.381   2.956 129.503  0.00  0.00    +0.000 F 
ATOM     15  C   UNL     1      -3.821   4.918 130.744  0.00  0.00    +0.000 C 
ATOM     16  C   UNL     1      -2.659   4.829 131.419  0.00  0.00    +0.000 C 
ATOM     17  C   UNL     1      -2.447   5.939 132.388  0.00  0.00    +0.000 C 
ATOM     18  O   UNL     1      -1.721   6.916 132.267  0.00  0.00    +0.000 OA
ATOM     19  C   UNL     1      -3.417   5.858 133.531  0.00  0.00    +0.000 C 
ATOM     20  C   UNL     1      -4.402   6.351 132.727  0.00  0.00    +0.000 C 
ATOM     21  C   UNL     1      -4.777   6.038 131.147  0.00  0.00    +0.000 C 
ATOM     22  C   UNL     1      -4.707   7.089 130.036  0.00  0.00    +0.000 C 
ENDROOT
BRANCH   5  23
ATOM     23  O   UNL     1      -8.975   5.243 128.468  0.00  0.00    +0.000 OA
ATOM     24  H   UNL     1      -8.626   4.370 128.238  0.00  0.00    +0.000 HD
ENDBRANCH   5  23
BRANCH   5  25
ATOM     25  C   UNL     1     -10.055   7.072 129.617  0.00  0.00    +0.000 C 
ATOM     26  O   UNL     1      -9.806   8.022 128.854  0.00  0.00    +0.000 OA
BRANCH  25  27
ATOM     27  C   UNL     1     -11.531   7.282 130.367  0.00  0.00    +0.000 C 
BRANCH  27  28
ATOM     28  O   UNL     1     -12.215   8.513 129.791  0.00  0.00    +0.000 OA
BRANCH  28  29
ATOM     29  C   UNL     1     -13.132   8.658 128.791  0.00  0.00    +0.000 C 
ATOM     30  C   UNL     1     -13.566   7.449 128.017  0.00  0.00    +0.000 C 
ATOM     31  O   UNL     1     -13.610   9.756 128.499  0.00  0.00    +0.000 OA
ENDBRANCH  28  29
ENDBRANCH  27  28
ENDBRANCH  25  27
ENDBRANCH   5  25
BRANCH   9  32
ATOM     32  O   UNL     1      -7.550   7.689 130.401  0.00  0.00    +0.000 OA
ATOM     33  H   UNL     1      -7.351   8.581 130.740  0.00  0.00    +0.000 HD
ENDBRANCH   9  32
TORSDOF 6
ENDMDL
MODEL 2
REMARK VINA RESULT:      -8.6      3.027      4.753
REMARK  Name = Paramethasone acetate
REMARK  10 active torsions:
REMARK  status: ('A' for Active; 'I' for Inactive)
REMARK    1  A    between atoms: C_4  and  C_5
REMARK    2  A    between atoms: C_6  and  O_7
REMARK    3  A    between atoms: C_6  and  C_8
REMARK    4  A    between atoms: C_8  and  C_10
REMARK    5  A    between atoms: C_10  and  O_11
REMARK    6  A    between atoms: O_11  and  C_12
REMARK    7  A    between atoms: C_12  and  C_13
REMARK    8  A    between atoms: C_15  and  C_16
REMARK    9  A    between atoms: C_18  and  O_19
REMARK   10  A    between atoms: C_33  and  C_34
REMARK                            x       y       z     vdW  Elec       q    Type
REMARK                         _______ _______ _______ _____ _____    ______ ____
ROOT
ATOM      1  C   UNL     1      -9.403   3.001 132.503  0.00  0.00    +0.000 C 
ATOM      2  C   UNL     1      -8.286   3.038 133.384  0.00  0.00    +0.000 C 
ATOM      3  C   UNL     1      -7.888   3.691 132.060  0.00  0.00    +0.000 C 
ATOM      4  C   UNL     1      -6.059   3.593 131.719  0.00  0.00    +0.000 C 
ATOM      5  C   UNL     1      -9.568   4.152 130.876  0.00  0.00    +0.000 C 
ATOM      6  C   UNL     1      -9.181   4.791 131.987  0.00  0.00    +0.000 C 
ATOM      7  C   UNL     1      -9.853   5.769 132.857  0.00  0.00    +0.000 C 
ATOM      8  C   UNL     1      -7.910   5.213 130.684  0.00  0.00    +0.000 C 
ATOM      9  C   UNL     1      -7.706   3.770 129.597  0.00  0.00    +0.000 C 
ATOM     10  C   UNL     1      -7.714   2.169 130.284  0.00  0.00    +0.000 C 
ATOM     11  C   UNL     1      -9.033   1.824 131.206  0.00  0.00    +0.000 C 
ATOM     12  C   UNL     1      -8.817   0.490 131.901  0.00  0.00    +0.000 C 
ATOM     13  C   UNL     1      -8.384  -0.590 130.936  0.00  0.00    +0.000 C 
ATOM     14  F   UNL     1      -8.182  -1.720 131.664  0.00  0.00    +0.000 F 
ATOM     15  C   UNL     1      -7.197  -0.292 130.060  0.00  0.00    +0.000 C 
ATOM     16  C   UNL     1      -6.185  -1.148 129.823  0.00  0.00    +0.000 C 
ATOM     17  C   UNL     1      -5.229  -0.669 128.789  0.00  0.00    +0.000 C 
ATOM     18  O   UNL     1      -5.138  -1.028 127.623  0.00  0.00    +0.000 OA
ATOM     19  C   UNL     1      -4.452   0.520 129.274  0.00  0.00    +0.000 C 
ATOM     20  C   UNL     1      -5.540   1.314 129.062  0.00  0.00    +0.000 C 
ATOM     21  C   UNL     1      -7.148   1.058 129.347  0.00  0.00    +0.000 C 
ATOM     22  C   UNL     1      -8.207   1.003 128.242  0.00  0.00    +0.000 C 
ENDROOT
BRANCH   5  23
ATOM     23  O   UNL     1     -11.001   3.708 131.235  0.00  0.00    +0.000 OA
ATOM     24  H   UNL     1     -11.091   2.851 131.674  0.00  0.00    +0.000 HD
ENDBRANCH   5  23
BRANCH   5  25
ATOM     25  C   UNL     1     -10.304   5.634 129.956  0.00  0.00    +0.000 C 
ATOM     26  O   UNL     1     -11.270   5.511 129.183  0.00  0.00    +0.000 OA
BRANCH  25  27
ATOM     27  C   UNL     1      -9.721   7.198 129.936  0.00  0.00    +0.000 C 
BRANCH  27  28
ATOM     28  O   UNL     1      -9.818   7.751 128.522  0.00  0.00    +0.000 OA
BRANCH  28  29
ATOM     29  C   UNL     1     -10.864   8.283 127.826  0.00  0.00    +0.000 C 
ATOM     30  C   UNL     1     -12.019   8.874 128.579  0.00  0.00    +0.000 C 
ATOM     31  O   UNL     1     -10.892   8.286 126.594  0.00  0.00    +0.000 OA
ENDBRANCH  28  29
ENDBRANCH  27  28
ENDBRANCH  25  27
ENDBRANCH   5  25
BRANCH   9  32
ATOM     32  O   UNL     1      -8.780   3.849 128.628  0.00  0.00    +0.000 OA
ATOM     33  H   UNL     1      -9.641   3.789 129.083  0.00  0.00    +0.000 HD
ENDBRANCH   9  32
TORSDOF 6
ENDMDL
MODEL 3
REMARK VINA RESULT:      -8.5      3.833      5.297
REMARK  Name = Paramethasone acetate
REMARK  10 active torsions:
REMARK  status: ('A' for Active; 'I' for Inactive)
REMARK    1  A    between atoms: C_4  and  C_5
REMARK    2  A    between atoms: C_6  and  O_7
REMARK    3  A    between atoms: C_6  and  C_8
REMARK    4  A    between atoms: C_8  and  C_10
REMARK    5  A    between atoms: C_10  and  O_11
REMARK    6  A    between atoms: O_11  and  C_12
REMARK    7  A    between atoms: C_12  and  C_13
REMARK    8  A    between atoms: C_15  and  C_16
REMARK    9  A    between atoms: C_18  and  O_19
REMARK   10  A    between atoms: C_33  and  C_34
REMARK                            x       y       z     vdW  Elec       q    Type
REMARK                         _______ _______ _______ _____ _____    ______ ____
ROOT
ATOM      1  C   UNL     1      -3.868   4.290 126.688  0.00  0.00    +0.000 C 
ATOM      2  C   UNL     1      -2.922   3.230 126.738  0.00  0.00    +0.000 C 
ATOM      3  C   UNL     1      -4.124   2.853 127.603  0.00  0.00    +0.000 C 
ATOM      4  C   UNL     1      -3.695   1.660 128.968  0.00  0.00    +0.000 C 
ATOM      5  C   UNL     1      -5.788   4.086 127.214  0.00  0.00    +0.000 C 
ATOM      6  C   UNL     1      -5.311   3.121 126.417  0.00  0.00    +0.000 C 
ATOM      7  C   UNL     1      -5.568   2.778 125.009  0.00  0.00    +0.000 C 
ATOM      8  C   UNL     1      -6.064   2.247 127.886  0.00  0.00    +0.000 C 
ATOM      9  C   UNL     1      -5.809   3.282 129.359  0.00  0.00    +0.000 C 
ATOM     10  C   UNL     1      -4.302   4.131 129.562  0.00  0.00    +0.000 C 
ATOM     11  C   UNL     1      -3.876   5.087 128.290  0.00  0.00    +0.000 C 
ATOM     12  C   UNL     1      -2.463   5.602 128.509  0.00  0.00    +0.000 C 
ATOM     13  C   UNL     1      -2.283   6.209 129.881  0.00  0.00    +0.000 C 
ATOM     14  F   UNL     1      -0.985   6.596 129.982  0.00  0.00    +0.000 F 
ATOM     15  C   UNL     1      -2.691   5.368 131.062  0.00  0.00    +0.000 C 
ATOM     16  C   UNL     1      -1.966   5.228 132.188  0.00  0.00    +0.000 C 
ATOM     17  C   UNL     1      -2.675   4.481 133.263  0.00  0.00    +0.000 C 
ATOM     18  O   UNL     1      -3.213   4.931 134.264  0.00  0.00    +0.000 OA
ATOM     19  C   UNL     1      -2.857   3.037 132.894  0.00  0.00    +0.000 C 
ATOM     20  C   UNL     1      -3.875   3.384 132.054  0.00  0.00    +0.000 C 
ATOM     21  C   UNL     1      -4.039   4.654 131.008  0.00  0.00    +0.000 C 
ATOM     22  C   UNL     1      -5.110   5.738 131.153  0.00  0.00    +0.000 C 
ENDROOT
BRANCH   5  23
ATOM     23  O   UNL     1      -5.723   5.328 126.302  0.00  0.00    +0.000 OA
ATOM     24  H   UNL     1      -5.308   6.119 126.676  0.00  0.00    +0.000 HD
ENDBRANCH   5  23
BRANCH   5  25
ATOM     25  C   UNL     1      -7.621   3.914 126.778  0.00  0.00    +0.000 C 
ATOM     26  O   UNL     1      -8.387   4.894 126.771  0.00  0.00    +0.000 OA
BRANCH  25  27
ATOM     27  C   UNL     1      -8.461   2.500 126.492  0.00  0.00    +0.000 C 
BRANCH  27  28
ATOM     28  O   UNL     1      -9.367   2.691 125.284  0.00  0.00    +0.000 OA
BRANCH  28  29
ATOM     29  C   UNL     1      -9.517   1.967 124.138  0.00  0.00    +0.000 C 
ATOM     30  C   UNL     1      -8.792   2.401 122.899  0.00  0.00    +0.000 C 
ATOM     31  O   UNL     1     -10.236   0.967 124.088  0.00  0.00    +0.000 OA
ENDBRANCH  28  29
ENDBRANCH  27  28
ENDBRANCH  25  27
ENDBRANCH   5  25
BRANCH   9  32
ATOM     32  O   UNL     1      -6.877   4.259 129.347  0.00  0.00    +0.000 OA
ATOM     33  H   UNL     1      -7.443   4.121 128.565  0.00  0.00    +0.000 HD
ENDBRANCH   9  32
TORSDOF 6
ENDMDL
MODEL 4
REMARK VINA RESULT:      -8.4      6.364      9.293
REMARK  Name = Paramethasone acetate
REMARK  10 active torsions:
REMARK  status: ('A' for Active; 'I' for Inactive)
REMARK    1  A    between atoms: C_4  and  C_5
REMARK    2  A    between atoms: C_6  and  O_7
REMARK    3  A    between atoms: C_6  and  C_8
REMARK    4  A    between atoms: C_8  and  C_10
REMARK    5  A    between atoms: C_10  and  O_11
REMARK    6  A    between atoms: O_11  and  C_12
REMARK    7  A    between atoms: C_12  and  C_13
REMARK    8  A    between atoms: C_15  and  C_16
REMARK    9  A    between atoms: C_18  and  O_19
REMARK   10  A    between atoms: C_33  and  C_34
REMARK                            x       y       z     vdW  Elec       q    Type
REMARK                         _______ _______ _______ _____ _____    ______ ____
ROOT
ATOM      1  C   UNL     1      -6.495  -3.366 131.272  0.00  0.00    +0.000 C 
ATOM      2  C   UNL     1      -5.710  -4.458 130.809  0.00  0.00    +0.000 C 
ATOM      3  C   UNL     1      -5.034  -3.155 130.384  0.00  0.00    +0.000 C 
ATOM      4  C   UNL     1      -3.980  -3.344 128.860  0.00  0.00    +0.000 C 
ATOM      5  C   UNL     1      -5.805  -1.494 131.426  0.00  0.00    +0.000 C 
ATOM      6  C   UNL     1      -4.999  -2.440 131.925  0.00  0.00    +0.000 C 
ATOM      7  C   UNL     1      -4.612  -2.791 133.301  0.00  0.00    +0.000 C 
ATOM      8  C   UNL     1      -3.952  -1.448 130.739  0.00  0.00    +0.000 C 
ATOM      9  C   UNL     1      -5.007  -0.906 129.361  0.00  0.00    +0.000 C 
ATOM     10  C   UNL     1      -6.211  -1.991 128.722  0.00  0.00    +0.000 C 
ATOM     11  C   UNL     1      -7.253  -2.598 129.844  0.00  0.00    +0.000 C 
ATOM     12  C   UNL     1      -8.108  -3.673 129.195  0.00  0.00    +0.000 C 
ATOM     13  C   UNL     1      -8.731  -3.201 127.901  0.00  0.00    +0.000 C 
ATOM     14  F   UNL     1      -9.435  -4.245 127.391  0.00  0.00    +0.000 F 
ATOM     15  C   UNL     1      -7.806  -2.616 126.868  0.00  0.00    +0.000 C 
ATOM     16  C   UNL     1      -7.847  -2.903 125.553  0.00  0.00    +0.000 C 
ATOM     17  C   UNL     1      -6.937  -2.061 124.731  0.00  0.00    +0.000 C 
ATOM     18  O   UNL     1      -7.228  -1.111 124.018  0.00  0.00    +0.000 OA
ATOM     19  C   UNL     1      -5.497  -2.375 125.017  0.00  0.00    +0.000 C 
ATOM     20  C   UNL     1      -5.579  -1.671 126.183  0.00  0.00    +0.000 C 
ATOM     21  C   UNL     1      -6.772  -1.589 127.324  0.00  0.00    +0.000 C 
ATOM     22  C   UNL     1      -7.548  -0.309 127.649  0.00  0.00    +0.000 C 
ENDROOT
BRANCH   5  23
ATOM     23  O   UNL     1      -7.029  -1.579 132.361  0.00  0.00    +0.000 OA
ATOM     24  H   UNL     1      -7.311  -2.466 132.626  0.00  0.00    +0.000 HD
ENDBRANCH   5  23
BRANCH   5  25
ATOM     25  C   UNL     1      -5.176  -0.035 132.453  0.00  0.00    +0.000 C 
ATOM     26  O   UNL     1      -4.063   0.481 132.245  0.00  0.00    +0.000 OA
BRANCH  25  27
ATOM     27  C   UNL     1      -5.906   0.646 133.790  0.00  0.00    +0.000 C 
BRANCH  27  28
ATOM     28  O   UNL     1      -7.357   0.966 133.461  0.00  0.00    +0.000 OA
BRANCH  28  29
ATOM     29  C   UNL     1      -7.916   1.905 132.645  0.00  0.00    +0.000 C 
ATOM     30  C   UNL     1      -9.032   2.758 133.169  0.00  0.00    +0.000 C 
ATOM     31  O   UNL     1      -7.534   2.071 131.484  0.00  0.00    +0.000 OA
ENDBRANCH  28  29
ENDBRANCH  27  28
ENDBRANCH  25  27
ENDBRANCH   5  25
BRANCH   9  32
ATOM     32  O   UNL     1      -5.680   0.290 129.824  0.00  0.00    +0.000 OA
ATOM     33  H   UNL     1      -5.431   1.047 129.263  0.00  0.00    +0.000 HD
ENDBRANCH   9  32
TORSDOF 6
ENDMDL
MODEL 5
REMARK VINA RESULT:      -8.4      6.140      9.383
REMARK  Name = Paramethasone acetate
REMARK  10 active torsions:
REMARK  status: ('A' for Active; 'I' for Inactive)
REMARK    1  A    between atoms: C_4  and  C_5
REMARK    2  A    between atoms: C_6  and  O_7
REMARK    3  A    between atoms: C_6  and  C_8
REMARK    4  A    between atoms: C_8  and  C_10
REMARK    5  A    between atoms: C_10  and  O_11
REMARK    6  A    between atoms: O_11  and  C_12
REMARK    7  A    between atoms: C_12  and  C_13
REMARK    8  A    between atoms: C_15  and  C_16
REMARK    9  A    between atoms: C_18  and  O_19
REMARK   10  A    between atoms: C_33  and  C_34
REMARK                            x       y       z     vdW  Elec       q    Type
REMARK                         _______ _______ _______ _____ _____    ______ ____
ROOT
ATOM      1  C   UNL     1      -6.644  -2.632 131.094  0.00  0.00    +0.000 C 
ATOM      2  C   UNL     1      -5.763  -3.725 130.862  0.00  0.00    +0.000 C 
ATOM      3  C   UNL     1      -5.217  -2.494 130.138  0.00  0.00    +0.000 C 
ATOM      4  C   UNL     1      -4.165  -2.924 128.662  0.00  0.00    +0.000 C 
ATOM      5  C   UNL     1      -6.133  -0.720 130.807  0.00  0.00    +0.000 C 
ATOM      6  C   UNL     1      -5.237  -1.452 131.480  0.00  0.00    +0.000 C 
ATOM      7  C   UNL     1      -4.805  -1.450 132.887  0.00  0.00    +0.000 C 
ATOM      8  C   UNL     1      -4.299  -0.661 130.071  0.00  0.00    +0.000 C 
ATOM      9  C   UNL     1      -5.414  -0.539 128.640  0.00  0.00    +0.000 C 
ATOM     10  C   UNL     1      -6.515  -1.844 128.295  0.00  0.00    +0.000 C 
ATOM     11  C   UNL     1      -7.484  -2.276 129.555  0.00  0.00    +0.000 C 
ATOM     12  C   UNL     1      -8.240  -3.542 129.187  0.00  0.00    +0.000 C 
ATOM     13  C   UNL     1      -8.917  -3.430 127.840  0.00  0.00    +0.000 C 
ATOM     14  F   UNL     1      -9.523  -4.621 127.597  0.00  0.00    +0.000 F 
ATOM     15  C   UNL     1      -8.061  -3.010 126.676  0.00  0.00    +0.000 C 
ATOM     16  C   UNL     1      -8.087  -3.588 125.459  0.00  0.00    +0.000 C 
ATOM     17  C   UNL     1      -7.268  -2.872 124.443  0.00  0.00    +0.000 C 
ATOM     18  O   UNL     1      -7.655  -2.136 123.546  0.00  0.00    +0.000 OA
ATOM     19  C   UNL     1      -5.802  -2.982 124.748  0.00  0.00    +0.000 C 
ATOM     20  C   UNL     1      -5.940  -2.045 125.730  0.00  0.00    +0.000 C 
ATOM     21  C   UNL     1      -7.125  -1.818 126.860  0.00  0.00    +0.000 C 
ATOM     22  C   UNL     1      -8.016  -0.573 126.916  0.00  0.00    +0.000 C 
ENDROOT
BRANCH   5  23
ATOM     23  O   UNL     1      -7.335  -0.703 131.774  0.00  0.00    +0.000 OA
ATOM     24  H   UNL     1      -7.964  -1.435 131.696  0.00  0.00    +0.000 HD
ENDBRANCH   5  23
BRANCH   5  25
ATOM     25  C   UNL     1      -5.635   0.984 131.465  0.00  0.00    +0.000 C 
ATOM     26  O   UNL     1      -6.483   1.830 131.799  0.00  0.00    +0.000 OA
BRANCH  25  27
ATOM     27  C   UNL     1      -4.094   1.617 131.558  0.00  0.00    +0.000 C 
BRANCH  27  28
ATOM     28  O   UNL     1      -4.084   3.006 130.936  0.00  0.00    +0.000 OA
BRANCH  28  29
ATOM     29  C   UNL     1      -3.836   3.428 129.663  0.00  0.00    +0.000 C 
ATOM     30  C   UNL     1      -2.991   4.647 129.448  0.00  0.00    +0.000 C 
ATOM     31  O   UNL     1      -4.294   2.839 128.681  0.00  0.00    +0.000 OA
ENDBRANCH  28  29
ENDBRANCH  27  28
ENDBRANCH  25  27
ENDBRANCH   5  25
BRANCH   9  32
ATOM     32  O   UNL     1      -6.193   0.664 128.846  0.00  0.00    +0.000 OA
ATOM     33  H   UNL     1      -6.150   1.226 128.051  0.00  0.00    +0.000 HD
ENDBRANCH   9  32
TORSDOF 6
ENDMDL
MODEL 6
REMARK VINA RESULT:      -8.3      4.658      7.653
REMARK  Name = Paramethasone acetate
REMARK  10 active torsions:
REMARK  status: ('A' for Active; 'I' for Inactive)
REMARK    1  A    between atoms: C_4  and  C_5
REMARK    2  A    between atoms: C_6  and  O_7
REMARK    3  A    between atoms: C_6  and  C_8
REMARK    4  A    between atoms: C_8  and  C_10
REMARK    5  A    between atoms: C_10  and  O_11
REMARK    6  A    between atoms: O_11  and  C_12
REMARK    7  A    between atoms: C_12  and  C_13
REMARK    8  A    between atoms: C_15  and  C_16
REMARK    9  A    between atoms: C_18  and  O_19
REMARK   10  A    between atoms: C_33  and  C_34
REMARK                            x       y       z     vdW  Elec       q    Type
REMARK                         _______ _______ _______ _____ _____    ______ ____
ROOT
ATOM      1  C   UNL     1      -4.851   1.519 127.359  0.00  0.00    +0.000 C 
ATOM      2  C   UNL     1      -4.183   2.159 126.277  0.00  0.00    +0.000 C 
ATOM      3  C   UNL     1      -5.460   2.937 126.593  0.00  0.00    +0.000 C 
ATOM      4  C   UNL     1      -6.127   3.870 125.125  0.00  0.00    +0.000 C 
ATOM      5  C   UNL     1      -6.262   2.404 128.467  0.00  0.00    +0.000 C 
ATOM      6  C   UNL     1      -5.163   3.138 128.254  0.00  0.00    +0.000 C 
ATOM      7  C   UNL     1      -4.069   3.571 129.139  0.00  0.00    +0.000 C 
ATOM      8  C   UNL     1      -6.603   4.206 127.730  0.00  0.00    +0.000 C 
ATOM      9  C   UNL     1      -7.886   3.129 127.024  0.00  0.00    +0.000 C 
ATOM     10  C   UNL     1      -7.421   1.784 126.019  0.00  0.00    +0.000 C 
ATOM     11  C   UNL     1      -6.333   0.757 126.706  0.00  0.00    +0.000 C 
ATOM     12  C   UNL     1      -5.866  -0.241 125.661  0.00  0.00    +0.000 C 
ATOM     13  C   UNL     1      -7.023  -0.892 124.937  0.00  0.00    +0.000 C 
ATOM     14  F   UNL     1      -6.494  -1.728 124.006  0.00  0.00    +0.000 F 
ATOM     15  C   UNL     1      -8.048   0.023 124.322  0.00  0.00    +0.000 C 
ATOM     16  C   UNL     1      -8.567  -0.128 123.089  0.00  0.00    +0.000 C 
ATOM     17  C   UNL     1      -9.683   0.811 122.794  0.00  0.00    +0.000 C 
ATOM     18  O   UNL     1     -10.883   0.575 122.780  0.00  0.00    +0.000 OA
ATOM     19  C   UNL     1      -9.193   2.227 122.695  0.00  0.00    +0.000 C 
ATOM     20  C   UNL     1      -9.106   2.288 124.055  0.00  0.00    +0.000 C 
ATOM     21  C   UNL     1      -8.578   1.182 125.163  0.00  0.00    +0.000 C 
ATOM     22  C   UNL     1      -9.477   0.562 126.237  0.00  0.00    +0.000 C 
ENDROOT
BRANCH   5  23
ATOM     23  O   UNL     1      -5.717   1.237 129.317  0.00  0.00    +0.000 OA
ATOM     24  H   UNL     1      -6.371   0.619 129.673  0.00  0.00    +0.000 HD
ENDBRANCH   5  23
BRANCH   5  25
ATOM     25  C   UNL     1      -6.838   3.240 130.064  0.00  0.00    +0.000 C 
ATOM     26  O   UNL     1      -7.335   2.591 131.001  0.00  0.00    +0.000 OA
BRANCH  25  27
ATOM     27  C   UNL     1      -6.893   4.878 130.380  0.00  0.00    +0.000 C 
BRANCH  27  28
ATOM     28  O   UNL     1      -8.322   5.275 130.722  0.00  0.00    +0.000 OA
BRANCH  28  29
ATOM     29  C   UNL     1      -9.338   5.762 129.952  0.00  0.00    +0.000 C 
ATOM     30  C   UNL     1      -9.641   7.230 129.986  0.00  0.00    +0.000 C 
ATOM     31  O   UNL     1     -10.019   5.029 129.232  0.00  0.00    +0.000 OA
ENDBRANCH  28  29
ENDBRANCH  27  28
ENDBRANCH  25  27
ENDBRANCH   5  25
BRANCH   9  32
ATOM     32  O   UNL     1      -8.633   2.610 128.152  0.00  0.00    +0.000 OA
ATOM     33  H   UNL     1      -9.565   2.480 127.899  0.00  0.00    +0.000 HD
ENDBRANCH   9  32
TORSDOF 6
ENDMDL
MODEL 7
REMARK VINA RESULT:      -8.1      5.024      7.611
REMARK  Name = Paramethasone acetate
REMARK  10 active torsions:
REMARK  status: ('A' for Active; 'I' for Inactive)
REMARK    1  A    between atoms: C_4  and  C_5
REMARK    2  A    between atoms: C_6  and  O_7
REMARK    3  A    between atoms: C_6  and  C_8
REMARK    4  A    between atoms: C_8  and  C_10
REMARK    5  A    between atoms: C_10  and  O_11
REMARK    6  A    between atoms: O_11  and  C_12
REMARK    7  A    between atoms: C_12  and  C_13
REMARK    8  A    between atoms: C_15  and  C_16
REMARK    9  A    between atoms: C_18  and  O_19
REMARK   10  A    between atoms: C_33  and  C_34
REMARK                            x       y       z     vdW  Elec       q    Type
REMARK                         _______ _______ _______ _____ _____    ______ ____
ROOT
ATOM      1  C   UNL     1      -6.759   0.644 129.253  0.00  0.00    +0.000 C 
ATOM      2  C   UNL     1      -5.428   0.197 129.028  0.00  0.00    +0.000 C 
ATOM      3  C   UNL     1      -5.799   1.198 127.934  0.00  0.00    +0.000 C 
ATOM      4  C   UNL     1      -4.847   0.936 126.354  0.00  0.00    +0.000 C 
ATOM      5  C   UNL     1      -7.523   2.300 128.431  0.00  0.00    +0.000 C 
ATOM      6  C   UNL     1      -6.307   2.443 128.972  0.00  0.00    +0.000 C 
ATOM      7  C   UNL     1      -5.828   3.151 130.170  0.00  0.00    +0.000 C 
ATOM      8  C   UNL     1      -6.170   3.086 127.223  0.00  0.00    +0.000 C 
ATOM      9  C   UNL     1      -7.269   2.098 126.164  0.00  0.00    +0.000 C 
ATOM     10  C   UNL     1      -7.399   0.381 126.426  0.00  0.00    +0.000 C 
ATOM     11  C   UNL     1      -7.790  -0.051 127.966  0.00  0.00    +0.000 C 
ATOM     12  C   UNL     1      -7.671  -1.559 128.103  0.00  0.00    +0.000 C 
ATOM     13  C   UNL     1      -8.407  -2.291 127.004  0.00  0.00    +0.000 C 
ATOM     14  F   UNL     1      -8.202  -3.620 127.200  0.00  0.00    +0.000 F 
ATOM     15  C   UNL     1      -8.090  -1.898 125.586  0.00  0.00    +0.000 C 
ATOM     16  C   UNL     1      -7.883  -2.767 124.578  0.00  0.00    +0.000 C 
ATOM     17  C   UNL     1      -7.758  -2.115 123.247  0.00  0.00    +0.000 C 
ATOM     18  O   UNL     1      -8.593  -2.056 122.355  0.00  0.00    +0.000 OA
ATOM     19  C   UNL     1      -6.496  -1.307 123.152  0.00  0.00    +0.000 C 
ATOM     20  C   UNL     1      -7.070  -0.328 123.908  0.00  0.00    +0.000 C 
ATOM     21  C   UNL     1      -8.039  -0.411 125.244  0.00  0.00    +0.000 C 
ATOM     22  C   UNL     1      -9.486   0.090 125.274  0.00  0.00    +0.000 C 
ENDROOT
BRANCH   5  23
ATOM     23  O   UNL     1      -8.396   1.991 129.665  0.00  0.00    +0.000 OA
ATOM     24  H   UNL     1      -8.211   2.503 130.465  0.00  0.00    +0.000 HD
ENDBRANCH   5  23
BRANCH   5  25
ATOM     25  C   UNL     1      -8.081   4.105 128.542  0.00  0.00    +0.000 C 
ATOM     26  O   UNL     1      -7.862   4.916 127.625  0.00  0.00    +0.000 OA
BRANCH  25  27
ATOM     27  C   UNL     1      -8.779   4.865 129.854  0.00  0.00    +0.000 C 
BRANCH  27  28
ATOM     28  O   UNL     1     -10.282   4.624 129.832  0.00  0.00    +0.000 OA
BRANCH  28  29
ATOM     29  C   UNL     1     -11.338   5.453 130.076  0.00  0.00    +0.000 C 
ATOM     30  C   UNL     1     -11.408   6.181 131.384  0.00  0.00    +0.000 C 
ATOM     31  O   UNL     1     -12.241   5.617 129.253  0.00  0.00    +0.000 OA
ENDBRANCH  28  29
ENDBRANCH  27  28
ENDBRANCH  25  27
ENDBRANCH   5  25
BRANCH   9  32
ATOM     32  O   UNL     1      -8.588   2.676 126.312  0.00  0.00    +0.000 OA
ATOM     33  H   UNL     1      -8.539   3.644 126.200  0.00  0.00    +0.000 HD
ENDBRANCH   9  32
TORSDOF 6
ENDMDL
MODEL 8
REMARK VINA RESULT:      -8.0      6.854      8.529
REMARK  Name = Paramethasone acetate
REMARK  10 active torsions:
REMARK  status: ('A' for Active; 'I' for Inactive)
REMARK    1  A    between atoms: C_4  and  C_5
REMARK    2  A    between atoms: C_6  and  O_7
REMARK    3  A    between atoms: C_6  and  C_8
REMARK    4  A    between atoms: C_8  and  C_10
REMARK    5  A    between atoms: C_10  and  O_11
REMARK    6  A    between atoms: O_11  and  C_12
REMARK    7  A    between atoms: C_12  and  C_13
REMARK    8  A    between atoms: C_15  and  C_16
REMARK    9  A    between atoms: C_18  and  O_19
REMARK   10  A    between atoms: C_33  and  C_34
REMARK                            x       y       z     vdW  Elec       q    Type
REMARK                         _______ _______ _______ _____ _____    ______ ____
ROOT
ATOM      1  C   UNL     1      -7.176  -2.994 128.414  0.00  0.00    +0.000 C 
ATOM      2  C   UNL     1      -8.386  -2.976 129.162  0.00  0.00    +0.000 C 
ATOM      3  C   UNL     1      -7.674  -1.637 129.350  0.00  0.00    +0.000 C 
ATOM      4  C   UNL     1      -8.103  -0.803 130.960  0.00  0.00    +0.000 C 
ATOM      5  C   UNL     1      -6.157  -1.346 127.918  0.00  0.00    +0.000 C 
ATOM      6  C   UNL     1      -7.477  -1.285 127.700  0.00  0.00    +0.000 C 
ATOM      7  C   UNL     1      -8.281  -1.267 126.468  0.00  0.00    +0.000 C 
ATOM      8  C   UNL     1      -7.057   0.218 128.726  0.00  0.00    +0.000 C 
ATOM      9  C   UNL     1      -5.712  -0.226 129.866  0.00  0.00    +0.000 C 
ATOM     10  C   UNL     1      -5.710  -1.795 130.623  0.00  0.00    +0.000 C 
ATOM     11  C   UNL     1      -5.819  -3.062 129.578  0.00  0.00    +0.000 C 
ATOM     12  C   UNL     1      -6.011  -4.343 130.371  0.00  0.00    +0.000 C 
ATOM     13  C   UNL     1      -4.992  -4.486 131.479  0.00  0.00    +0.000 C 
ATOM     14  F   UNL     1      -5.280  -5.636 132.143  0.00  0.00    +0.000 F 
ATOM     15  C   UNL     1      -4.851  -3.330 132.433  0.00  0.00    +0.000 C 
ATOM     16  C   UNL     1      -4.761  -3.450 133.772  0.00  0.00    +0.000 C 
ATOM     17  C   UNL     1      -4.457  -2.168 134.465  0.00  0.00    +0.000 C 
ATOM     18  O   UNL     1      -3.389  -1.798 134.930  0.00  0.00    +0.000 OA
ATOM     19  C   UNL     1      -5.610  -1.211 134.369  0.00  0.00    +0.000 C 
ATOM     20  C   UNL     1      -5.270  -0.936 133.077  0.00  0.00    +0.000 C 
ATOM     21  C   UNL     1      -4.758  -1.922 131.853  0.00  0.00    +0.000 C 
ATOM     22  C   UNL     1      -3.378  -1.813 131.198  0.00  0.00    +0.000 C 
ENDROOT
BRANCH   5  23
ATOM     23  O   UNL     1      -5.711  -2.441 126.927  0.00  0.00    +0.000 OA
ATOM     24  H   UNL     1      -6.395  -2.803 126.346  0.00  0.00    +0.000 HD
ENDBRANCH   5  23
BRANCH   5  25
ATOM     25  C   UNL     1      -5.616  -0.044 126.655  0.00  0.00    +0.000 C 
ATOM     26  O   UNL     1      -4.964  -0.347 125.641  0.00  0.00    +0.000 OA
BRANCH  25  27
ATOM     27  C   UNL     1      -5.799   1.611 126.774  0.00  0.00    +0.000 C 
BRANCH  27  28
ATOM     28  O   UNL     1      -4.472   2.233 127.186  0.00  0.00    +0.000 OA
BRANCH  28  29
ATOM     29  C   UNL     1      -3.634   3.094 126.539  0.00  0.00    +0.000 C 
ATOM     30  C   UNL     1      -2.162   3.028 126.817  0.00  0.00    +0.000 C 
ATOM     31  O   UNL     1      -4.052   3.930 125.735  0.00  0.00    +0.000 OA
ENDBRANCH  28  29
ENDBRANCH  27  28
ENDBRANCH  25  27
ENDBRANCH   5  25
BRANCH   9  32
ATOM     32  O   UNL     1      -4.487  -0.094 129.104  0.00  0.00    +0.000 OA
ATOM     33  H   UNL     1      -3.719  -0.136 129.702  0.00  0.00    +0.000 HD
ENDBRANCH   9  32
TORSDOF 6
ENDMDL
MODEL 9
REMARK VINA RESULT:      -8.0      3.943      7.458
REMARK  Name = Paramethasone acetate
REMARK  10 active torsions:
REMARK  status: ('A' for Active; 'I' for Inactive)
REMARK    1  A    between atoms: C_4  and  C_5
REMARK    2  A    between atoms: C_6  and  O_7
REMARK    3  A    between atoms: C_6  and  C_8
REMARK    4  A    between atoms: C_8  and  C_10
REMARK    5  A    between atoms: C_10  and  O_11
REMARK    6  A    between atoms: O_11  and  C_12
REMARK    7  A    between atoms: C_12  and  C_13
REMARK    8  A    between atoms: C_15  and  C_16
REMARK    9  A    between atoms: C_18  and  O_19
REMARK   10  A    between atoms: C_33  and  C_34
REMARK                            x       y       z     vdW  Elec       q    Type
REMARK                         _______ _______ _______ _____ _____    ______ ____
ROOT
ATOM      1  C   UNL     1      -6.052   3.086 133.035  0.00  0.00    +0.000 C 
ATOM      2  C   UNL     1      -6.833   3.506 134.147  0.00  0.00    +0.000 C 
ATOM      3  C   UNL     1      -7.704   2.639 133.237  0.00  0.00    +0.000 C 
ATOM      4  C   UNL     1      -9.520   3.029 133.379  0.00  0.00    +0.000 C 
ATOM      5  C   UNL     1      -6.550   1.554 131.849  0.00  0.00    +0.000 C 
ATOM      6  C   UNL     1      -6.647   1.311 133.162  0.00  0.00    +0.000 C 
ATOM      7  C   UNL     1      -5.864   0.465 134.077  0.00  0.00    +0.000 C 
ATOM      8  C   UNL     1      -8.303   0.850 132.432  0.00  0.00    +0.000 C 
ATOM      9  C   UNL     1      -8.655   1.983 131.053  0.00  0.00    +0.000 C 
ATOM     10  C   UNL     1      -8.233   3.667 131.196  0.00  0.00    +0.000 C 
ATOM     11  C   UNL     1      -6.659   3.949 131.589  0.00  0.00    +0.000 C 
ATOM     12  C   UNL     1      -6.478   5.430 131.878  0.00  0.00    +0.000 C 
ATOM     13  C   UNL     1      -7.053   6.299 130.783  0.00  0.00    +0.000 C 
ATOM     14  F   UNL     1      -6.874   7.591 131.161  0.00  0.00    +0.000 F 
ATOM     15  C   UNL     1      -8.481   6.044 130.384  0.00  0.00    +0.000 C 
ATOM     16  C   UNL     1      -9.401   7.005 130.175  0.00  0.00    +0.000 C 
ATOM     17  C   UNL     1     -10.685   6.492 129.625  0.00  0.00    +0.000 C 
ATOM     18  O   UNL     1     -11.090   6.557 128.473  0.00  0.00    +0.000 OA
ATOM     19  C   UNL     1     -11.414   5.653 130.634  0.00  0.00    +0.000 C 
ATOM     20  C   UNL     1     -10.555   4.622 130.393  0.00  0.00    +0.000 C 
ATOM     21  C   UNL     1      -8.920   4.600 130.152  0.00  0.00    +0.000 C 
ATOM     22  C   UNL     1      -8.261   4.152 128.844  0.00  0.00    +0.000 C 
ENDROOT
BRANCH   5  23
ATOM     23  O   UNL     1      -5.033   1.764 131.665  0.00  0.00    +0.000 OA
ATOM     24  H   UNL     1      -4.721   2.681 131.655  0.00  0.00    +0.000 HD
ENDBRANCH   5  23
BRANCH   5  25
ATOM     25  C   UNL     1      -6.330  -0.231 131.260  0.00  0.00    +0.000 C 
ATOM     26  O   UNL     1      -5.505  -0.534 130.381  0.00  0.00    +0.000 OA
BRANCH  25  27
ATOM     27  C   UNL     1      -7.244  -1.557 131.701  0.00  0.00    +0.000 C 
BRANCH  27  28
ATOM     28  O   UNL     1      -7.940  -2.117 130.469  0.00  0.00    +0.000 OA
BRANCH  28  29
ATOM     29  C   UNL     1      -7.703  -3.235 129.723  0.00  0.00    +0.000 C 
ATOM     30  C   UNL     1      -6.474  -4.049 129.995  0.00  0.00    +0.000 C 
ATOM     31  O   UNL     1      -8.469  -3.593 128.825  0.00  0.00    +0.000 OA
ENDBRANCH  28  29
ENDBRANCH  27  28
ENDBRANCH  25  27
ENDBRANCH   5  25
BRANCH   9  32
ATOM     32  O   UNL     1      -7.957   1.440 129.906  0.00  0.00    +0.000 OA
ATOM     33  H   UNL     1      -7.634   2.166 129.341  0.00  0.00    +0.000 HD
ENDBRANCH   9  32
TORSDOF 6
ENDMDL
