MODEL 1
REMARK VINA RESULT:      -5.5      0.000      0.000
REMARK  Name = Paramethadione
REMARK  4 active torsions:
REMARK  status: ('A' for Active; 'I' for Inactive)
REMARK    1  A    between atoms: C_1  and  C_2
REMARK    2  A    between atoms: C_2  and  C_3
REMARK    3  A    between atoms: C_3  and  C_4
REMARK    4  A    between atoms: N_8  and  C_9
REMARK                            x       y       z     vdW  Elec       q    Type
REMARK                         _______ _______ _______ _____ _____    ______ ____
ROOT
ATOM      1  C   UNL     1     -12.551   8.502 129.496  0.00  0.00    +0.000 C 
ATOM      2  C   UNL     1     -13.401   7.941 128.361  0.00  0.00    +0.000 C 
ATOM      3  O   UNL     1     -11.201   8.522 129.012  0.00  0.00    +0.000 OA
ATOM      4  C   UNL     1     -10.577   7.396 129.472  0.00  0.00    +0.000 C 
ATOM      5  O   UNL     1      -9.576   6.927 128.950  0.00  0.00    +0.000 OA
ATOM      6  N   UNL     1     -11.235   6.908 130.543  0.00  0.00    +0.000 N 
ATOM      7  C   UNL     1     -10.753   5.868 131.424  0.00  0.00    +0.000 C 
ATOM      8  C   UNL     1     -12.434   7.535 130.662  0.00  0.00    +0.000 C 
ATOM      9  O   UNL     1     -13.280   7.331 131.519  0.00  0.00    +0.000 OA
ENDROOT
BRANCH   1  11
ATOM     10  C   UNL     1     -13.875  10.584 128.831  0.00  0.00    +0.000 C 
ATOM     11  C   UNL     1     -13.097   9.872 129.920  0.00  0.00    +0.000 C 
ENDBRANCH   1  11
TORSDOF 1
ENDMDL
MODEL 2
REMARK VINA RESULT:      -5.4      1.479      2.826
REMARK  Name = Paramethadione
REMARK  4 active torsions:
REMARK  status: ('A' for Active; 'I' for Inactive)
REMARK    1  A    between atoms: C_1  and  C_2
REMARK    2  A    between atoms: C_2  and  C_3
REMARK    3  A    between atoms: C_3  and  C_4
REMARK    4  A    between atoms: N_8  and  C_9
REMARK                            x       y       z     vdW  Elec       q    Type
REMARK                         _______ _______ _______ _____ _____    ______ ____
ROOT
ATOM      1  C   UNL     1     -12.087   7.356 129.625  0.00  0.00    +0.000 C 
ATOM      2  C   UNL     1     -12.656   8.730 129.966  0.00  0.00    +0.000 C 
ATOM      3  O   UNL     1     -12.140   6.591 130.837  0.00  0.00    +0.000 OA
ATOM      4  C   UNL     1     -10.904   6.650 131.420  0.00  0.00    +0.000 C 
ATOM      5  O   UNL     1     -10.716   6.436 132.609  0.00  0.00    +0.000 OA
ATOM      6  N   UNL     1      -9.976   6.984 130.501  0.00  0.00    +0.000 N 
ATOM      7  C   UNL     1      -8.543   6.927 130.694  0.00  0.00    +0.000 C 
ATOM      8  C   UNL     1     -10.591   7.399 129.364  0.00  0.00    +0.000 C 
ATOM      9  O   UNL     1     -10.048   7.777 128.338  0.00  0.00    +0.000 OA
ENDROOT
BRANCH   1  11
ATOM     10  C   UNL     1     -13.767   7.743 127.738  0.00  0.00    +0.000 C 
ATOM     11  C   UNL     1     -12.873   6.751 128.454  0.00  0.00    +0.000 C 
ENDBRANCH   1  11
TORSDOF 1
ENDMDL
MODEL 3
REMARK VINA RESULT:      -5.1      1.567      4.335
REMARK  Name = Paramethadione
REMARK  4 active torsions:
REMARK  status: ('A' for Active; 'I' for Inactive)
REMARK    1  A    between atoms: C_1  and  C_2
REMARK    2  A    between atoms: C_2  and  C_3
REMARK    3  A    between atoms: C_3  and  C_4
REMARK    4  A    between atoms: N_8  and  C_9
REMARK                            x       y       z     vdW  Elec       q    Type
REMARK                         _______ _______ _______ _____ _____    ______ ____
ROOT
ATOM      1  C   UNL     1     -10.039   6.564 130.563  0.00  0.00    +0.000 C 
ATOM      2  C   UNL     1     -10.135   5.147 130.006  0.00  0.00    +0.000 C 
ATOM      3  O   UNL     1     -11.027   6.654 131.599  0.00  0.00    +0.000 OA
ATOM      4  C   UNL     1     -12.141   7.237 131.062  0.00  0.00    +0.000 C 
ATOM      5  O   UNL     1     -13.257   7.118 131.549  0.00  0.00    +0.000 OA
ATOM      6  N   UNL     1     -11.813   7.922 129.949  0.00  0.00    +0.000 N 
ATOM      7  C   UNL     1     -12.677   8.842 129.242  0.00  0.00    +0.000 C 
ATOM      8  C   UNL     1     -10.545   7.606 129.579  0.00  0.00    +0.000 C 
ATOM      9  O   UNL     1      -9.938   8.043 128.614  0.00  0.00    +0.000 OA
ENDROOT
BRANCH   1  11
ATOM     10  C   UNL     1      -8.207   6.082 132.279  0.00  0.00    +0.000 C 
ATOM     11  C   UNL     1      -8.603   6.839 131.026  0.00  0.00    +0.000 C 
ENDBRANCH   1  11
TORSDOF 1
ENDMDL
MODEL 4
REMARK VINA RESULT:      -5.0      1.953      2.739
REMARK  Name = Paramethadione
REMARK  4 active torsions:
REMARK  status: ('A' for Active; 'I' for Inactive)
REMARK    1  A    between atoms: C_1  and  C_2
REMARK    2  A    between atoms: C_2  and  C_3
REMARK    3  A    between atoms: C_3  and  C_4
REMARK    4  A    between atoms: N_8  and  C_9
REMARK                            x       y       z     vdW  Elec       q    Type
REMARK                         _______ _______ _______ _____ _____    ______ ____
ROOT
ATOM      1  C   UNL     1     -11.950   7.061 129.453  0.00  0.00    +0.000 C 
ATOM      2  C   UNL     1     -12.549   7.575 130.759  0.00  0.00    +0.000 C 
ATOM      3  O   UNL     1     -12.287   5.668 129.382  0.00  0.00    +0.000 OA
ATOM      4  C   UNL     1     -11.210   4.956 129.834  0.00  0.00    +0.000 C 
ATOM      5  O   UNL     1     -11.296   3.809 130.250  0.00  0.00    +0.000 OA
ATOM      6  N   UNL     1     -10.094   5.708 129.756  0.00  0.00    +0.000 N 
ATOM      7  C   UNL     1      -8.742   5.225 129.934  0.00  0.00    +0.000 C 
ATOM      8  C   UNL     1     -10.433   6.997 129.500  0.00  0.00    +0.000 C 
ATOM      9  O   UNL     1      -9.666   7.940 129.373  0.00  0.00    +0.000 OA
ENDROOT
BRANCH   1  11
ATOM     10  C   UNL     1     -13.097   9.218 128.703  0.00  0.00    +0.000 C 
ATOM     11  C   UNL     1     -12.469   7.904 128.282  0.00  0.00    +0.000 C 
ENDBRANCH   1  11
TORSDOF 1
ENDMDL
MODEL 5
REMARK VINA RESULT:      -5.0      1.275      3.830
REMARK  Name = Paramethadione
REMARK  4 active torsions:
REMARK  status: ('A' for Active; 'I' for Inactive)
REMARK    1  A    between atoms: C_1  and  C_2
REMARK    2  A    between atoms: C_2  and  C_3
REMARK    3  A    between atoms: C_3  and  C_4
REMARK    4  A    between atoms: N_8  and  C_9
REMARK                            x       y       z     vdW  Elec       q    Type
REMARK                         _______ _______ _______ _____ _____    ______ ____
ROOT
ATOM      1  C   UNL     1     -10.820   6.143 130.392  0.00  0.00    +0.000 C 
ATOM      2  C   UNL     1      -9.741   6.392 131.442  0.00  0.00    +0.000 C 
ATOM      3  O   UNL     1     -10.271   6.590 129.144  0.00  0.00    +0.000 OA
ATOM      4  C   UNL     1     -10.733   7.857 128.917  0.00  0.00    +0.000 C 
ATOM      5  O   UNL     1     -10.177   8.645 128.165  0.00  0.00    +0.000 OA
ATOM      6  N   UNL     1     -11.846   8.080 129.643  0.00  0.00    +0.000 N 
ATOM      7  C   UNL     1     -12.732   9.214 129.497  0.00  0.00    +0.000 C 
ATOM      8  C   UNL     1     -12.005   7.081 130.549  0.00  0.00    +0.000 C 
ATOM      9  O   UNL     1     -12.906   6.975 131.366  0.00  0.00    +0.000 OA
ENDROOT
BRANCH   1  11
ATOM     10  C   UNL     1     -10.059   3.705 130.500  0.00  0.00    +0.000 C 
ATOM     11  C   UNL     1     -11.230   4.665 130.415  0.00  0.00    +0.000 C 
ENDBRANCH   1  11
TORSDOF 1
ENDMDL
MODEL 6
REMARK VINA RESULT:      -5.0      2.001      4.146
REMARK  Name = Paramethadione
REMARK  4 active torsions:
REMARK  status: ('A' for Active; 'I' for Inactive)
REMARK    1  A    between atoms: C_1  and  C_2
REMARK    2  A    between atoms: C_2  and  C_3
REMARK    3  A    between atoms: C_3  and  C_4
REMARK    4  A    between atoms: N_8  and  C_9
REMARK                            x       y       z     vdW  Elec       q    Type
REMARK                         _______ _______ _______ _____ _____    ______ ____
ROOT
ATOM      1  C   UNL     1     -10.567   6.858 129.950  0.00  0.00    +0.000 C 
ATOM      2  C   UNL     1     -11.520   5.771 130.436  0.00  0.00    +0.000 C 
ATOM      3  O   UNL     1     -11.326   8.075 129.935  0.00  0.00    +0.000 OA
ATOM      4  C   UNL     1     -11.765   8.276 128.655  0.00  0.00    +0.000 C 
ATOM      5  O   UNL     1     -12.722   8.986 128.381  0.00  0.00    +0.000 OA
ATOM      6  N   UNL     1     -11.004   7.575 127.791  0.00  0.00    +0.000 N 
ATOM      7  C   UNL     1     -11.025   7.710 126.351  0.00  0.00    +0.000 C 
ATOM      8  C   UNL     1     -10.219   6.706 128.479  0.00  0.00    +0.000 C 
ATOM      9  O   UNL     1      -9.415   5.919 128.005  0.00  0.00    +0.000 OA
ENDROOT
BRANCH   1  11
ATOM     10  C   UNL     1      -9.473   6.095 132.130  0.00  0.00    +0.000 C 
ATOM     11  C   UNL     1      -9.325   6.893 130.849  0.00  0.00    +0.000 C 
ENDBRANCH   1  11
TORSDOF 1
ENDMDL
MODEL 7
REMARK VINA RESULT:      -4.7      2.455      3.497
REMARK  Name = Paramethadione
REMARK  4 active torsions:
REMARK  status: ('A' for Active; 'I' for Inactive)
REMARK    1  A    between atoms: C_1  and  C_2
REMARK    2  A    between atoms: C_2  and  C_3
REMARK    3  A    between atoms: C_3  and  C_4
REMARK    4  A    between atoms: N_8  and  C_9
REMARK                            x       y       z     vdW  Elec       q    Type
REMARK                         _______ _______ _______ _____ _____    ______ ____
ROOT
ATOM      1  C   UNL     1     -10.940   6.484 131.011  0.00  0.00    +0.000 C 
ATOM      2  C   UNL     1     -10.135   7.292 129.997  0.00  0.00    +0.000 C 
ATOM      3  O   UNL     1     -10.299   6.681 132.278  0.00  0.00    +0.000 OA
ATOM      4  C   UNL     1      -9.474   5.612 132.497  0.00  0.00    +0.000 C 
ATOM      5  O   UNL     1      -8.528   5.648 133.271  0.00  0.00    +0.000 OA
ATOM      6  N   UNL     1      -9.859   4.569 131.736  0.00  0.00    +0.000 N 
ATOM      7  C   UNL     1      -9.370   3.213 131.860  0.00  0.00    +0.000 C 
ATOM      8  C   UNL     1     -10.770   4.987 130.821  0.00  0.00    +0.000 C 
ATOM      9  O   UNL     1     -11.319   4.299 129.974  0.00  0.00    +0.000 OA
ENDROOT
BRANCH   1  11
ATOM     10  C   UNL     1     -12.649   8.187 130.166  0.00  0.00    +0.000 C 
ATOM     11  C   UNL     1     -12.410   6.921 130.965  0.00  0.00    +0.000 C 
ENDBRANCH   1  11
TORSDOF 1
ENDMDL
MODEL 8
REMARK VINA RESULT:      -4.7     10.162     11.698
REMARK  Name = Paramethadione
REMARK  4 active torsions:
REMARK  status: ('A' for Active; 'I' for Inactive)
REMARK    1  A    between atoms: C_1  and  C_2
REMARK    2  A    between atoms: C_2  and  C_3
REMARK    3  A    between atoms: C_3  and  C_4
REMARK    4  A    between atoms: N_8  and  C_9
REMARK                            x       y       z     vdW  Elec       q    Type
REMARK                         _______ _______ _______ _____ _____    ______ ____
ROOT
ATOM      1  C   UNL     1      -8.842  -1.765 123.672  0.00  0.00    +0.000 C 
ATOM      2  C   UNL     1      -7.602  -1.989 122.813  0.00  0.00    +0.000 C 
ATOM      3  O   UNL     1      -9.860  -1.281 122.785  0.00  0.00    +0.000 OA
ATOM      4  C   UNL     1      -9.884   0.083 122.884  0.00  0.00    +0.000 C 
ATOM      5  O   UNL     1     -10.351   0.807 122.016  0.00  0.00    +0.000 OA
ATOM      6  N   UNL     1      -9.319   0.471 124.044  0.00  0.00    +0.000 N 
ATOM      7  C   UNL     1      -9.363   1.808 124.595  0.00  0.00    +0.000 C 
ATOM      8  C   UNL     1      -8.685  -0.585 124.616  0.00  0.00    +0.000 C 
ATOM      9  O   UNL     1      -8.067  -0.580 125.669  0.00  0.00    +0.000 OA
ENDROOT
BRANCH   1  11
ATOM     10  C   UNL     1      -8.012  -3.965 124.672  0.00  0.00    +0.000 C 
ATOM     11  C   UNL     1      -9.201  -3.063 124.406  0.00  0.00    +0.000 C 
ENDBRANCH   1  11
TORSDOF 1
ENDMDL
MODEL 9
REMARK VINA RESULT:      -4.6      9.856     11.385
REMARK  Name = Paramethadione
REMARK  4 active torsions:
REMARK  status: ('A' for Active; 'I' for Inactive)
REMARK    1  A    between atoms: C_1  and  C_2
REMARK    2  A    between atoms: C_2  and  C_3
REMARK    3  A    between atoms: C_3  and  C_4
REMARK    4  A    between atoms: N_8  and  C_9
REMARK                            x       y       z     vdW  Elec       q    Type
REMARK                         _______ _______ _______ _____ _____    ______ ____
ROOT
ATOM      1  C   UNL     1      -8.528  -1.043 123.797  0.00  0.00    +0.000 C 
ATOM      2  C   UNL     1      -8.998  -1.306 125.224  0.00  0.00    +0.000 C 
ATOM      3  O   UNL     1      -7.231  -0.439 123.909  0.00  0.00    +0.000 OA
ATOM      4  C   UNL     1      -7.394   0.916 123.810  0.00  0.00    +0.000 C 
ATOM      5  O   UNL     1      -6.573   1.718 124.231  0.00  0.00    +0.000 OA
ATOM      6  N   UNL     1      -8.566   1.197 123.208  0.00  0.00    +0.000 N 
ATOM      7  C   UNL     1      -8.976   2.501 122.734  0.00  0.00    +0.000 C 
ATOM      8  C   UNL     1      -9.316   0.069 123.125  0.00  0.00    +0.000 C 
ATOM      9  O   UNL     1     -10.433  -0.029 122.642  0.00  0.00    +0.000 OA
ENDROOT
BRANCH   1  11
ATOM     10  C   UNL     1      -9.545  -3.371 123.524  0.00  0.00    +0.000 C 
ATOM     11  C   UNL     1      -8.555  -2.351 122.997  0.00  0.00    +0.000 C 
ENDBRANCH   1  11
TORSDOF 1
ENDMDL
