MODEL 1
REMARK VINA RESULT:      -8.2      0.000      0.000
REMARK  Name = Parecoxib
REMARK  7 active torsions:
REMARK  status: ('A' for Active; 'I' for Inactive)
REMARK    1  A    between atoms: C_1  and  C_2
REMARK    2  A    between atoms: C_2  and  C_3
REMARK    3  A    between atoms: N_5  and  S_6
REMARK    4  A    between atoms: S_6  and  C_9
REMARK    5  A    between atoms: C_12  and  C_15
REMARK    6  A    between atoms: C_16  and  C_17
REMARK    7  A    between atoms: C_20  and  C_21
REMARK                            x       y       z     vdW  Elec       q    Type
REMARK                         _______ _______ _______ _____ _____    ______ ____
ROOT
ATOM      1  C   UNL     1      -7.122   2.856 125.786  0.00  0.00    +0.000 A 
ATOM      2  C   UNL     1      -8.305   2.362 126.355  0.00  0.00    +0.000 A 
ATOM      3  C   UNL     1      -8.770   1.088 126.007  0.00  0.00    +0.000 A 
ATOM      4  C   UNL     1      -8.112   0.331 125.030  0.00  0.00    +0.000 A 
ATOM      5  C   UNL     1      -6.934   0.833 124.458  0.00  0.00    +0.000 A 
ATOM      6  C   UNL     1      -6.429   2.085 124.848  0.00  0.00    +0.000 A 
ENDROOT
BRANCH   4   7
ATOM      7  C   UNL     1      -8.744  -0.877 124.529  0.00  0.00    +0.000 A 
ATOM      8  C   UNL     1      -9.470  -1.023 123.371  0.00  0.00    +0.000 A 
ATOM      9  C   UNL     1      -9.848  -0.134 122.260  0.00  0.00    +0.000 C 
ATOM     10  O   UNL     1      -9.901  -2.312 123.272  0.00  0.00    +0.000 OA
ATOM     11  N   UNL     1      -9.458  -3.040 124.362  0.00  0.00    +0.000 NA
ATOM     12  C   UNL     1      -8.775  -2.175 125.124  0.00  0.00    +0.000 A 
BRANCH  12  13
ATOM     13  C   UNL     1      -8.228  -2.545 126.419  0.00  0.00    +0.000 A 
ATOM     14  C   UNL     1      -6.982  -2.078 126.846  0.00  0.00    +0.000 A 
ATOM     15  C   UNL     1      -6.493  -2.456 128.098  0.00  0.00    +0.000 A 
ATOM     16  C   UNL     1      -7.277  -3.237 128.951  0.00  0.00    +0.000 A 
ATOM     17  C   UNL     1      -8.529  -3.687 128.537  0.00  0.00    +0.000 A 
ATOM     18  C   UNL     1      -8.995  -3.353 127.270  0.00  0.00    +0.000 A 
ENDBRANCH  12  13
ENDBRANCH   4   7
BRANCH   1  19
ATOM     19  S   UNL     1      -6.376   4.338 126.470  0.00  0.00    +0.000 S 
ATOM     20  O   UNL     1      -7.040   4.527 127.746  0.00  0.00    +0.000 OA
ATOM     21  O   UNL     1      -6.411   5.330 125.422  0.00  0.00    +0.000 OA
BRANCH  19  24
ATOM     22  C   UNL     1      -3.927   4.980 127.348  0.00  0.00    +0.000 C 
ATOM     23  O   UNL     1      -4.357   6.093 127.624  0.00  0.00    +0.000 OA
ATOM     24  N   UNL     1      -4.756   3.979 126.775  0.00  0.00    +0.000 N 
ATOM     25  H   UNL     1      -4.413   3.057 126.544  0.00  0.00    +0.000 HD
BRANCH  22  27
ATOM     26  C   UNL     1      -2.092   3.328 126.873  0.00  0.00    +0.000 C 
ATOM     27  C   UNL     1      -2.471   4.615 127.610  0.00  0.00    +0.000 C 
ENDBRANCH  22  27
ENDBRANCH  19  24
ENDBRANCH   1  19
TORSDOF 5
ENDMDL
MODEL 2
REMARK VINA RESULT:      -8.1      7.446     10.419
REMARK  Name = Parecoxib
REMARK  7 active torsions:
REMARK  status: ('A' for Active; 'I' for Inactive)
REMARK    1  A    between atoms: C_1  and  C_2
REMARK    2  A    between atoms: C_2  and  C_3
REMARK    3  A    between atoms: N_5  and  S_6
REMARK    4  A    between atoms: S_6  and  C_9
REMARK    5  A    between atoms: C_12  and  C_15
REMARK    6  A    between atoms: C_16  and  C_17
REMARK    7  A    between atoms: C_20  and  C_21
REMARK                            x       y       z     vdW  Elec       q    Type
REMARK                         _______ _______ _______ _____ _____    ______ ____
ROOT
ATOM      1  C   UNL     1      -8.017   6.230 131.910  0.00  0.00    +0.000 A 
ATOM      2  C   UNL     1      -7.139   6.955 131.092  0.00  0.00    +0.000 A 
ATOM      3  C   UNL     1      -5.757   6.874 131.304  0.00  0.00    +0.000 A 
ATOM      4  C   UNL     1      -5.242   6.143 132.382  0.00  0.00    +0.000 A 
ATOM      5  C   UNL     1      -6.125   5.426 133.202  0.00  0.00    +0.000 A 
ATOM      6  C   UNL     1      -7.509   5.454 132.956  0.00  0.00    +0.000 A 
ENDROOT
BRANCH   4   7
ATOM      7  C   UNL     1      -3.833   6.268 132.709  0.00  0.00    +0.000 A 
ATOM      8  C   UNL     1      -3.283   6.710 133.889  0.00  0.00    +0.000 A 
ATOM      9  C   UNL     1      -3.821   7.165 135.181  0.00  0.00    +0.000 C 
ATOM     10  O   UNL     1      -1.925   6.686 133.787  0.00  0.00    +0.000 OA
ATOM     11  N   UNL     1      -1.555   6.218 132.539  0.00  0.00    +0.000 NA
ATOM     12  C   UNL     1      -2.701   5.980 131.886  0.00  0.00    +0.000 A 
BRANCH  12  13
ATOM     13  C   UNL     1      -2.730   5.562 130.494  0.00  0.00    +0.000 A 
ATOM     14  C   UNL     1      -3.214   4.306 130.118  0.00  0.00    +0.000 A 
ATOM     15  C   UNL     1      -3.225   3.945 128.769  0.00  0.00    +0.000 A 
ATOM     16  C   UNL     1      -2.824   4.860 127.793  0.00  0.00    +0.000 A 
ATOM     17  C   UNL     1      -2.360   6.121 128.164  0.00  0.00    +0.000 A 
ATOM     18  C   UNL     1      -2.301   6.464 129.510  0.00  0.00    +0.000 A 
ENDBRANCH  12  13
ENDBRANCH   4   7
BRANCH   1  19
ATOM     19  S   UNL     1      -9.741   6.090 131.434  0.00  0.00    +0.000 S 
ATOM     20  O   UNL     1     -10.482   6.459 132.625  0.00  0.00    +0.000 OA
ATOM     21  O   UNL     1      -9.883   4.801 130.799  0.00  0.00    +0.000 OA
BRANCH  19  24
ATOM     22  C   UNL     1     -11.339   7.416 129.740  0.00  0.00    +0.000 C 
ATOM     23  O   UNL     1     -12.267   6.714 130.122  0.00  0.00    +0.000 OA
ATOM     24  N   UNL     1     -10.026   7.267 130.259  0.00  0.00    +0.000 N 
ATOM     25  H   UNL     1      -9.252   7.842 129.953  0.00  0.00    +0.000 HD
BRANCH  22  27
ATOM     26  C   UNL     1     -12.837   9.281 128.964  0.00  0.00    +0.000 C 
ATOM     27  C   UNL     1     -11.555   8.493 128.683  0.00  0.00    +0.000 C 
ENDBRANCH  22  27
ENDBRANCH  19  24
ENDBRANCH   1  19
TORSDOF 5
ENDMDL
MODEL 3
REMARK VINA RESULT:      -7.9      7.066      9.992
REMARK  Name = Parecoxib
REMARK  7 active torsions:
REMARK  status: ('A' for Active; 'I' for Inactive)
REMARK    1  A    between atoms: C_1  and  C_2
REMARK    2  A    between atoms: C_2  and  C_3
REMARK    3  A    between atoms: N_5  and  S_6
REMARK    4  A    between atoms: S_6  and  C_9
REMARK    5  A    between atoms: C_12  and  C_15
REMARK    6  A    between atoms: C_16  and  C_17
REMARK    7  A    between atoms: C_20  and  C_21
REMARK                            x       y       z     vdW  Elec       q    Type
REMARK                         _______ _______ _______ _____ _____    ______ ____
ROOT
ATOM      1  C   UNL     1      -8.234   5.610 130.367  0.00  0.00    +0.000 A 
ATOM      2  C   UNL     1      -7.708   4.413 130.873  0.00  0.00    +0.000 A 
ATOM      3  C   UNL     1      -6.604   4.442 131.734  0.00  0.00    +0.000 A 
ATOM      4  C   UNL     1      -5.962   5.652 132.030  0.00  0.00    +0.000 A 
ATOM      5  C   UNL     1      -6.488   6.845 131.515  0.00  0.00    +0.000 A 
ATOM      6  C   UNL     1      -7.633   6.828 130.701  0.00  0.00    +0.000 A 
ENDROOT
BRANCH   4   7
ATOM      7  C   UNL     1      -4.691   5.622 132.732  0.00  0.00    +0.000 A 
ATOM      8  C   UNL     1      -4.479   5.755 134.084  0.00  0.00    +0.000 A 
ATOM      9  C   UNL     1      -5.344   5.935 135.261  0.00  0.00    +0.000 C 
ATOM     10  O   UNL     1      -3.142   5.680 134.337  0.00  0.00    +0.000 OA
ATOM     11  N   UNL     1      -2.451   5.487 133.155  0.00  0.00    +0.000 NA
ATOM     12  C   UNL     1      -3.380   5.466 132.189  0.00  0.00    +0.000 A 
BRANCH  12  13
ATOM     13  C   UNL     1      -3.033   5.376 130.780  0.00  0.00    +0.000 A 
ATOM     14  C   UNL     1      -3.328   4.237 130.027  0.00  0.00    +0.000 A 
ATOM     15  C   UNL     1      -2.980   4.192 128.675  0.00  0.00    +0.000 A 
ATOM     16  C   UNL     1      -2.407   5.308 128.060  0.00  0.00    +0.000 A 
ATOM     17  C   UNL     1      -2.131   6.453 128.804  0.00  0.00    +0.000 A 
ATOM     18  C   UNL     1      -2.431   6.481 130.162  0.00  0.00    +0.000 A 
ENDBRANCH  12  13
ENDBRANCH   4   7
BRANCH   1  19
ATOM     19  S   UNL     1      -9.823   5.582 129.534  0.00  0.00    +0.000 S 
ATOM     20  O   UNL     1     -10.470   4.377 130.017  0.00  0.00    +0.000 OA
ATOM     21  O   UNL     1      -9.550   5.809 128.135  0.00  0.00    +0.000 OA
BRANCH  19  24
ATOM     22  C   UNL     1     -11.994   7.154 129.566  0.00  0.00    +0.000 C 
ATOM     23  O   UNL     1     -12.484   6.432 128.707  0.00  0.00    +0.000 OA
ATOM     24  N   UNL     1     -10.701   6.906 130.101  0.00  0.00    +0.000 N 
ATOM     25  H   UNL     1     -10.287   7.494 130.812  0.00  0.00    +0.000 HD
BRANCH  22  27
ATOM     26  C   UNL     1     -13.049   9.362 128.989  0.00  0.00    +0.000 C 
ATOM     27  C   UNL     1     -12.755   8.357 130.107  0.00  0.00    +0.000 C 
ENDBRANCH  22  27
ENDBRANCH  19  24
ENDBRANCH   1  19
TORSDOF 5
ENDMDL
MODEL 4
REMARK VINA RESULT:      -7.8      4.485      7.407
REMARK  Name = Parecoxib
REMARK  7 active torsions:
REMARK  status: ('A' for Active; 'I' for Inactive)
REMARK    1  A    between atoms: C_1  and  C_2
REMARK    2  A    between atoms: C_2  and  C_3
REMARK    3  A    between atoms: N_5  and  S_6
REMARK    4  A    between atoms: S_6  and  C_9
REMARK    5  A    between atoms: C_12  and  C_15
REMARK    6  A    between atoms: C_16  and  C_17
REMARK    7  A    between atoms: C_20  and  C_21
REMARK                            x       y       z     vdW  Elec       q    Type
REMARK                         _______ _______ _______ _____ _____    ______ ____
ROOT
ATOM      1  C   UNL     1      -8.363  -2.058 126.816  0.00  0.00    +0.000 A 
ATOM      2  C   UNL     1      -7.384  -1.198 127.333  0.00  0.00    +0.000 A 
ATOM      3  C   UNL     1      -6.773  -1.489 128.559  0.00  0.00    +0.000 A 
ATOM      4  C   UNL     1      -7.190  -2.589 129.320  0.00  0.00    +0.000 A 
ATOM      5  C   UNL     1      -8.175  -3.441 128.802  0.00  0.00    +0.000 A 
ATOM      6  C   UNL     1      -8.748  -3.188 127.544  0.00  0.00    +0.000 A 
ENDROOT
BRANCH   4   7
ATOM      7  C   UNL     1      -6.702  -2.729 130.681  0.00  0.00    +0.000 A 
ATOM      8  C   UNL     1      -6.070  -3.817 131.235  0.00  0.00    +0.000 A 
ATOM      9  C   UNL     1      -5.642  -5.135 130.741  0.00  0.00    +0.000 C 
ATOM     10  O   UNL     1      -5.783  -3.550 132.540  0.00  0.00    +0.000 OA
ATOM     11  N   UNL     1      -6.215  -2.277 132.866  0.00  0.00    +0.000 NA
ATOM     12  C   UNL     1      -6.779  -1.789 131.753  0.00  0.00    +0.000 A 
BRANCH  12  13
ATOM     13  C   UNL     1      -7.443  -0.495 131.722  0.00  0.00    +0.000 A 
ATOM     14  C   UNL     1      -8.831  -0.384 131.833  0.00  0.00    +0.000 A 
ATOM     15  C   UNL     1      -9.428   0.878 131.800  0.00  0.00    +0.000 A 
ATOM     16  C   UNL     1      -8.637   2.028 131.731  0.00  0.00    +0.000 A 
ATOM     17  C   UNL     1      -7.251   1.920 131.641  0.00  0.00    +0.000 A 
ATOM     18  C   UNL     1      -6.658   0.662 131.623  0.00  0.00    +0.000 A 
ENDBRANCH  12  13
ENDBRANCH   4   7
BRANCH   1  19
ATOM     19  S   UNL     1      -8.902  -1.848 125.117  0.00  0.00    +0.000 S 
ATOM     20  O   UNL     1      -9.546  -0.549 125.095  0.00  0.00    +0.000 OA
ATOM     21  O   UNL     1      -9.593  -3.064 124.758  0.00  0.00    +0.000 OA
BRANCH  19  24
ATOM     22  C   UNL     1      -6.709  -2.917 124.007  0.00  0.00    +0.000 C 
ATOM     23  O   UNL     1      -7.001  -3.980 124.542  0.00  0.00    +0.000 OA
ATOM     24  N   UNL     1      -7.511  -1.756 124.167  0.00  0.00    +0.000 N 
ATOM     25  H   UNL     1      -7.281  -0.874 123.730  0.00  0.00    +0.000 HD
BRANCH  22  27
ATOM     26  C   UNL     1      -4.443  -3.878 123.493  0.00  0.00    +0.000 C 
ATOM     27  C   UNL     1      -5.464  -2.793 123.139  0.00  0.00    +0.000 C 
ENDBRANCH  22  27
ENDBRANCH  19  24
ENDBRANCH   1  19
TORSDOF 5
ENDMDL
MODEL 5
REMARK VINA RESULT:      -7.7      2.807      7.740
REMARK  Name = Parecoxib
REMARK  7 active torsions:
REMARK  status: ('A' for Active; 'I' for Inactive)
REMARK    1  A    between atoms: C_1  and  C_2
REMARK    2  A    between atoms: C_2  and  C_3
REMARK    3  A    between atoms: N_5  and  S_6
REMARK    4  A    between atoms: S_6  and  C_9
REMARK    5  A    between atoms: C_12  and  C_15
REMARK    6  A    between atoms: C_16  and  C_17
REMARK    7  A    between atoms: C_20  and  C_21
REMARK                            x       y       z     vdW  Elec       q    Type
REMARK                         _______ _______ _______ _____ _____    ______ ____
ROOT
ATOM      1  C   UNL     1      -8.015  -0.905 124.904  0.00  0.00    +0.000 A 
ATOM      2  C   UNL     1      -8.994   0.049 125.217  0.00  0.00    +0.000 A 
ATOM      3  C   UNL     1      -8.648   1.403 125.309  0.00  0.00    +0.000 A 
ATOM      4  C   UNL     1      -7.314   1.809 125.175  0.00  0.00    +0.000 A 
ATOM      5  C   UNL     1      -6.338   0.850 124.869  0.00  0.00    +0.000 A 
ATOM      6  C   UNL     1      -6.689  -0.502 124.715  0.00  0.00    +0.000 A 
ENDROOT
BRANCH   4   7
ATOM      7  C   UNL     1      -6.958   3.179 125.503  0.00  0.00    +0.000 A 
ATOM      8  C   UNL     1      -7.052   3.798 126.727  0.00  0.00    +0.000 A 
ATOM      9  C   UNL     1      -7.475   3.382 128.073  0.00  0.00    +0.000 C 
ATOM     10  O   UNL     1      -6.626   5.087 126.610  0.00  0.00    +0.000 OA
ATOM     11  N   UNL     1      -6.237   5.337 125.306  0.00  0.00    +0.000 NA
ATOM     12  C   UNL     1      -6.449   4.195 124.638  0.00  0.00    +0.000 A 
BRANCH  12  13
ATOM     13  C   UNL     1      -6.246   4.086 123.202  0.00  0.00    +0.000 A 
ATOM     14  C   UNL     1      -7.263   3.640 122.353  0.00  0.00    +0.000 A 
ATOM     15  C   UNL     1      -7.027   3.552 120.980  0.00  0.00    +0.000 A 
ATOM     16  C   UNL     1      -5.808   3.977 120.447  0.00  0.00    +0.000 A 
ATOM     17  C   UNL     1      -4.799   4.441 121.289  0.00  0.00    +0.000 A 
ATOM     18  C   UNL     1      -5.014   4.482 122.663  0.00  0.00    +0.000 A 
ENDBRANCH  12  13
ENDBRANCH   4   7
BRANCH   1  19
ATOM     19  S   UNL     1      -8.524  -2.572 124.480  0.00  0.00    +0.000 S 
ATOM     20  O   UNL     1      -7.295  -3.250 124.116  0.00  0.00    +0.000 OA
ATOM     21  O   UNL     1      -9.635  -2.436 123.568  0.00  0.00    +0.000 OA
BRANCH  19  24
ATOM     22  C   UNL     1      -8.325  -3.217 127.073  0.00  0.00    +0.000 C 
ATOM     23  O   UNL     1      -7.235  -2.658 127.091  0.00  0.00    +0.000 OA
ATOM     24  N   UNL     1      -9.111  -3.283 125.892  0.00  0.00    +0.000 N 
ATOM     25  H   UNL     1     -10.013  -3.740 125.866  0.00  0.00    +0.000 HD
BRANCH  22  27
ATOM     26  C   UNL     1      -8.164  -3.366 129.578  0.00  0.00    +0.000 C 
ATOM     27  C   UNL     1      -8.892  -3.869 128.328  0.00  0.00    +0.000 C 
ENDBRANCH  22  27
ENDBRANCH  19  24
ENDBRANCH   1  19
TORSDOF 5
ENDMDL
MODEL 6
REMARK VINA RESULT:      -7.7      4.056      7.277
REMARK  Name = Parecoxib
REMARK  7 active torsions:
REMARK  status: ('A' for Active; 'I' for Inactive)
REMARK    1  A    between atoms: C_1  and  C_2
REMARK    2  A    between atoms: C_2  and  C_3
REMARK    3  A    between atoms: N_5  and  S_6
REMARK    4  A    between atoms: S_6  and  C_9
REMARK    5  A    between atoms: C_12  and  C_15
REMARK    6  A    between atoms: C_16  and  C_17
REMARK    7  A    between atoms: C_20  and  C_21
REMARK                            x       y       z     vdW  Elec       q    Type
REMARK                         _______ _______ _______ _____ _____    ______ ____
ROOT
ATOM      1  C   UNL     1      -7.948  -2.753 126.594  0.00  0.00    +0.000 A 
ATOM      2  C   UNL     1      -6.685  -2.259 126.949  0.00  0.00    +0.000 A 
ATOM      3  C   UNL     1      -6.216  -2.413 128.259  0.00  0.00    +0.000 A 
ATOM      4  C   UNL     1      -7.031  -2.982 129.246  0.00  0.00    +0.000 A 
ATOM      5  C   UNL     1      -8.296  -3.468 128.887  0.00  0.00    +0.000 A 
ATOM      6  C   UNL     1      -8.748  -3.371 127.560  0.00  0.00    +0.000 A 
ENDROOT
BRANCH   4   7
ATOM      7  C   UNL     1      -6.607  -2.918 130.634  0.00  0.00    +0.000 A 
ATOM      8  C   UNL     1      -5.974  -3.897 131.362  0.00  0.00    +0.000 A 
ATOM      9  C   UNL     1      -5.488  -5.256 131.076  0.00  0.00    +0.000 C 
ATOM     10  O   UNL     1      -5.758  -3.444 132.629  0.00  0.00    +0.000 OA
ATOM     11  N   UNL     1      -6.239  -2.153 132.754  0.00  0.00    +0.000 NA
ATOM     12  C   UNL     1      -6.761  -1.842 131.560  0.00  0.00    +0.000 A 
BRANCH  12  13
ATOM     13  C   UNL     1      -7.455  -0.587 131.319  0.00  0.00    +0.000 A 
ATOM     14  C   UNL     1      -6.944   0.374 130.443  0.00  0.00    +0.000 A 
ATOM     15  C   UNL     1      -7.644   1.565 130.238  0.00  0.00    +0.000 A 
ATOM     16  C   UNL     1      -8.885   1.764 130.848  0.00  0.00    +0.000 A 
ATOM     17  C   UNL     1      -9.407   0.799 131.706  0.00  0.00    +0.000 A 
ATOM     18  C   UNL     1      -8.688  -0.366 131.950  0.00  0.00    +0.000 A 
ENDBRANCH  12  13
ENDBRANCH   4   7
BRANCH   1  19
ATOM     19  S   UNL     1      -8.399  -2.833 124.859  0.00  0.00    +0.000 S 
ATOM     20  O   UNL     1      -9.831  -3.062 124.862  0.00  0.00    +0.000 OA
ATOM     21  O   UNL     1      -7.468  -3.747 124.240  0.00  0.00    +0.000 OA
BRANCH  19  24
ATOM     22  C   UNL     1      -8.899  -0.208 124.660  0.00  0.00    +0.000 C 
ATOM     23  O   UNL     1      -9.767  -0.345 125.513  0.00  0.00    +0.000 OA
ATOM     24  N   UNL     1      -8.118  -1.304 124.205  0.00  0.00    +0.000 N 
ATOM     25  H   UNL     1      -7.398  -1.202 123.503  0.00  0.00    +0.000 HD
BRANCH  22  27
ATOM     26  C   UNL     1      -9.624   1.481 122.944  0.00  0.00    +0.000 C 
ATOM     27  C   UNL     1      -8.612   1.157 124.047  0.00  0.00    +0.000 C 
ENDBRANCH  22  27
ENDBRANCH  19  24
ENDBRANCH   1  19
TORSDOF 5
ENDMDL
MODEL 7
REMARK VINA RESULT:      -7.6      2.782      4.749
REMARK  Name = Parecoxib
REMARK  7 active torsions:
REMARK  status: ('A' for Active; 'I' for Inactive)
REMARK    1  A    between atoms: C_1  and  C_2
REMARK    2  A    between atoms: C_2  and  C_3
REMARK    3  A    between atoms: N_5  and  S_6
REMARK    4  A    between atoms: S_6  and  C_9
REMARK    5  A    between atoms: C_12  and  C_15
REMARK    6  A    between atoms: C_16  and  C_17
REMARK    7  A    between atoms: C_20  and  C_21
REMARK                            x       y       z     vdW  Elec       q    Type
REMARK                         _______ _______ _______ _____ _____    ______ ____
ROOT
ATOM      1  C   UNL     1      -6.823   2.353 126.063  0.00  0.00    +0.000 A 
ATOM      2  C   UNL     1      -8.137   2.033 126.433  0.00  0.00    +0.000 A 
ATOM      3  C   UNL     1      -8.381   0.941 127.274  0.00  0.00    +0.000 A 
ATOM      4  C   UNL     1      -7.332   0.108 127.684  0.00  0.00    +0.000 A 
ATOM      5  C   UNL     1      -6.021   0.428 127.304  0.00  0.00    +0.000 A 
ATOM      6  C   UNL     1      -5.764   1.559 126.510  0.00  0.00    +0.000 A 
ENDROOT
BRANCH   4   7
ATOM      7  C   UNL     1      -7.644  -1.139 128.359  0.00  0.00    +0.000 A 
ATOM      8  C   UNL     1      -7.616  -1.389 129.711  0.00  0.00    +0.000 A 
ATOM      9  C   UNL     1      -7.319  -0.591 130.911  0.00  0.00    +0.000 C 
ATOM     10  O   UNL     1      -7.966  -2.687 129.933  0.00  0.00    +0.000 OA
ATOM     11  N   UNL     1      -8.240  -3.313 128.731  0.00  0.00    +0.000 NA
ATOM     12  C   UNL     1      -8.034  -2.387 127.784  0.00  0.00    +0.000 A 
BRANCH  12  13
ATOM     13  C   UNL     1      -8.129  -2.692 126.365  0.00  0.00    +0.000 A 
ATOM     14  C   UNL     1      -9.363  -2.907 125.746  0.00  0.00    +0.000 A 
ATOM     15  C   UNL     1      -9.410  -3.196 124.380  0.00  0.00    +0.000 A 
ATOM     16  C   UNL     1      -8.237  -3.197 123.622  0.00  0.00    +0.000 A 
ATOM     17  C   UNL     1      -7.007  -2.963 124.233  0.00  0.00    +0.000 A 
ATOM     18  C   UNL     1      -6.953  -2.725 125.602  0.00  0.00    +0.000 A 
ENDBRANCH  12  13
ENDBRANCH   4   7
BRANCH   1  19
ATOM     19  S   UNL     1      -6.501   3.924 125.256  0.00  0.00    +0.000 S 
ATOM     20  O   UNL     1      -5.165   3.787 124.709  0.00  0.00    +0.000 OA
ATOM     21  O   UNL     1      -6.848   4.948 126.213  0.00  0.00    +0.000 OA
BRANCH  19  24
ATOM     22  C   UNL     1      -7.585   3.032 122.974  0.00  0.00    +0.000 C 
ATOM     23  O   UNL     1      -6.826   2.072 123.031  0.00  0.00    +0.000 OA
ATOM     24  N   UNL     1      -7.581   4.047 123.967  0.00  0.00    +0.000 N 
ATOM     25  H   UNL     1      -8.204   4.844 123.931  0.00  0.00    +0.000 HD
BRANCH  22  27
ATOM     26  C   UNL     1      -7.911   3.831 120.612  0.00  0.00    +0.000 C 
ATOM     27  C   UNL     1      -8.577   3.179 121.827  0.00  0.00    +0.000 C 
ENDBRANCH  22  27
ENDBRANCH  19  24
ENDBRANCH   1  19
TORSDOF 5
ENDMDL
MODEL 8
REMARK VINA RESULT:      -7.5      3.022      7.340
REMARK  Name = Parecoxib
REMARK  7 active torsions:
REMARK  status: ('A' for Active; 'I' for Inactive)
REMARK    1  A    between atoms: C_1  and  C_2
REMARK    2  A    between atoms: C_2  and  C_3
REMARK    3  A    between atoms: N_5  and  S_6
REMARK    4  A    between atoms: S_6  and  C_9
REMARK    5  A    between atoms: C_12  and  C_15
REMARK    6  A    between atoms: C_16  and  C_17
REMARK    7  A    between atoms: C_20  and  C_21
REMARK                            x       y       z     vdW  Elec       q    Type
REMARK                         _______ _______ _______ _____ _____    ______ ____
ROOT
ATOM      1  C   UNL     1      -8.163  -1.449 125.896  0.00  0.00    +0.000 A 
ATOM      2  C   UNL     1      -9.224  -0.588 125.582  0.00  0.00    +0.000 A 
ATOM      3  C   UNL     1      -9.078   0.794 125.755  0.00  0.00    +0.000 A 
ATOM      4  C   UNL     1      -7.911   1.323 126.321  0.00  0.00    +0.000 A 
ATOM      5  C   UNL     1      -6.857   0.456 126.641  0.00  0.00    +0.000 A 
ATOM      6  C   UNL     1      -6.974  -0.925 126.412  0.00  0.00    +0.000 A 
ENDROOT
BRANCH   4   7
ATOM      7  C   UNL     1      -7.884   2.725 126.699  0.00  0.00    +0.000 A 
ATOM      8  C   UNL     1      -8.256   3.275 127.902  0.00  0.00    +0.000 A 
ATOM      9  C   UNL     1      -8.755   2.743 129.180  0.00  0.00    +0.000 C 
ATOM     10  O   UNL     1      -8.089   4.627 127.848  0.00  0.00    +0.000 OA
ATOM     11  N   UNL     1      -7.596   4.989 126.607  0.00  0.00    +0.000 NA
ATOM     12  C   UNL     1      -7.485   3.849 125.913  0.00  0.00    +0.000 A 
BRANCH  12  13
ATOM     13  C   UNL     1      -7.084   3.826 124.515  0.00  0.00    +0.000 A 
ATOM     14  C   UNL     1      -5.821   4.268 124.111  0.00  0.00    +0.000 A 
ATOM     15  C   UNL     1      -5.475   4.228 122.758  0.00  0.00    +0.000 A 
ATOM     16  C   UNL     1      -6.356   3.680 121.823  0.00  0.00    +0.000 A 
ATOM     17  C   UNL     1      -7.608   3.220 122.227  0.00  0.00    +0.000 A 
ATOM     18  C   UNL     1      -7.974   3.306 123.566  0.00  0.00    +0.000 A 
ENDBRANCH  12  13
ENDBRANCH   4   7
BRANCH   1  19
ATOM     19  S   UNL     1      -8.247  -3.164 125.376  0.00  0.00    +0.000 S 
ATOM     20  O   UNL     1      -9.132  -3.156 124.226  0.00  0.00    +0.000 OA
ATOM     21  O   UNL     1      -8.526  -3.935 126.564  0.00  0.00    +0.000 OA
BRANCH  19  24
ATOM     22  C   UNL     1      -6.155  -2.924 123.718  0.00  0.00    +0.000 C 
ATOM     23  O   UNL     1      -6.770  -2.044 123.128  0.00  0.00    +0.000 OA
ATOM     24  N   UNL     1      -6.706  -3.594 124.843  0.00  0.00    +0.000 N 
ATOM     25  H   UNL     1      -6.207  -4.321 125.338  0.00  0.00    +0.000 HD
BRANCH  22  27
ATOM     26  C   UNL     1      -4.475  -4.793 123.659  0.00  0.00    +0.000 C 
ATOM     27  C   UNL     1      -4.760  -3.340 123.270  0.00  0.00    +0.000 C 
ENDBRANCH  22  27
ENDBRANCH  19  24
ENDBRANCH   1  19
TORSDOF 5
ENDMDL
MODEL 9
REMARK VINA RESULT:      -7.4      8.792     12.033
REMARK  Name = Parecoxib
REMARK  7 active torsions:
REMARK  status: ('A' for Active; 'I' for Inactive)
REMARK    1  A    between atoms: C_1  and  C_2
REMARK    2  A    between atoms: C_2  and  C_3
REMARK    3  A    between atoms: N_5  and  S_6
REMARK    4  A    between atoms: S_6  and  C_9
REMARK    5  A    between atoms: C_12  and  C_15
REMARK    6  A    between atoms: C_16  and  C_17
REMARK    7  A    between atoms: C_20  and  C_21
REMARK                            x       y       z     vdW  Elec       q    Type
REMARK                         _______ _______ _______ _____ _____    ______ ____
ROOT
ATOM      1  C   UNL     1      -7.885   5.875 132.531  0.00  0.00    +0.000 A 
ATOM      2  C   UNL     1      -6.519   6.104 132.752  0.00  0.00    +0.000 A 
ATOM      3  C   UNL     1      -5.922   5.680 133.945  0.00  0.00    +0.000 A 
ATOM      4  C   UNL     1      -6.693   5.102 134.962  0.00  0.00    +0.000 A 
ATOM      5  C   UNL     1      -8.060   4.883 134.739  0.00  0.00    +0.000 A 
ATOM      6  C   UNL     1      -8.652   5.251 133.519  0.00  0.00    +0.000 A 
ENDROOT
BRANCH   4   7
ATOM      7  C   UNL     1      -6.091   4.887 136.266  0.00  0.00    +0.000 A 
ATOM      8  C   UNL     1      -5.334   3.813 136.671  0.00  0.00    +0.000 A 
ATOM      9  C   UNL     1      -4.843   2.584 136.029  0.00  0.00    +0.000 C 
ATOM     10  O   UNL     1      -4.968   3.989 137.972  0.00  0.00    +0.000 OA
ATOM     11  N   UNL     1      -5.472   5.188 138.444  0.00  0.00    +0.000 NA
ATOM     12  C   UNL     1      -6.158   5.721 137.424  0.00  0.00    +0.000 A 
BRANCH  12  13
ATOM     13  C   UNL     1      -6.922   6.951 137.559  0.00  0.00    +0.000 A 
ATOM     14  C   UNL     1      -6.307   8.204 137.484  0.00  0.00    +0.000 A 
ATOM     15  C   UNL     1      -7.078   9.361 137.617  0.00  0.00    +0.000 A 
ATOM     16  C   UNL     1      -8.465   9.269 137.751  0.00  0.00    +0.000 A 
ATOM     17  C   UNL     1      -9.083   8.022 137.806  0.00  0.00    +0.000 A 
ATOM     18  C   UNL     1      -8.312   6.867 137.724  0.00  0.00    +0.000 A 
ENDBRANCH  12  13
ENDBRANCH   4   7
BRANCH   1  19
ATOM     19  S   UNL     1      -8.560   6.134 130.888  0.00  0.00    +0.000 S 
ATOM     20  O   UNL     1      -8.360   4.869 130.207  0.00  0.00    +0.000 OA
ATOM     21  O   UNL     1      -7.994   7.372 130.408  0.00  0.00    +0.000 OA
BRANCH  19  24
ATOM     22  C   UNL     1     -11.031   6.459 129.906  0.00  0.00    +0.000 C 
ATOM     23  O   UNL     1     -10.557   6.368 128.780  0.00  0.00    +0.000 OA
ATOM     24  N   UNL     1     -10.220   6.371 131.068  0.00  0.00    +0.000 N 
ATOM     25  H   UNL     1     -10.600   6.444 132.002  0.00  0.00    +0.000 HD
BRANCH  22  27
ATOM     26  C   UNL     1     -12.791   7.482 131.383  0.00  0.00    +0.000 C 
ATOM     27  C   UNL     1     -12.526   6.671 130.111  0.00  0.00    +0.000 C 
ENDBRANCH  22  27
ENDBRANCH  19  24
ENDBRANCH   1  19
TORSDOF 5
ENDMDL
