MODEL 1
REMARK VINA RESULT:      -5.5      0.000      0.000
REMARK  Name = Pargyline
REMARK  5 active torsions:
REMARK  status: ('A' for Active; 'I' for Inactive)
REMARK    1  A    between atoms: C_1  and  N_2
REMARK    2  A    between atoms: N_2  and  C_3
REMARK    3  A    between atoms: N_2  and  C_6
REMARK    4  A    between atoms: C_3  and  C_4
REMARK    5  A    between atoms: C_6  and  C_7
REMARK                            x       y       z     vdW  Elec       q    Type
REMARK                         _______ _______ _______ _____ _____    ______ ____
ROOT
ATOM      1  C   UNL     1     -11.947   6.349 131.196  0.00  0.00    +0.000 C 
ENDROOT
BRANCH   1   2
ATOM      2  C   UNL     1     -12.644   7.297 130.231  0.00  0.00    +0.000 A 
ATOM      3  C   UNL     1     -13.142   6.813 129.023  0.00  0.00    +0.000 A 
ATOM      4  C   UNL     1     -13.551   7.711 128.030  0.00  0.00    +0.000 A 
ATOM      5  C   UNL     1     -13.437   9.089 128.232  0.00  0.00    +0.000 A 
ATOM      6  C   UNL     1     -13.003   9.578 129.447  0.00  0.00    +0.000 A 
ATOM      7  C   UNL     1     -12.713   8.682 130.468  0.00  0.00    +0.000 A 
ENDBRANCH   1   2
BRANCH   1   9
ATOM      8  C   UNL     1     -10.057   5.890 132.620  0.00  0.00    +0.000 C 
ATOM      9  N   UNL     1     -10.578   6.760 131.550  0.00  0.00    +0.000 NA
BRANCH   9  10
ATOM     10  C   UNL     1      -9.705   6.697 130.371  0.00  0.00    +0.000 C 
BRANCH  10  11
ATOM     11  C   UNL     1      -8.257   6.818 130.816  0.00  0.00    +0.000 C 
ATOM     12  C   UNL     1      -7.013   6.921 131.198  0.00  0.00    +0.000 C 
ENDBRANCH  10  11
ENDBRANCH   9  10
ENDBRANCH   1   9
TORSDOF 4
ENDMDL
MODEL 2
REMARK VINA RESULT:      -5.5      1.548      5.095
REMARK  Name = Pargyline
REMARK  5 active torsions:
REMARK  status: ('A' for Active; 'I' for Inactive)
REMARK    1  A    between atoms: C_1  and  N_2
REMARK    2  A    between atoms: N_2  and  C_3
REMARK    3  A    between atoms: N_2  and  C_6
REMARK    4  A    between atoms: C_3  and  C_4
REMARK    5  A    between atoms: C_6  and  C_7
REMARK                            x       y       z     vdW  Elec       q    Type
REMARK                         _______ _______ _______ _____ _____    ______ ____
ROOT
ATOM      1  C   UNL     1     -11.708   7.002 129.300  0.00  0.00    +0.000 C 
ENDROOT
BRANCH   1   2
ATOM      2  C   UNL     1     -10.702   6.867 130.433  0.00  0.00    +0.000 A 
ATOM      3  C   UNL     1      -9.355   7.138 130.200  0.00  0.00    +0.000 A 
ATOM      4  C   UNL     1      -8.397   6.775 131.155  0.00  0.00    +0.000 A 
ATOM      5  C   UNL     1      -8.780   6.118 132.326  0.00  0.00    +0.000 A 
ATOM      6  C   UNL     1     -10.117   5.901 132.594  0.00  0.00    +0.000 A 
ATOM      7  C   UNL     1     -11.067   6.371 131.698  0.00  0.00    +0.000 A 
ENDBRANCH   1   2
BRANCH   1   9
ATOM      8  C   UNL     1     -11.041   8.212 127.324  0.00  0.00    +0.000 C 
ATOM      9  N   UNL     1     -11.692   8.320 128.642  0.00  0.00    +0.000 NA
BRANCH   9  10
ATOM     10  C   UNL     1     -13.059   8.834 128.495  0.00  0.00    +0.000 C 
BRANCH  10  11
ATOM     11  C   UNL     1     -13.250  10.019 129.428  0.00  0.00    +0.000 C 
ATOM     12  C   UNL     1     -13.414  11.036 130.228  0.00  0.00    +0.000 C 
ENDBRANCH  10  11
ENDBRANCH   9  10
ENDBRANCH   1   9
TORSDOF 4
ENDMDL
MODEL 3
REMARK VINA RESULT:      -5.4     11.068     12.356
REMARK  Name = Pargyline
REMARK  5 active torsions:
REMARK  status: ('A' for Active; 'I' for Inactive)
REMARK    1  A    between atoms: C_1  and  N_2
REMARK    2  A    between atoms: N_2  and  C_3
REMARK    3  A    between atoms: N_2  and  C_6
REMARK    4  A    between atoms: C_3  and  C_4
REMARK    5  A    between atoms: C_6  and  C_7
REMARK                            x       y       z     vdW  Elec       q    Type
REMARK                         _______ _______ _______ _____ _____    ______ ____
ROOT
ATOM      1  C   UNL     1      -7.884  -1.456 125.135  0.00  0.00    +0.000 C 
ENDROOT
BRANCH   1   2
ATOM      2  C   UNL     1      -8.221  -2.066 126.487  0.00  0.00    +0.000 A 
ATOM      3  C   UNL     1      -7.710  -1.495 127.651  0.00  0.00    +0.000 A 
ATOM      4  C   UNL     1      -7.802  -2.188 128.864  0.00  0.00    +0.000 A 
ATOM      5  C   UNL     1      -8.376  -3.461 128.910  0.00  0.00    +0.000 A 
ATOM      6  C   UNL     1      -8.939  -4.009 127.774  0.00  0.00    +0.000 A 
ATOM      7  C   UNL     1      -8.950  -3.263 126.603  0.00  0.00    +0.000 A 
ENDBRANCH   1   2
BRANCH   1   9
ATOM      8  C   UNL     1      -7.379  -1.992 122.839  0.00  0.00    +0.000 C 
ATOM      9  N   UNL     1      -7.129  -2.355 124.246  0.00  0.00    +0.000 NA
BRANCH   9  10
ATOM     10  C   UNL     1      -5.693  -2.280 124.544  0.00  0.00    +0.000 C 
BRANCH  10  11
ATOM     11  C   UNL     1      -5.013  -3.545 124.047  0.00  0.00    +0.000 C 
ATOM     12  C   UNL     1      -4.430  -4.630 123.620  0.00  0.00    +0.000 C 
ENDBRANCH  10  11
ENDBRANCH   9  10
ENDBRANCH   1   9
TORSDOF 4
ENDMDL
MODEL 4
REMARK VINA RESULT:      -5.0      1.599      2.190
REMARK  Name = Pargyline
REMARK  5 active torsions:
REMARK  status: ('A' for Active; 'I' for Inactive)
REMARK    1  A    between atoms: C_1  and  N_2
REMARK    2  A    between atoms: N_2  and  C_3
REMARK    3  A    between atoms: N_2  and  C_6
REMARK    4  A    between atoms: C_3  and  C_4
REMARK    5  A    between atoms: C_6  and  C_7
REMARK                            x       y       z     vdW  Elec       q    Type
REMARK                         _______ _______ _______ _____ _____    ______ ____
ROOT
ATOM      1  C   UNL     1     -11.539   5.788 130.717  0.00  0.00    +0.000 C 
ENDROOT
BRANCH   1   2
ATOM      2  C   UNL     1     -12.358   6.824 129.962  0.00  0.00    +0.000 A 
ATOM      3  C   UNL     1     -12.989   6.474 128.770  0.00  0.00    +0.000 A 
ATOM      4  C   UNL     1     -13.524   7.473 127.947  0.00  0.00    +0.000 A 
ATOM      5  C   UNL     1     -13.405   8.819 128.300  0.00  0.00    +0.000 A 
ATOM      6  C   UNL     1     -12.837   9.172 129.508  0.00  0.00    +0.000 A 
ATOM      7  C   UNL     1     -12.417   8.169 130.371  0.00  0.00    +0.000 A 
ENDBRANCH   1   2
BRANCH   1   9
ATOM      8  C   UNL     1      -9.430   5.528 129.580  0.00  0.00    +0.000 C 
ATOM      9  N   UNL     1     -10.741   4.909 129.846  0.00  0.00    +0.000 NA
BRANCH   9  10
ATOM     10  C   UNL     1     -10.566   3.593 130.473  0.00  0.00    +0.000 C 
BRANCH  10  11
ATOM     11  C   UNL     1      -9.788   3.757 131.769  0.00  0.00    +0.000 C 
ATOM     12  C   UNL     1      -9.120   3.898 132.881  0.00  0.00    +0.000 C 
ENDBRANCH  10  11
ENDBRANCH   9  10
ENDBRANCH   1   9
TORSDOF 4
ENDMDL
MODEL 5
REMARK VINA RESULT:      -5.0     10.756     12.050
REMARK  Name = Pargyline
REMARK  5 active torsions:
REMARK  status: ('A' for Active; 'I' for Inactive)
REMARK    1  A    between atoms: C_1  and  N_2
REMARK    2  A    between atoms: N_2  and  C_3
REMARK    3  A    between atoms: N_2  and  C_6
REMARK    4  A    between atoms: C_3  and  C_4
REMARK    5  A    between atoms: C_6  and  C_7
REMARK                            x       y       z     vdW  Elec       q    Type
REMARK                         _______ _______ _______ _____ _____    ______ ____
ROOT
ATOM      1  C   UNL     1      -9.006  -2.344 125.489  0.00  0.00    +0.000 C 
ENDROOT
BRANCH   1   2
ATOM      2  C   UNL     1      -8.473  -2.519 126.903  0.00  0.00    +0.000 A 
ATOM      3  C   UNL     1      -8.818  -3.652 127.638  0.00  0.00    +0.000 A 
ATOM      4  C   UNL     1      -8.546  -3.699 129.011  0.00  0.00    +0.000 A 
ATOM      5  C   UNL     1      -7.957  -2.608 129.653  0.00  0.00    +0.000 A 
ATOM      6  C   UNL     1      -7.556  -1.507 128.923  0.00  0.00    +0.000 A 
ATOM      7  C   UNL     1      -7.720  -1.519 127.544  0.00  0.00    +0.000 A 
ENDBRANCH   1   2
BRANCH   1   9
ATOM      8  C   UNL     1      -9.579  -3.374 123.386  0.00  0.00    +0.000 C 
ATOM      9  N   UNL     1      -8.782  -3.511 124.619  0.00  0.00    +0.000 NA
BRANCH   9  10
ATOM     10  C   UNL     1      -7.356  -3.638 124.293  0.00  0.00    +0.000 C 
BRANCH  10  11
ATOM     11  C   UNL     1      -6.908  -2.403 123.528  0.00  0.00    +0.000 C 
ATOM     12  C   UNL     1      -6.523  -1.343 122.871  0.00  0.00    +0.000 C 
ENDBRANCH  10  11
ENDBRANCH   9  10
ENDBRANCH   1   9
TORSDOF 4
ENDMDL
MODEL 6
REMARK VINA RESULT:      -4.9      1.599      2.207
REMARK  Name = Pargyline
REMARK  5 active torsions:
REMARK  status: ('A' for Active; 'I' for Inactive)
REMARK    1  A    between atoms: C_1  and  N_2
REMARK    2  A    between atoms: N_2  and  C_3
REMARK    3  A    between atoms: N_2  and  C_6
REMARK    4  A    between atoms: C_3  and  C_4
REMARK    5  A    between atoms: C_6  and  C_7
REMARK                            x       y       z     vdW  Elec       q    Type
REMARK                         _______ _______ _______ _____ _____    ______ ____
ROOT
ATOM      1  C   UNL     1     -10.180   7.067 130.236  0.00  0.00    +0.000 C 
ENDROOT
BRANCH   1   2
ATOM      2  C   UNL     1     -11.131   7.263 129.065  0.00  0.00    +0.000 A 
ATOM      3  C   UNL     1     -12.491   7.001 129.226  0.00  0.00    +0.000 A 
ATOM      4  C   UNL     1     -13.324   6.933 128.102  0.00  0.00    +0.000 A 
ATOM      5  C   UNL     1     -12.796   7.097 126.820  0.00  0.00    +0.000 A 
ATOM      6  C   UNL     1     -11.463   7.417 126.654  0.00  0.00    +0.000 A 
ATOM      7  C   UNL     1     -10.671   7.601 127.780  0.00  0.00    +0.000 A 
ENDBRANCH   1   2
BRANCH   1   9
ATOM      8  C   UNL     1     -10.033   4.663 130.317  0.00  0.00    +0.000 C 
ATOM      9  N   UNL     1     -10.467   5.870 131.043  0.00  0.00    +0.000 NA
BRANCH   9  10
ATOM     10  C   UNL     1      -9.787   5.956 132.342  0.00  0.00    +0.000 C 
BRANCH  10  11
ATOM     11  C   UNL     1      -8.297   6.153 132.112  0.00  0.00    +0.000 C 
ATOM     12  C   UNL     1      -7.019   6.322 131.915  0.00  0.00    +0.000 C 
ENDBRANCH  10  11
ENDBRANCH   9  10
ENDBRANCH   1   9
TORSDOF 4
ENDMDL
MODEL 7
REMARK VINA RESULT:      -4.8     10.573     11.884
REMARK  Name = Pargyline
REMARK  5 active torsions:
REMARK  status: ('A' for Active; 'I' for Inactive)
REMARK    1  A    between atoms: C_1  and  N_2
REMARK    2  A    between atoms: N_2  and  C_3
REMARK    3  A    between atoms: N_2  and  C_6
REMARK    4  A    between atoms: C_3  and  C_4
REMARK    5  A    between atoms: C_6  and  C_7
REMARK                            x       y       z     vdW  Elec       q    Type
REMARK                         _______ _______ _______ _____ _____    ______ ____
ROOT
ATOM      1  C   UNL     1      -9.189  -0.768 123.037  0.00  0.00    +0.000 C 
ENDROOT
BRANCH   1   2
ATOM      2  C   UNL     1      -8.122  -1.829 123.255  0.00  0.00    +0.000 A 
ATOM      3  C   UNL     1      -8.435  -2.994 123.955  0.00  0.00    +0.000 A 
ATOM      4  C   UNL     1      -7.409  -3.848 124.377  0.00  0.00    +0.000 A 
ATOM      5  C   UNL     1      -6.073  -3.527 124.127  0.00  0.00    +0.000 A 
ATOM      6  C   UNL     1      -5.757  -2.409 123.382  0.00  0.00    +0.000 A 
ATOM      7  C   UNL     1      -6.785  -1.632 122.865  0.00  0.00    +0.000 A 
ENDBRANCH   1   2
BRANCH   1   9
ATOM      8  C   UNL     1      -9.364   1.632 122.884  0.00  0.00    +0.000 C 
ATOM      9  N   UNL     1      -8.913   0.506 123.722  0.00  0.00    +0.000 NA
BRANCH   9  10
ATOM     10  C   UNL     1      -9.585   0.540 125.027  0.00  0.00    +0.000 C 
BRANCH  10  11
ATOM     11  C   UNL     1      -8.653  -0.031 126.083  0.00  0.00    +0.000 C 
ATOM     12  C   UNL     1      -7.854  -0.521 126.990  0.00  0.00    +0.000 C 
ENDBRANCH  10  11
ENDBRANCH   9  10
ENDBRANCH   1   9
TORSDOF 4
ENDMDL
MODEL 8
REMARK VINA RESULT:      -4.8     11.015     11.707
REMARK  Name = Pargyline
REMARK  5 active torsions:
REMARK  status: ('A' for Active; 'I' for Inactive)
REMARK    1  A    between atoms: C_1  and  N_2
REMARK    2  A    between atoms: N_2  and  C_3
REMARK    3  A    between atoms: N_2  and  C_6
REMARK    4  A    between atoms: C_3  and  C_4
REMARK    5  A    between atoms: C_6  and  C_7
REMARK                            x       y       z     vdW  Elec       q    Type
REMARK                         _______ _______ _______ _____ _____    ______ ____
ROOT
ATOM      1  C   UNL     1      -7.154  -1.830 123.316  0.00  0.00    +0.000 C 
ENDROOT
BRANCH   1   2
ATOM      2  C   UNL     1      -8.007  -0.571 123.331  0.00  0.00    +0.000 A 
ATOM      3  C   UNL     1      -9.329  -0.625 122.892  0.00  0.00    +0.000 A 
ATOM      4  C   UNL     1     -10.035   0.563 122.664  0.00  0.00    +0.000 A 
ATOM      5  C   UNL     1      -9.414   1.800 122.845  0.00  0.00    +0.000 A 
ATOM      6  C   UNL     1      -8.126   1.865 123.337  0.00  0.00    +0.000 A 
ATOM      7  C   UNL     1      -7.476   0.685 123.675  0.00  0.00    +0.000 A 
ENDBRANCH   1   2
BRANCH   1   9
ATOM      8  C   UNL     1      -7.680  -3.851 124.521  0.00  0.00    +0.000 C 
ATOM      9  N   UNL     1      -7.073  -2.511 124.620  0.00  0.00    +0.000 NA
BRANCH   9  10
ATOM     10  C   UNL     1      -5.675  -2.616 125.055  0.00  0.00    +0.000 C 
BRANCH  10  11
ATOM     11  C   UNL     1      -4.954  -3.626 124.178  0.00  0.00    +0.000 C 
ATOM     12  C   UNL     1      -4.335  -4.494 123.425  0.00  0.00    +0.000 C 
ENDBRANCH  10  11
ENDBRANCH   9  10
ENDBRANCH   1   9
TORSDOF 4
ENDMDL
MODEL 9
REMARK VINA RESULT:      -4.7      2.047      3.246
REMARK  Name = Pargyline
REMARK  5 active torsions:
REMARK  status: ('A' for Active; 'I' for Inactive)
REMARK    1  A    between atoms: C_1  and  N_2
REMARK    2  A    between atoms: N_2  and  C_3
REMARK    3  A    between atoms: N_2  and  C_6
REMARK    4  A    between atoms: C_3  and  C_4
REMARK    5  A    between atoms: C_6  and  C_7
REMARK                            x       y       z     vdW  Elec       q    Type
REMARK                         _______ _______ _______ _____ _____    ______ ____
ROOT
ATOM      1  C   UNL     1      -9.248   5.982 132.120  0.00  0.00    +0.000 C 
ENDROOT
BRANCH   1   2
ATOM      2  C   UNL     1     -10.380   6.523 131.260  0.00  0.00    +0.000 A 
ATOM      3  C   UNL     1     -10.089   7.197 130.075  0.00  0.00    +0.000 A 
ATOM      4  C   UNL     1     -11.097   7.912 129.417  0.00  0.00    +0.000 A 
ATOM      5  C   UNL     1     -12.384   7.979 129.955  0.00  0.00    +0.000 A 
ATOM      6  C   UNL     1     -12.697   7.266 131.094  0.00  0.00    +0.000 A 
ATOM      7  C   UNL     1     -11.723   6.463 131.674  0.00  0.00    +0.000 A 
ENDBRANCH   1   2
BRANCH   1   9
ATOM      8  C   UNL     1      -7.744   4.177 131.581  0.00  0.00    +0.000 C 
ATOM      9  N   UNL     1      -9.098   4.518 132.054  0.00  0.00    +0.000 NA
BRANCH   9  10
ATOM     10  C   UNL     1      -9.343   3.921 133.373  0.00  0.00    +0.000 C 
BRANCH  10  11
ATOM     11  C   UNL     1      -8.340   4.481 134.368  0.00  0.00    +0.000 C 
ATOM     12  C   UNL     1      -7.480   4.963 135.223  0.00  0.00    +0.000 C 
ENDBRANCH  10  11
ENDBRANCH   9  10
ENDBRANCH   1   9
TORSDOF 4
ENDMDL
