MODEL 1
REMARK VINA RESULT:      -8.0      0.000      0.000
REMARK  Name = Paricalcitol
REMARK  13 active torsions:
REMARK  status: ('A' for Active; 'I' for Inactive)
REMARK    1  A    between atoms: C_2  and  C_23
REMARK    2  A    between atoms: C_11  and  C_12
REMARK    3  A    between atoms: C_13  and  C_14
REMARK    4  A    between atoms: C_17  and  O_18
REMARK    5  A    between atoms: C_20  and  O_21
REMARK    6  A    between atoms: C_23  and  C_24
REMARK    7  A    between atoms: C_23  and  C_25
REMARK    8  A    between atoms: C_26  and  C_27
REMARK    9  A    between atoms: C_27  and  C_28
REMARK   10  A    between atoms: C_27  and  C_29
REMARK   11  A    between atoms: C_29  and  C_30
REMARK   12  A    between atoms: C_29  and  C_31
REMARK   13  A    between atoms: C_29  and  O_32
REMARK                            x       y       z     vdW  Elec       q    Type
REMARK                         _______ _______ _______ _____ _____    ______ ____
ROOT
ATOM      1  C   UNL     1      -8.552  -1.542 124.972  0.00  0.00    +0.000 C 
ATOM      2  C   UNL     1      -8.989  -3.030 125.025  0.00  0.00    +0.000 C 
ATOM      3  C   UNL     1      -8.708  -3.549 126.429  0.00  0.00    +0.000 C 
ATOM      4  C   UNL     1      -8.494  -2.282 127.234  0.00  0.00    +0.000 C 
ATOM      5  C   UNL     1      -7.814  -2.313 128.570  0.00  0.00    +0.000 C 
ATOM      6  C   UNL     1      -7.717  -0.907 129.143  0.00  0.00    +0.000 C 
ATOM      7  C   UNL     1      -7.116   0.136 128.228  0.00  0.00    +0.000 C 
ATOM      8  C   UNL     1      -7.757   0.092 126.846  0.00  0.00    +0.000 C 
ATOM      9  C   UNL     1      -7.726  -1.344 126.270  0.00  0.00    +0.000 C 
ATOM     10  C   UNL     1      -6.253  -1.790 126.076  0.00  0.00    +0.000 C 
ATOM     11  C   UNL     1      -7.399  -3.432 129.192  0.00  0.00    +0.000 C 
ENDROOT
BRANCH  11  12
ATOM     12  C   UNL     1      -6.841  -3.492 130.527  0.00  0.00    +0.000 C 
ATOM     13  C   UNL     1      -5.533  -3.372 130.830  0.00  0.00    +0.000 C 
ATOM     14  C   UNL     1      -5.040  -3.451 132.249  0.00  0.00    +0.000 C 
ATOM     15  C   UNL     1      -4.152  -2.237 132.551  0.00  0.00    +0.000 C 
ATOM     16  C   UNL     1      -2.987  -2.108 131.560  0.00  0.00    +0.000 C 
ATOM     17  C   UNL     1      -3.484  -2.015 130.130  0.00  0.00    +0.000 C 
ATOM     18  C   UNL     1      -4.418  -3.162 129.816  0.00  0.00    +0.000 C 
BRANCH  15  19
ATOM     19  O   UNL     1      -3.647  -2.317 133.878  0.00  0.00    +0.000 OA
ATOM     20  H   UNL     1      -4.345  -2.682 134.446  0.00  0.00    +0.000 HD
ENDBRANCH  15  19
BRANCH  17  21
ATOM     21  O   UNL     1      -4.151  -0.776 129.902  0.00  0.00    +0.000 OA
ATOM     22  H   UNL     1      -3.680  -0.311 129.187  0.00  0.00    +0.000 HD
ENDBRANCH  17  21
ENDBRANCH  11  12
BRANCH   1  23
ATOM     23  C   UNL     1      -7.833  -1.131 123.662  0.00  0.00    +0.000 C 
ATOM     24  C   UNL     1      -8.189  -2.011 122.458  0.00  0.00    +0.000 C 
BRANCH  23  25
ATOM     25  C   UNL     1      -8.068   0.326 123.386  0.00  0.00    +0.000 C 
ATOM     26  C   UNL     1      -7.052   1.202 123.266  0.00  0.00    +0.000 C 
BRANCH  26  27
ATOM     27  C   UNL     1      -7.200   2.669 123.002  0.00  0.00    +0.000 C 
ATOM     28  C   UNL     1      -6.280   3.063 121.839  0.00  0.00    +0.000 C 
BRANCH  27  29
ATOM     29  C   UNL     1      -6.915   3.497 124.297  0.00  0.00    +0.000 C 
ATOM     30  C   UNL     1      -8.173   3.707 125.154  0.00  0.00    +0.000 C 
ATOM     31  C   UNL     1      -5.830   2.810 125.127  0.00  0.00    +0.000 C 
BRANCH  29  32
ATOM     32  O   UNL     1      -6.375   4.785 123.958  0.00  0.00    +0.000 OA
ATOM     33  H   UNL     1      -7.041   5.468 124.140  0.00  0.00    +0.000 HD
ENDBRANCH  29  32
ENDBRANCH  27  29
ENDBRANCH  26  27
ENDBRANCH  23  25
ENDBRANCH   1  23
TORSDOF 8
ENDMDL
MODEL 2
REMARK VINA RESULT:      -7.8      4.483      7.794
REMARK  Name = Paricalcitol
REMARK  13 active torsions:
REMARK  status: ('A' for Active; 'I' for Inactive)
REMARK    1  A    between atoms: C_2  and  C_23
REMARK    2  A    between atoms: C_11  and  C_12
REMARK    3  A    between atoms: C_13  and  C_14
REMARK    4  A    between atoms: C_17  and  O_18
REMARK    5  A    between atoms: C_20  and  O_21
REMARK    6  A    between atoms: C_23  and  C_24
REMARK    7  A    between atoms: C_23  and  C_25
REMARK    8  A    between atoms: C_26  and  C_27
REMARK    9  A    between atoms: C_27  and  C_28
REMARK   10  A    between atoms: C_27  and  C_29
REMARK   11  A    between atoms: C_29  and  C_30
REMARK   12  A    between atoms: C_29  and  C_31
REMARK   13  A    between atoms: C_29  and  O_32
REMARK                            x       y       z     vdW  Elec       q    Type
REMARK                         _______ _______ _______ _____ _____    ______ ____
ROOT
ATOM      1  C   UNL     1      -4.567   3.665 127.309  0.00  0.00    +0.000 C 
ATOM      2  C   UNL     1      -4.411   4.361 125.930  0.00  0.00    +0.000 C 
ATOM      3  C   UNL     1      -5.403   3.717 124.969  0.00  0.00    +0.000 C 
ATOM      4  C   UNL     1      -6.347   2.969 125.890  0.00  0.00    +0.000 C 
ATOM      5  C   UNL     1      -7.243   1.883 125.373  0.00  0.00    +0.000 C 
ATOM      6  C   UNL     1      -8.064   1.294 126.509  0.00  0.00    +0.000 C 
ATOM      7  C   UNL     1      -7.282   0.848 127.725  0.00  0.00    +0.000 C 
ATOM      8  C   UNL     1      -6.311   1.931 128.182  0.00  0.00    +0.000 C 
ATOM      9  C   UNL     1      -5.428   2.411 127.006  0.00  0.00    +0.000 C 
ATOM     10  C   UNL     1      -4.553   1.234 126.503  0.00  0.00    +0.000 C 
ATOM     11  C   UNL     1      -7.340   1.523 124.080  0.00  0.00    +0.000 C 
ENDROOT
BRANCH  11  12
ATOM     12  C   UNL     1      -8.276   0.554 123.548  0.00  0.00    +0.000 C 
ATOM     13  C   UNL     1      -8.060  -0.774 123.464  0.00  0.00    +0.000 C 
ATOM     14  C   UNL     1      -9.090  -1.708 122.892  0.00  0.00    +0.000 C 
ATOM     15  C   UNL     1      -9.335  -2.863 123.871  0.00  0.00    +0.000 C 
ATOM     16  C   UNL     1      -8.042  -3.607 124.229  0.00  0.00    +0.000 C 
ATOM     17  C   UNL     1      -7.007  -2.668 124.819  0.00  0.00    +0.000 C 
ATOM     18  C   UNL     1      -6.787  -1.480 123.910  0.00  0.00    +0.000 C 
BRANCH  15  19
ATOM     19  O   UNL     1     -10.279  -3.776 123.327  0.00  0.00    +0.000 OA
ATOM     20  H   UNL     1     -10.646  -3.385 122.517  0.00  0.00    +0.000 HD
ENDBRANCH  15  19
BRANCH  17  21
ATOM     21  O   UNL     1      -7.406  -2.216 126.111  0.00  0.00    +0.000 OA
ATOM     22  H   UNL     1      -8.006  -2.885 126.489  0.00  0.00    +0.000 HD
ENDBRANCH  17  21
ENDBRANCH  11  12
BRANCH   1  23
ATOM     23  C   UNL     1      -3.229   3.387 128.040  0.00  0.00    +0.000 C 
ATOM     24  C   UNL     1      -1.987   3.632 127.175  0.00  0.00    +0.000 C 
BRANCH  23  25
ATOM     25  C   UNL     1      -3.181   4.159 129.328  0.00  0.00    +0.000 C 
ATOM     26  C   UNL     1      -2.533   5.336 129.429  0.00  0.00    +0.000 C 
BRANCH  26  27
ATOM     27  C   UNL     1      -2.427   6.161 130.674  0.00  0.00    +0.000 C 
ATOM     28  C   UNL     1      -2.491   5.234 131.895  0.00  0.00    +0.000 C 
BRANCH  27  29
ATOM     29  C   UNL     1      -3.533   7.265 130.704  0.00  0.00    +0.000 C 
ATOM     30  C   UNL     1      -3.820   7.854 129.313  0.00  0.00    +0.000 C 
ATOM     31  C   UNL     1      -4.821   6.699 131.304  0.00  0.00    +0.000 C 
BRANCH  29  32
ATOM     32  O   UNL     1      -3.146   8.337 131.580  0.00  0.00    +0.000 OA
ATOM     33  H   UNL     1      -3.483   9.177 131.226  0.00  0.00    +0.000 HD
ENDBRANCH  29  32
ENDBRANCH  27  29
ENDBRANCH  26  27
ENDBRANCH  23  25
ENDBRANCH   1  23
TORSDOF 8
ENDMDL
MODEL 3
REMARK VINA RESULT:      -7.7      4.819      6.870
REMARK  Name = Paricalcitol
REMARK  13 active torsions:
REMARK  status: ('A' for Active; 'I' for Inactive)
REMARK    1  A    between atoms: C_2  and  C_23
REMARK    2  A    between atoms: C_11  and  C_12
REMARK    3  A    between atoms: C_13  and  C_14
REMARK    4  A    between atoms: C_17  and  O_18
REMARK    5  A    between atoms: C_20  and  O_21
REMARK    6  A    between atoms: C_23  and  C_24
REMARK    7  A    between atoms: C_23  and  C_25
REMARK    8  A    between atoms: C_26  and  C_27
REMARK    9  A    between atoms: C_27  and  C_28
REMARK   10  A    between atoms: C_27  and  C_29
REMARK   11  A    between atoms: C_29  and  C_30
REMARK   12  A    between atoms: C_29  and  C_31
REMARK   13  A    between atoms: C_29  and  O_32
REMARK                            x       y       z     vdW  Elec       q    Type
REMARK                         _______ _______ _______ _____ _____    ______ ____
ROOT
ATOM      1  C   UNL     1      -8.004   4.798 130.355  0.00  0.00    +0.000 C 
ATOM      2  C   UNL     1      -6.574   4.527 129.816  0.00  0.00    +0.000 C 
ATOM      3  C   UNL     1      -6.208   3.092 130.170  0.00  0.00    +0.000 C 
ATOM      4  C   UNL     1      -7.542   2.470 130.539  0.00  0.00    +0.000 C 
ATOM      5  C   UNL     1      -7.616   1.192 131.319  0.00  0.00    +0.000 C 
ATOM      6  C   UNL     1      -9.068   0.810 131.564  0.00  0.00    +0.000 C 
ATOM      7  C   UNL     1      -9.940   1.890 132.165  0.00  0.00    +0.000 C 
ATOM      8  C   UNL     1      -9.782   3.208 131.414  0.00  0.00    +0.000 C 
ATOM      9  C   UNL     1      -8.290   3.597 131.294  0.00  0.00    +0.000 C 
ATOM     10  C   UNL     1      -7.703   3.836 132.710  0.00  0.00    +0.000 C 
ATOM     11  C   UNL     1      -6.550   0.464 131.699  0.00  0.00    +0.000 C 
ENDROOT
BRANCH  11  12
ATOM     12  C   UNL     1      -6.607  -0.825 132.356  0.00  0.00    +0.000 C 
ATOM     13  C   UNL     1      -6.625  -2.019 131.729  0.00  0.00    +0.000 C 
ATOM     14  C   UNL     1      -6.689  -3.313 132.494  0.00  0.00    +0.000 C 
ATOM     15  C   UNL     1      -5.573  -4.249 132.012  0.00  0.00    +0.000 C 
ATOM     16  C   UNL     1      -5.629  -4.490 130.498  0.00  0.00    +0.000 C 
ATOM     17  C   UNL     1      -5.551  -3.187 129.726  0.00  0.00    +0.000 C 
ATOM     18  C   UNL     1      -6.596  -2.212 130.220  0.00  0.00    +0.000 C 
BRANCH  15  19
ATOM     19  O   UNL     1      -5.644  -5.491 132.699  0.00  0.00    +0.000 OA
ATOM     20  H   UNL     1      -5.214  -6.166 132.149  0.00  0.00    +0.000 HD
ENDBRANCH  15  19
BRANCH  17  21
ATOM     21  O   UNL     1      -4.256  -2.602 129.842  0.00  0.00    +0.000 OA
ATOM     22  H   UNL     1      -4.282  -1.730 129.408  0.00  0.00    +0.000 HD
ENDBRANCH  17  21
ENDBRANCH  11  12
BRANCH   1  23
ATOM     23  C   UNL     1      -8.193   6.197 130.996  0.00  0.00    +0.000 C 
ATOM     24  C   UNL     1      -6.893   7.000 131.125  0.00  0.00    +0.000 C 
BRANCH  23  25
ATOM     25  C   UNL     1      -9.255   6.959 130.256  0.00  0.00    +0.000 C 
ATOM     26  C   UNL     1      -9.830   6.475 129.138  0.00  0.00    +0.000 C 
BRANCH  26  27
ATOM     27  C   UNL     1     -10.885   7.174 128.336  0.00  0.00    +0.000 C 
ATOM     28  C   UNL     1     -10.569   8.675 128.294  0.00  0.00    +0.000 C 
BRANCH  27  29
ATOM     29  C   UNL     1     -12.307   6.877 128.912  0.00  0.00    +0.000 C 
ATOM     30  C   UNL     1     -12.683   7.812 130.072  0.00  0.00    +0.000 C 
ATOM     31  C   UNL     1     -13.353   6.981 127.801  0.00  0.00    +0.000 C 
BRANCH  29  32
ATOM     32  O   UNL     1     -12.384   5.519 129.379  0.00  0.00    +0.000 OA
ATOM     33  H   UNL     1     -13.240   5.140 129.118  0.00  0.00    +0.000 HD
ENDBRANCH  29  32
ENDBRANCH  27  29
ENDBRANCH  26  27
ENDBRANCH  23  25
ENDBRANCH   1  23
TORSDOF 8
ENDMDL
MODEL 4
REMARK VINA RESULT:      -7.6      4.496      7.167
REMARK  Name = Paricalcitol
REMARK  13 active torsions:
REMARK  status: ('A' for Active; 'I' for Inactive)
REMARK    1  A    between atoms: C_2  and  C_23
REMARK    2  A    between atoms: C_11  and  C_12
REMARK    3  A    between atoms: C_13  and  C_14
REMARK    4  A    between atoms: C_17  and  O_18
REMARK    5  A    between atoms: C_20  and  O_21
REMARK    6  A    between atoms: C_23  and  C_24
REMARK    7  A    between atoms: C_23  and  C_25
REMARK    8  A    between atoms: C_26  and  C_27
REMARK    9  A    between atoms: C_27  and  C_28
REMARK   10  A    between atoms: C_27  and  C_29
REMARK   11  A    between atoms: C_29  and  C_30
REMARK   12  A    between atoms: C_29  and  C_31
REMARK   13  A    between atoms: C_29  and  O_32
REMARK                            x       y       z     vdW  Elec       q    Type
REMARK                         _______ _______ _______ _____ _____    ______ ____
ROOT
ATOM      1  C   UNL     1      -7.033   1.872 125.533  0.00  0.00    +0.000 C 
ATOM      2  C   UNL     1      -6.354   2.675 124.391  0.00  0.00    +0.000 C 
ATOM      3  C   UNL     1      -5.125   3.362 124.971  0.00  0.00    +0.000 C 
ATOM      4  C   UNL     1      -4.911   2.641 126.289  0.00  0.00    +0.000 C 
ATOM      5  C   UNL     1      -4.056   3.233 127.370  0.00  0.00    +0.000 C 
ATOM      6  C   UNL     1      -4.032   2.313 128.581  0.00  0.00    +0.000 C 
ATOM      7  C   UNL     1      -5.382   1.876 129.104  0.00  0.00    +0.000 C 
ATOM      8  C   UNL     1      -6.270   1.363 127.976  0.00  0.00    +0.000 C 
ATOM      9  C   UNL     1      -6.343   2.390 126.822  0.00  0.00    +0.000 C 
ATOM     10  C   UNL     1      -7.009   3.694 127.333  0.00  0.00    +0.000 C 
ATOM     11  C   UNL     1      -3.370   4.385 127.259  0.00  0.00    +0.000 C 
ENDROOT
BRANCH  11  12
ATOM     12  C   UNL     1      -2.457   4.915 128.249  0.00  0.00    +0.000 C 
ATOM     13  C   UNL     1      -2.683   6.000 129.017  0.00  0.00    +0.000 C 
ATOM     14  C   UNL     1      -1.672   6.483 130.021  0.00  0.00    +0.000 C 
ATOM     15  C   UNL     1      -2.351   6.666 131.384  0.00  0.00    +0.000 C 
ATOM     16  C   UNL     1      -3.561   7.607 131.310  0.00  0.00    +0.000 C 
ATOM     17  C   UNL     1      -4.587   7.113 130.308  0.00  0.00    +0.000 C 
ATOM     18  C   UNL     1      -3.939   6.858 128.966  0.00  0.00    +0.000 C 
BRANCH  15  19
ATOM     19  O   UNL     1      -1.417   7.160 132.335  0.00  0.00    +0.000 OA
ATOM     20  H   UNL     1      -0.629   7.465 131.855  0.00  0.00    +0.000 HD
ENDBRANCH  15  19
BRANCH  17  21
ATOM     21  O   UNL     1      -5.219   5.922 130.770  0.00  0.00    +0.000 OA
ATOM     22  H   UNL     1      -5.045   5.219 130.118  0.00  0.00    +0.000 HD
ENDBRANCH  17  21
ENDBRANCH  11  12
BRANCH   1  23
ATOM     23  C   UNL     1      -8.581   1.947 125.537  0.00  0.00    +0.000 C 
ATOM     24  C   UNL     1      -9.171   2.629 124.296  0.00  0.00    +0.000 C 
BRANCH  23  25
ATOM     25  C   UNL     1      -9.158   0.578 125.756  0.00  0.00    +0.000 C 
ATOM     26  C   UNL     1      -8.488  -0.540 125.416  0.00  0.00    +0.000 C 
BRANCH  26  27
ATOM     27  C   UNL     1      -8.995  -1.939 125.589  0.00  0.00    +0.000 C 
ATOM     28  C   UNL     1      -8.314  -2.569 126.812  0.00  0.00    +0.000 C 
BRANCH  27  29
ATOM     29  C   UNL     1      -8.776  -2.774 124.286  0.00  0.00    +0.000 C 
ATOM     30  C   UNL     1      -8.238  -1.927 123.123  0.00  0.00    +0.000 C 
ATOM     31  C   UNL     1      -7.824  -3.938 124.566  0.00  0.00    +0.000 C 
BRANCH  29  32
ATOM     32  O   UNL     1     -10.010  -3.385 123.871  0.00  0.00    +0.000 OA
ATOM     33  H   UNL     1     -10.421  -3.823 124.634  0.00  0.00    +0.000 HD
ENDBRANCH  29  32
ENDBRANCH  27  29
ENDBRANCH  26  27
ENDBRANCH  23  25
ENDBRANCH   1  23
TORSDOF 8
ENDMDL
MODEL 5
REMARK VINA RESULT:      -7.3      4.323      7.683
REMARK  Name = Paricalcitol
REMARK  13 active torsions:
REMARK  status: ('A' for Active; 'I' for Inactive)
REMARK    1  A    between atoms: C_2  and  C_23
REMARK    2  A    between atoms: C_11  and  C_12
REMARK    3  A    between atoms: C_13  and  C_14
REMARK    4  A    between atoms: C_17  and  O_18
REMARK    5  A    between atoms: C_20  and  O_21
REMARK    6  A    between atoms: C_23  and  C_24
REMARK    7  A    between atoms: C_23  and  C_25
REMARK    8  A    between atoms: C_26  and  C_27
REMARK    9  A    between atoms: C_27  and  C_28
REMARK   10  A    between atoms: C_27  and  C_29
REMARK   11  A    between atoms: C_29  and  C_30
REMARK   12  A    between atoms: C_29  and  C_31
REMARK   13  A    between atoms: C_29  and  O_32
REMARK                            x       y       z     vdW  Elec       q    Type
REMARK                         _______ _______ _______ _____ _____    ______ ____
ROOT
ATOM      1  C   UNL     1      -5.334   4.030 127.778  0.00  0.00    +0.000 C 
ATOM      2  C   UNL     1      -4.618   4.421 126.457  0.00  0.00    +0.000 C 
ATOM      3  C   UNL     1      -5.283   3.654 125.322  0.00  0.00    +0.000 C 
ATOM      4  C   UNL     1      -6.577   3.162 125.943  0.00  0.00    +0.000 C 
ATOM      5  C   UNL     1      -7.364   2.047 125.323  0.00  0.00    +0.000 C 
ATOM      6  C   UNL     1      -8.600   1.748 126.159  0.00  0.00    +0.000 C 
ATOM      7  C   UNL     1      -8.356   1.515 127.633  0.00  0.00    +0.000 C 
ATOM      8  C   UNL     1      -7.478   2.611 128.226  0.00  0.00    +0.000 C 
ATOM      9  C   UNL     1      -6.186   2.792 127.395  0.00  0.00    +0.000 C 
ATOM     10  C   UNL     1      -5.347   1.489 127.456  0.00  0.00    +0.000 C 
ATOM     11  C   UNL     1      -7.047   1.437 124.165  0.00  0.00    +0.000 C 
ENDROOT
BRANCH  11  12
ATOM     12  C   UNL     1      -7.852   0.436 123.498  0.00  0.00    +0.000 C 
ATOM     13  C   UNL     1      -7.784  -0.892 123.719  0.00  0.00    +0.000 C 
ATOM     14  C   UNL     1      -8.659  -1.863 122.974  0.00  0.00    +0.000 C 
ATOM     15  C   UNL     1      -9.367  -2.787 123.974  0.00  0.00    +0.000 C 
ATOM     16  C   UNL     1      -8.379  -3.515 124.894  0.00  0.00    +0.000 C 
ATOM     17  C   UNL     1      -7.505  -2.536 125.655  0.00  0.00    +0.000 C 
ATOM     18  C   UNL     1      -6.841  -1.565 124.705  0.00  0.00    +0.000 C 
BRANCH  15  19
ATOM     19  O   UNL     1     -10.168  -3.736 123.283  0.00  0.00    +0.000 OA
ATOM     20  H   UNL     1     -10.493  -4.385 123.928  0.00  0.00    +0.000 HD
ENDBRANCH  15  19
BRANCH  17  21
ATOM     21  O   UNL     1      -8.269  -1.816 126.621  0.00  0.00    +0.000 OA
ATOM     22  H   UNL     1      -8.886  -2.443 127.040  0.00  0.00    +0.000 HD
ENDBRANCH  17  21
ENDBRANCH  11  12
BRANCH   1  23
ATOM     23  C   UNL     1      -4.384   3.831 128.986  0.00  0.00    +0.000 C 
ATOM     24  C   UNL     1      -2.902   4.040 128.651  0.00  0.00    +0.000 C 
BRANCH  23  25
ATOM     25  C   UNL     1      -4.830   4.692 130.134  0.00  0.00    +0.000 C 
ATOM     26  C   UNL     1      -5.969   5.409 130.085  0.00  0.00    +0.000 C 
BRANCH  26  27
ATOM     27  C   UNL     1      -6.478   6.298 131.178  0.00  0.00    +0.000 C 
ATOM     28  C   UNL     1      -5.618   6.092 132.432  0.00  0.00    +0.000 C 
BRANCH  27  29
ATOM     29  C   UNL     1      -7.996   6.038 131.443  0.00  0.00    +0.000 C 
ATOM     30  C   UNL     1      -8.906   7.027 130.698  0.00  0.00    +0.000 C 
ATOM     31  C   UNL     1      -8.356   4.604 131.050  0.00  0.00    +0.000 C 
BRANCH  29  32
ATOM     32  O   UNL     1      -8.281   6.128 132.850  0.00  0.00    +0.000 OA
ATOM     33  H   UNL     1      -8.966   6.801 132.994  0.00  0.00    +0.000 HD
ENDBRANCH  29  32
ENDBRANCH  27  29
ENDBRANCH  26  27
ENDBRANCH  23  25
ENDBRANCH   1  23
TORSDOF 8
ENDMDL
MODEL 6
REMARK VINA RESULT:      -7.3      9.301     12.056
REMARK  Name = Paricalcitol
REMARK  13 active torsions:
REMARK  status: ('A' for Active; 'I' for Inactive)
REMARK    1  A    between atoms: C_2  and  C_23
REMARK    2  A    between atoms: C_11  and  C_12
REMARK    3  A    between atoms: C_13  and  C_14
REMARK    4  A    between atoms: C_17  and  O_18
REMARK    5  A    between atoms: C_20  and  O_21
REMARK    6  A    between atoms: C_23  and  C_24
REMARK    7  A    between atoms: C_23  and  C_25
REMARK    8  A    between atoms: C_26  and  C_27
REMARK    9  A    between atoms: C_27  and  C_28
REMARK   10  A    between atoms: C_27  and  C_29
REMARK   11  A    between atoms: C_29  and  C_30
REMARK   12  A    between atoms: C_29  and  C_31
REMARK   13  A    between atoms: C_29  and  O_32
REMARK                            x       y       z     vdW  Elec       q    Type
REMARK                         _______ _______ _______ _____ _____    ______ ____
ROOT
ATOM      1  C   UNL     1      -1.445   8.088 132.837  0.00  0.00    +0.000 C 
ATOM      2  C   UNL     1      -0.545   6.831 132.981  0.00  0.00    +0.000 C 
ATOM      3  C   UNL     1      -1.041   5.787 131.990  0.00  0.00    +0.000 C 
ATOM      4  C   UNL     1      -1.929   6.585 131.055  0.00  0.00    +0.000 C 
ATOM      5  C   UNL     1      -2.929   5.910 130.165  0.00  0.00    +0.000 C 
ATOM      6  C   UNL     1      -3.692   6.946 129.352  0.00  0.00    +0.000 C 
ATOM      7  C   UNL     1      -4.313   8.076 130.142  0.00  0.00    +0.000 C 
ATOM      8  C   UNL     1      -3.305   8.690 131.108  0.00  0.00    +0.000 C 
ATOM      9  C   UNL     1      -2.644   7.599 131.983  0.00  0.00    +0.000 C 
ATOM     10  C   UNL     1      -3.724   6.919 132.864  0.00  0.00    +0.000 C 
ATOM     11  C   UNL     1      -3.088   4.577 130.064  0.00  0.00    +0.000 C 
ENDROOT
BRANCH  11  12
ATOM     12  C   UNL     1      -3.970   3.906 129.133  0.00  0.00    +0.000 C 
ATOM     13  C   UNL     1      -5.265   3.607 129.363  0.00  0.00    +0.000 C 
ATOM     14  C   UNL     1      -6.108   2.902 128.336  0.00  0.00    +0.000 C 
ATOM     15  C   UNL     1      -7.409   3.685 128.117  0.00  0.00    +0.000 C 
ATOM     16  C   UNL     1      -8.183   3.904 129.424  0.00  0.00    +0.000 C 
ATOM     17  C   UNL     1      -7.338   4.626 130.455  0.00  0.00    +0.000 C 
ATOM     18  C   UNL     1      -6.016   3.918 130.649  0.00  0.00    +0.000 C 
BRANCH  15  19
ATOM     19  O   UNL     1      -8.235   3.011 127.177  0.00  0.00    +0.000 OA
ATOM     20  H   UNL     1      -8.423   3.623 126.446  0.00  0.00    +0.000 HD
ENDBRANCH  15  19
BRANCH  17  21
ATOM     21  O   UNL     1      -7.106   5.978 130.068  0.00  0.00    +0.000 OA
ATOM     22  H   UNL     1      -7.146   6.530 130.870  0.00  0.00    +0.000 HD
ENDBRANCH  17  21
ENDBRANCH  11  12
BRANCH   1  23
ATOM     23  C   UNL     1      -1.822   8.764 134.179  0.00  0.00    +0.000 C 
ATOM     24  C   UNL     1      -1.138   8.139 135.401  0.00  0.00    +0.000 C 
BRANCH  23  25
ATOM     25  C   UNL     1      -1.580  10.244 134.092  0.00  0.00    +0.000 C 
ATOM     26  C   UNL     1      -0.745  10.775 133.179  0.00  0.00    +0.000 C 
BRANCH  26  27
ATOM     27  C   UNL     1      -0.439  12.235 133.032  0.00  0.00    +0.000 C 
ATOM     28  C   UNL     1      -1.558  12.901 132.220  0.00  0.00    +0.000 C 
BRANCH  27  29
ATOM     29  C   UNL     1       0.971  12.445 132.392  0.00  0.00    +0.000 C 
ATOM     30  C   UNL     1       1.859  11.194 132.491  0.00  0.00    +0.000 C 
ATOM     31  C   UNL     1       0.824  12.863 130.929  0.00  0.00    +0.000 C 
BRANCH  29  32
ATOM     32  O   UNL     1       1.653  13.538 133.032  0.00  0.00    +0.000 OA
ATOM     33  H   UNL     1       1.205  13.748 133.867  0.00  0.00    +0.000 HD
ENDBRANCH  29  32
ENDBRANCH  27  29
ENDBRANCH  26  27
ENDBRANCH  23  25
ENDBRANCH   1  23
TORSDOF 8
ENDMDL
MODEL 7
REMARK VINA RESULT:      -7.3      4.809      6.975
REMARK  Name = Paricalcitol
REMARK  13 active torsions:
REMARK  status: ('A' for Active; 'I' for Inactive)
REMARK    1  A    between atoms: C_2  and  C_23
REMARK    2  A    between atoms: C_11  and  C_12
REMARK    3  A    between atoms: C_13  and  C_14
REMARK    4  A    between atoms: C_17  and  O_18
REMARK    5  A    between atoms: C_20  and  O_21
REMARK    6  A    between atoms: C_23  and  C_24
REMARK    7  A    between atoms: C_23  and  C_25
REMARK    8  A    between atoms: C_26  and  C_27
REMARK    9  A    between atoms: C_27  and  C_28
REMARK   10  A    between atoms: C_27  and  C_29
REMARK   11  A    between atoms: C_29  and  C_30
REMARK   12  A    between atoms: C_29  and  C_31
REMARK   13  A    between atoms: C_29  and  O_32
REMARK                            x       y       z     vdW  Elec       q    Type
REMARK                         _______ _______ _______ _____ _____    ______ ____
ROOT
ATOM      1  C   UNL     1      -8.369   4.490 130.497  0.00  0.00    +0.000 C 
ATOM      2  C   UNL     1      -7.210   4.575 129.467  0.00  0.00    +0.000 C 
ATOM      3  C   UNL     1      -6.643   3.173 129.288  0.00  0.00    +0.000 C 
ATOM      4  C   UNL     1      -7.711   2.283 129.896  0.00  0.00    +0.000 C 
ATOM      5  C   UNL     1      -7.413   0.867 130.289  0.00  0.00    +0.000 C 
ATOM      6  C   UNL     1      -8.652   0.217 130.887  0.00  0.00    +0.000 C 
ATOM      7  C   UNL     1      -9.325   0.983 132.003  0.00  0.00    +0.000 C 
ATOM      8  C   UNL     1      -9.536   2.444 131.619  0.00  0.00    +0.000 C 
ATOM      9  C   UNL     1      -8.216   3.080 131.124  0.00  0.00    +0.000 C 
ATOM     10  C   UNL     1      -7.181   3.085 132.279  0.00  0.00    +0.000 C 
ATOM     11  C   UNL     1      -6.234   0.249 130.092  0.00  0.00    +0.000 C 
ENDROOT
BRANCH  11  12
ATOM     12  C   UNL     1      -5.963  -1.147 130.365  0.00  0.00    +0.000 C 
ATOM     13  C   UNL     1      -5.504  -1.637 131.534  0.00  0.00    +0.000 C 
ATOM     14  C   UNL     1      -5.246  -3.106 131.728  0.00  0.00    +0.000 C 
ATOM     15  C   UNL     1      -5.953  -3.587 133.002  0.00  0.00    +0.000 C 
ATOM     16  C   UNL     1      -5.539  -2.777 134.238  0.00  0.00    +0.000 C 
ATOM     17  C   UNL     1      -5.811  -1.297 134.048  0.00  0.00    +0.000 C 
ATOM     18  C   UNL     1      -5.183  -0.801 132.765  0.00  0.00    +0.000 C 
BRANCH  15  19
ATOM     19  O   UNL     1      -5.687  -4.966 133.220  0.00  0.00    +0.000 OA
ATOM     20  H   UNL     1      -4.742  -5.064 133.422  0.00  0.00    +0.000 HD
ENDBRANCH  15  19
BRANCH  17  21
ATOM     21  O   UNL     1      -7.212  -1.034 134.030  0.00  0.00    +0.000 OA
ATOM     22  H   UNL     1      -7.640  -1.736 133.507  0.00  0.00    +0.000 HD
ENDBRANCH  17  21
ENDBRANCH  11  12
BRANCH   1  23
ATOM     23  C   UNL     1      -8.413   5.662 131.510  0.00  0.00    +0.000 C 
ATOM     24  C   UNL     1      -7.243   6.645 131.372  0.00  0.00    +0.000 C 
BRANCH  23  25
ATOM     25  C   UNL     1      -9.743   6.355 131.433  0.00  0.00    +0.000 C 
ATOM     26  C   UNL     1     -10.156   6.981 130.314  0.00  0.00    +0.000 C 
BRANCH  26  27
ATOM     27  C   UNL     1     -11.459   7.703 130.157  0.00  0.00    +0.000 C 
ATOM     28  C   UNL     1     -12.523   7.005 131.015  0.00  0.00    +0.000 C 
BRANCH  27  29
ATOM     29  C   UNL     1     -11.867   7.791 128.651  0.00  0.00    +0.000 C 
ATOM     30  C   UNL     1     -13.113   8.661 128.424  0.00  0.00    +0.000 C 
ATOM     31  C   UNL     1     -10.699   8.330 127.824  0.00  0.00    +0.000 C 
BRANCH  29  32
ATOM     32  O   UNL     1     -12.129   6.477 128.127  0.00  0.00    +0.000 OA
ATOM     33  H   UNL     1     -11.295   5.981 128.080  0.00  0.00    +0.000 HD
ENDBRANCH  29  32
ENDBRANCH  27  29
ENDBRANCH  26  27
ENDBRANCH  23  25
ENDBRANCH   1  23
TORSDOF 8
ENDMDL
MODEL 8
REMARK VINA RESULT:      -7.3      4.752     10.124
REMARK  Name = Paricalcitol
REMARK  13 active torsions:
REMARK  status: ('A' for Active; 'I' for Inactive)
REMARK    1  A    between atoms: C_2  and  C_23
REMARK    2  A    between atoms: C_11  and  C_12
REMARK    3  A    between atoms: C_13  and  C_14
REMARK    4  A    between atoms: C_17  and  O_18
REMARK    5  A    between atoms: C_20  and  O_21
REMARK    6  A    between atoms: C_23  and  C_24
REMARK    7  A    between atoms: C_23  and  C_25
REMARK    8  A    between atoms: C_26  and  C_27
REMARK    9  A    between atoms: C_27  and  C_28
REMARK   10  A    between atoms: C_27  and  C_29
REMARK   11  A    between atoms: C_29  and  C_30
REMARK   12  A    between atoms: C_29  and  C_31
REMARK   13  A    between atoms: C_29  and  O_32
REMARK                            x       y       z     vdW  Elec       q    Type
REMARK                         _______ _______ _______ _____ _____    ______ ____
ROOT
ATOM      1  C   UNL     1      -7.420   0.391 130.839  0.00  0.00    +0.000 C 
ATOM      2  C   UNL     1      -7.751   0.559 129.332  0.00  0.00    +0.000 C 
ATOM      3  C   UNL     1      -8.582   1.826 129.177  0.00  0.00    +0.000 C 
ATOM      4  C   UNL     1      -8.377   2.543 130.498  0.00  0.00    +0.000 C 
ATOM      5  C   UNL     1      -9.303   3.635 130.943  0.00  0.00    +0.000 C 
ATOM      6  C   UNL     1      -8.876   4.162 132.305  0.00  0.00    +0.000 C 
ATOM      7  C   UNL     1      -8.675   3.119 133.381  0.00  0.00    +0.000 C 
ATOM      8  C   UNL     1      -7.805   1.971 132.880  0.00  0.00    +0.000 C 
ATOM      9  C   UNL     1      -8.354   1.406 131.548  0.00  0.00    +0.000 C 
ATOM     10  C   UNL     1      -9.764   0.805 131.785  0.00  0.00    +0.000 C 
ATOM     11  C   UNL     1     -10.330   4.113 130.216  0.00  0.00    +0.000 C 
ENDROOT
BRANCH  11  12
ATOM     12  C   UNL     1     -11.165   5.237 130.582  0.00  0.00    +0.000 C 
ATOM     13  C   UNL     1     -11.062   6.482 130.075  0.00  0.00    +0.000 C 
ATOM     14  C   UNL     1     -11.973   7.594 130.518  0.00  0.00    +0.000 C 
ATOM     15  C   UNL     1     -12.595   8.268 129.289  0.00  0.00    +0.000 C 
ATOM     16  C   UNL     1     -11.533   8.773 128.302  0.00  0.00    +0.000 C 
ATOM     17  C   UNL     1     -10.623   7.649 127.845  0.00  0.00    +0.000 C 
ATOM     18  C   UNL     1     -10.042   6.918 129.033  0.00  0.00    +0.000 C 
BRANCH  15  19
ATOM     19  O   UNL     1     -13.429   9.347 129.690  0.00  0.00    +0.000 OA
ATOM     20  H   UNL     1     -14.183   9.390 129.079  0.00  0.00    +0.000 HD
ENDBRANCH  15  19
BRANCH  17  21
ATOM     21  O   UNL     1     -11.327   6.730 127.012  0.00  0.00    +0.000 OA
ATOM     22  H   UNL     1     -11.726   7.235 126.281  0.00  0.00    +0.000 HD
ENDBRANCH  17  21
ENDBRANCH  11  12
BRANCH   1  23
ATOM     23  C   UNL     1      -7.513  -1.067 131.357  0.00  0.00    +0.000 C 
ATOM     24  C   UNL     1      -7.913  -2.083 130.279  0.00  0.00    +0.000 C 
BRANCH  23  25
ATOM     25  C   UNL     1      -6.233  -1.448 132.044  0.00  0.00    +0.000 C 
ATOM     26  C   UNL     1      -6.089  -2.629 132.677  0.00  0.00    +0.000 C 
BRANCH  26  27
ATOM     27  C   UNL     1      -4.854  -3.080 133.394  0.00  0.00    +0.000 C 
ATOM     28  C   UNL     1      -3.911  -1.882 133.570  0.00  0.00    +0.000 C 
BRANCH  27  29
ATOM     29  C   UNL     1      -4.176  -4.269 132.639  0.00  0.00    +0.000 C 
ATOM     30  C   UNL     1      -3.385  -5.193 133.577  0.00  0.00    +0.000 C 
ATOM     31  C   UNL     1      -5.232  -5.076 131.883  0.00  0.00    +0.000 C 
BRANCH  29  32
ATOM     32  O   UNL     1      -3.282  -3.774 131.627  0.00  0.00    +0.000 OA
ATOM     33  H   UNL     1      -3.800  -3.348 130.925  0.00  0.00    +0.000 HD
ENDBRANCH  29  32
ENDBRANCH  27  29
ENDBRANCH  26  27
ENDBRANCH  23  25
ENDBRANCH   1  23
TORSDOF 8
ENDMDL
MODEL 9
REMARK VINA RESULT:      -7.1      9.259     11.782
REMARK  Name = Paricalcitol
REMARK  13 active torsions:
REMARK  status: ('A' for Active; 'I' for Inactive)
REMARK    1  A    between atoms: C_2  and  C_23
REMARK    2  A    between atoms: C_11  and  C_12
REMARK    3  A    between atoms: C_13  and  C_14
REMARK    4  A    between atoms: C_17  and  O_18
REMARK    5  A    between atoms: C_20  and  O_21
REMARK    6  A    between atoms: C_23  and  C_24
REMARK    7  A    between atoms: C_23  and  C_25
REMARK    8  A    between atoms: C_26  and  C_27
REMARK    9  A    between atoms: C_27  and  C_28
REMARK   10  A    between atoms: C_27  and  C_29
REMARK   11  A    between atoms: C_29  and  C_30
REMARK   12  A    between atoms: C_29  and  C_31
REMARK   13  A    between atoms: C_29  and  O_32
REMARK                            x       y       z     vdW  Elec       q    Type
REMARK                         _______ _______ _______ _____ _____    ______ ____
ROOT
ATOM      1  C   UNL     1      -1.362   7.003 132.404  0.00  0.00    +0.000 C 
ATOM      2  C   UNL     1      -0.871   5.548 132.634  0.00  0.00    +0.000 C 
ATOM      3  C   UNL     1      -1.934   4.605 132.087  0.00  0.00    +0.000 C 
ATOM      4  C   UNL     1      -2.795   5.511 131.226  0.00  0.00    +0.000 C 
ATOM      5  C   UNL     1      -4.175   5.102 130.804  0.00  0.00    +0.000 C 
ATOM      6  C   UNL     1      -4.815   6.201 129.969  0.00  0.00    +0.000 C 
ATOM      7  C   UNL     1      -4.799   7.585 130.578  0.00  0.00    +0.000 C 
ATOM      8  C   UNL     1      -3.407   7.947 131.085  0.00  0.00    +0.000 C 
ATOM      9  C   UNL     1      -2.855   6.842 132.016  0.00  0.00    +0.000 C 
ATOM     10  C   UNL     1      -3.755   6.730 133.275  0.00  0.00    +0.000 C 
ATOM     11  C   UNL     1      -4.740   3.912 131.081  0.00  0.00    +0.000 C 
ENDROOT
BRANCH  11  12
ATOM     12  C   UNL     1      -6.024   3.459 130.590  0.00  0.00    +0.000 C 
ATOM     13  C   UNL     1      -7.212   3.694 131.184  0.00  0.00    +0.000 C 
ATOM     14  C   UNL     1      -8.501   3.180 130.604  0.00  0.00    +0.000 C 
ATOM     15  C   UNL     1      -9.508   4.332 130.492  0.00  0.00    +0.000 C 
ATOM     16  C   UNL     1      -9.739   5.035 131.836  0.00  0.00    +0.000 C 
ATOM     17  C   UNL     1      -8.442   5.564 132.415  0.00  0.00    +0.000 C 
ATOM     18  C   UNL     1      -7.401   4.469 132.480  0.00  0.00    +0.000 C 
BRANCH  15  19
ATOM     19  O   UNL     1     -10.745   3.854 129.980  0.00  0.00    +0.000 OA
ATOM     20  H   UNL     1     -10.614   3.614 129.048  0.00  0.00    +0.000 HD
ENDBRANCH  15  19
BRANCH  17  21
ATOM     21  O   UNL     1      -7.945   6.654 131.641  0.00  0.00    +0.000 OA
ATOM     22  H   UNL     1      -7.151   6.346 131.168  0.00  0.00    +0.000 HD
ENDBRANCH  17  21
ENDBRANCH  11  12
BRANCH   1  23
ATOM     23  C   UNL     1      -1.086   7.967 133.585  0.00  0.00    +0.000 C 
ATOM     24  C   UNL     1       0.260   7.727 134.279  0.00  0.00    +0.000 C 
BRANCH  23  25
ATOM     25  C   UNL     1      -1.239   9.390 133.128  0.00  0.00    +0.000 C 
ATOM     26  C   UNL     1      -0.384  10.357 133.514  0.00  0.00    +0.000 C 
BRANCH  26  27
ATOM     27  C   UNL     1      -0.471  11.799 133.115  0.00  0.00    +0.000 C 
ATOM     28  C   UNL     1      -1.642  11.977 132.138  0.00  0.00    +0.000 C 
BRANCH  27  29
ATOM     29  C   UNL     1       0.886  12.293 132.519  0.00  0.00    +0.000 C 
ATOM     30  C   UNL     1       1.964  11.198 132.512  0.00  0.00    +0.000 C 
ATOM     31  C   UNL     1       0.672  12.820 131.099  0.00  0.00    +0.000 C 
BRANCH  29  32
ATOM     32  O   UNL     1       1.382  13.415 133.269  0.00  0.00    +0.000 OA
ATOM     33  H   UNL     1       2.175  13.145 133.760  0.00  0.00    +0.000 HD
ENDBRANCH  29  32
ENDBRANCH  27  29
ENDBRANCH  26  27
ENDBRANCH  23  25
ENDBRANCH   1  23
TORSDOF 8
ENDMDL
