MODEL 1
REMARK VINA RESULT:      -8.5      0.000      0.000
REMARK  Name = Paroxetine
REMARK  4 active torsions:
REMARK  status: ('A' for Active; 'I' for Inactive)
REMARK    1  A    between atoms: C_5  and  C_8
REMARK    2  A    between atoms: C_13  and  C_14
REMARK    3  A    between atoms: C_14  and  O_15
REMARK    4  A    between atoms: O_15  and  C_16
REMARK                            x       y       z     vdW  Elec       q    Type
REMARK                         _______ _______ _______ _____ _____    ______ ____
ROOT
ATOM      1  C   UNL     1      -9.085  -1.319 124.932  0.00  0.00    +0.000 C 
ATOM      2  C   UNL     1      -8.990  -2.317 123.769  0.00  0.00    +0.000 C 
ATOM      3  C   UNL     1      -7.543  -2.643 123.394  0.00  0.00    +0.000 C 
ATOM      4  N   UNL     1      -6.675  -1.470 123.233  0.00  0.00    +0.000 NA
ATOM      5  C   UNL     1      -6.789  -0.439 124.287  0.00  0.00    +0.000 C 
ATOM      6  C   UNL     1      -8.247  -0.053 124.602  0.00  0.00    +0.000 C 
ATOM      7  H   UNL     1      -6.993  -0.996 122.378  0.00  0.00    +0.000 HD
ENDROOT
BRANCH   1  12
ATOM      8  F   UNL     1      -7.764  -3.703 129.925  0.00  0.00    +0.000 F 
ATOM      9  C   UNL     1      -8.069  -3.140 128.747  0.00  0.00    +0.000 A 
ATOM     10  C   UNL     1      -7.656  -1.842 128.463  0.00  0.00    +0.000 A 
ATOM     11  C   UNL     1      -7.978  -1.248 127.231  0.00  0.00    +0.000 A 
ATOM     12  C   UNL     1      -8.713  -1.961 126.276  0.00  0.00    +0.000 A 
ATOM     13  C   UNL     1      -9.104  -3.270 126.617  0.00  0.00    +0.000 A 
ATOM     14  C   UNL     1      -8.793  -3.863 127.833  0.00  0.00    +0.000 A 
ENDBRANCH   1  12
BRANCH   6  15
ATOM     15  C   UNL     1      -8.850   0.750 123.414  0.00  0.00    +0.000 C 
BRANCH  15  16
ATOM     16  O   UNL     1      -8.580   2.141 123.628  0.00  0.00    +0.000 OA
BRANCH  16  17
ATOM     17  C   UNL     1      -7.955   2.816 122.638  0.00  0.00    +0.000 A 
ATOM     18  C   UNL     1      -8.613   3.256 121.500  0.00  0.00    +0.000 A 
ATOM     19  C   UNL     1      -7.844   3.876 120.549  0.00  0.00    +0.000 A 
ATOM     20  C   UNL     1      -6.495   4.093 120.723  0.00  0.00    +0.000 A 
ATOM     21  O   UNL     1      -5.928   4.675 119.634  0.00  0.00    +0.000 OA
ATOM     22  C   UNL     1      -7.057   4.719 118.736  0.00  0.00    +0.000 C 
ATOM     23  O   UNL     1      -8.297   4.318 119.348  0.00  0.00    +0.000 OA
ATOM     24  C   UNL     1      -5.842   3.743 121.884  0.00  0.00    +0.000 A 
ATOM     25  C   UNL     1      -6.597   3.106 122.866  0.00  0.00    +0.000 A 
ENDBRANCH  16  17
ENDBRANCH  15  16
ENDBRANCH   6  15
TORSDOF 4
ENDMDL
MODEL 2
REMARK VINA RESULT:      -8.4      5.341      8.090
REMARK  Name = Paroxetine
REMARK  4 active torsions:
REMARK  status: ('A' for Active; 'I' for Inactive)
REMARK    1  A    between atoms: C_5  and  C_8
REMARK    2  A    between atoms: C_13  and  C_14
REMARK    3  A    between atoms: C_14  and  O_15
REMARK    4  A    between atoms: O_15  and  C_16
REMARK                            x       y       z     vdW  Elec       q    Type
REMARK                         _______ _______ _______ _____ _____    ______ ____
ROOT
ATOM      1  C   UNL     1      -6.429   2.457 123.348  0.00  0.00    +0.000 C 
ATOM      2  C   UNL     1      -7.731   1.658 123.188  0.00  0.00    +0.000 C 
ATOM      3  C   UNL     1      -8.976   2.528 123.372  0.00  0.00    +0.000 C 
ATOM      4  N   UNL     1      -8.954   3.382 124.567  0.00  0.00    +0.000 NA
ATOM      5  C   UNL     1      -7.690   4.110 124.810  0.00  0.00    +0.000 C 
ATOM      6  C   UNL     1      -6.443   3.212 124.706  0.00  0.00    +0.000 C 
ATOM      7  H   UNL     1      -9.041   2.748 125.372  0.00  0.00    +0.000 HD
ENDROOT
BRANCH   1  12
ATOM      8  F   UNL     1      -5.436   5.805 118.858  0.00  0.00    +0.000 F 
ATOM      9  C   UNL     1      -5.670   5.021 119.920  0.00  0.00    +0.000 A 
ATOM     10  C   UNL     1      -4.804   5.040 121.009  0.00  0.00    +0.000 A 
ATOM     11  C   UNL     1      -5.045   4.217 122.121  0.00  0.00    +0.000 A 
ATOM     12  C   UNL     1      -6.163   3.374 122.145  0.00  0.00    +0.000 A 
ATOM     13  C   UNL     1      -7.005   3.396 121.017  0.00  0.00    +0.000 A 
ATOM     14  C   UNL     1      -6.772   4.204 119.913  0.00  0.00    +0.000 A 
ENDBRANCH   1  12
BRANCH   6  15
ATOM     15  C   UNL     1      -6.393   2.234 125.915  0.00  0.00    +0.000 C 
BRANCH  15  16
ATOM     16  O   UNL     1      -5.019   2.012 126.258  0.00  0.00    +0.000 OA
BRANCH  16  17
ATOM     17  C   UNL     1      -4.336   3.044 126.801  0.00  0.00    +0.000 A 
ATOM     18  C   UNL     1      -4.962   4.094 127.456  0.00  0.00    +0.000 A 
ATOM     19  C   UNL     1      -4.151   5.104 127.906  0.00  0.00    +0.000 A 
ATOM     20  C   UNL     1      -2.782   5.069 127.757  0.00  0.00    +0.000 A 
ATOM     21  O   UNL     1      -2.188   6.195 128.230  0.00  0.00    +0.000 OA
ATOM     22  C   UNL     1      -3.346   6.968 128.612  0.00  0.00    +0.000 C 
ATOM     23  O   UNL     1      -4.584   6.239 128.512  0.00  0.00    +0.000 OA
ATOM     24  C   UNL     1      -2.136   3.993 127.189  0.00  0.00    +0.000 A 
ATOM     25  C   UNL     1      -2.935   2.954 126.718  0.00  0.00    +0.000 A 
ENDBRANCH  16  17
ENDBRANCH  15  16
ENDBRANCH   6  15
TORSDOF 4
ENDMDL
MODEL 3
REMARK VINA RESULT:      -8.2     10.374     12.007
REMARK  Name = Paroxetine
REMARK  4 active torsions:
REMARK  status: ('A' for Active; 'I' for Inactive)
REMARK    1  A    between atoms: C_5  and  C_8
REMARK    2  A    between atoms: C_13  and  C_14
REMARK    3  A    between atoms: C_14  and  O_15
REMARK    4  A    between atoms: O_15  and  C_16
REMARK                            x       y       z     vdW  Elec       q    Type
REMARK                         _______ _______ _______ _____ _____    ______ ____
ROOT
ATOM      1  C   UNL     1      -3.631   6.279 131.613  0.00  0.00    +0.000 C 
ATOM      2  C   UNL     1      -3.227   5.474 130.368  0.00  0.00    +0.000 C 
ATOM      3  C   UNL     1      -2.995   6.364 129.146  0.00  0.00    +0.000 C 
ATOM      4  N   UNL     1      -4.062   7.342 128.892  0.00  0.00    +0.000 NA
ATOM      5  C   UNL     1      -4.544   8.086 130.075  0.00  0.00    +0.000 C 
ATOM      6  C   UNL     1      -4.855   7.175 131.278  0.00  0.00    +0.000 C 
ATOM      7  H   UNL     1      -4.878   6.799 128.583  0.00  0.00    +0.000 HD
ENDROOT
BRANCH   1  12
ATOM      8  F   UNL     1       0.745   9.209 133.762  0.00  0.00    +0.000 F 
ATOM      9  C   UNL     1      -0.286   8.513 133.260  0.00  0.00    +0.000 A 
ATOM     10  C   UNL     1      -0.100   7.208 132.815  0.00  0.00    +0.000 A 
ATOM     11  C   UNL     1      -1.177   6.479 132.285  0.00  0.00    +0.000 A 
ATOM     12  C   UNL     1      -2.449   7.060 132.205  0.00  0.00    +0.000 A 
ATOM     13  C   UNL     1      -2.579   8.382 132.669  0.00  0.00    +0.000 A 
ATOM     14  C   UNL     1      -1.519   9.110 133.192  0.00  0.00    +0.000 A 
ENDBRANCH   1  12
BRANCH   6  15
ATOM     15  C   UNL     1      -6.131   6.333 130.988  0.00  0.00    +0.000 C 
BRANCH  15  16
ATOM     16  O   UNL     1      -7.119   7.197 130.413  0.00  0.00    +0.000 OA
BRANCH  16  17
ATOM     17  C   UNL     1      -8.412   6.968 130.732  0.00  0.00    +0.000 A 
ATOM     18  C   UNL     1      -9.466   7.387 129.933  0.00  0.00    +0.000 A 
ATOM     19  C   UNL     1     -10.728   7.140 130.407  0.00  0.00    +0.000 A 
ATOM     20  C   UNL     1     -10.950   6.475 131.593  0.00  0.00    +0.000 A 
ATOM     21  O   UNL     1     -12.273   6.389 131.889  0.00  0.00    +0.000 OA
ATOM     22  C   UNL     1     -12.841   7.145 130.799  0.00  0.00    +0.000 C 
ATOM     23  O   UNL     1     -11.878   7.528 129.799  0.00  0.00    +0.000 OA
ATOM     24  C   UNL     1      -9.918   5.974 132.355  0.00  0.00    +0.000 A 
ATOM     25  C   UNL     1      -8.623   6.214 131.901  0.00  0.00    +0.000 A 
ENDBRANCH  16  17
ENDBRANCH  15  16
ENDBRANCH   6  15
TORSDOF 4
ENDMDL
MODEL 4
REMARK VINA RESULT:      -8.2      4.206      7.656
REMARK  Name = Paroxetine
REMARK  4 active torsions:
REMARK  status: ('A' for Active; 'I' for Inactive)
REMARK    1  A    between atoms: C_5  and  C_8
REMARK    2  A    between atoms: C_13  and  C_14
REMARK    3  A    between atoms: C_14  and  O_15
REMARK    4  A    between atoms: O_15  and  C_16
REMARK                            x       y       z     vdW  Elec       q    Type
REMARK                         _______ _______ _______ _____ _____    ______ ____
ROOT
ATOM      1  C   UNL     1      -7.209   2.633 124.170  0.00  0.00    +0.000 C 
ATOM      2  C   UNL     1      -8.257   3.331 125.051  0.00  0.00    +0.000 C 
ATOM      3  C   UNL     1      -7.879   4.779 125.371  0.00  0.00    +0.000 C 
ATOM      4  N   UNL     1      -6.500   4.961 125.842  0.00  0.00    +0.000 NA
ATOM      5  C   UNL     1      -5.461   4.241 125.075  0.00  0.00    +0.000 C 
ATOM      6  C   UNL     1      -5.807   2.760 124.827  0.00  0.00    +0.000 C 
ATOM      7  H   UNL     1      -6.461   4.540 126.780  0.00  0.00    +0.000 HD
ENDROOT
BRANCH   1  12
ATOM      8  F   UNL     1      -7.337   4.539 118.812  0.00  0.00    +0.000 F 
ATOM      9  C   UNL     1      -7.310   4.084 120.074  0.00  0.00    +0.000 A 
ATOM     10  C   UNL     1      -8.494   3.749 120.723  0.00  0.00    +0.000 A 
ATOM     11  C   UNL     1      -8.469   3.277 122.046  0.00  0.00    +0.000 A 
ATOM     12  C   UNL     1      -7.250   3.134 122.719  0.00  0.00    +0.000 A 
ATOM     13  C   UNL     1      -6.083   3.487 122.013  0.00  0.00    +0.000 A 
ATOM     14  C   UNL     1      -6.100   3.957 120.708  0.00  0.00    +0.000 A 
ENDBRANCH   1  12
BRANCH   6  15
ATOM     15  C   UNL     1      -5.715   1.965 126.161  0.00  0.00    +0.000 C 
BRANCH  15  16
ATOM     16  O   UNL     1      -5.390   0.604 125.851  0.00  0.00    +0.000 OA
BRANCH  16  17
ATOM     17  C   UNL     1      -6.412  -0.238 125.583  0.00  0.00    +0.000 A 
ATOM     18  C   UNL     1      -6.457  -1.020 124.439  0.00  0.00    +0.000 A 
ATOM     19  C   UNL     1      -7.582  -1.785 124.264  0.00  0.00    +0.000 A 
ATOM     20  C   UNL     1      -8.602  -1.814 125.190  0.00  0.00    +0.000 A 
ATOM     21  O   UNL     1      -9.635  -2.597 124.786  0.00  0.00    +0.000 OA
ATOM     22  C   UNL     1      -9.180  -2.984 123.472  0.00  0.00    +0.000 C 
ATOM     23  O   UNL     1      -7.833  -2.564 123.181  0.00  0.00    +0.000 OA
ATOM     24  C   UNL     1      -8.534  -1.112 126.374  0.00  0.00    +0.000 A 
ATOM     25  C   UNL     1      -7.405  -0.322 126.577  0.00  0.00    +0.000 A 
ENDBRANCH  16  17
ENDBRANCH  15  16
ENDBRANCH   6  15
TORSDOF 4
ENDMDL
MODEL 5
REMARK VINA RESULT:      -7.9      4.664      5.969
REMARK  Name = Paroxetine
REMARK  4 active torsions:
REMARK  status: ('A' for Active; 'I' for Inactive)
REMARK    1  A    between atoms: C_5  and  C_8
REMARK    2  A    between atoms: C_13  and  C_14
REMARK    3  A    between atoms: C_14  and  O_15
REMARK    4  A    between atoms: O_15  and  C_16
REMARK                            x       y       z     vdW  Elec       q    Type
REMARK                         _______ _______ _______ _____ _____    ______ ____
ROOT
ATOM      1  C   UNL     1      -6.872  -0.536 126.234  0.00  0.00    +0.000 C 
ATOM      2  C   UNL     1      -7.636   0.119 127.395  0.00  0.00    +0.000 C 
ATOM      3  C   UNL     1      -8.617   1.191 126.917  0.00  0.00    +0.000 C 
ATOM      4  N   UNL     1      -8.051   2.158 125.967  0.00  0.00    +0.000 NA
ATOM      5  C   UNL     1      -7.238   1.581 124.875  0.00  0.00    +0.000 C 
ATOM      6  C   UNL     1      -6.193   0.563 125.371  0.00  0.00    +0.000 C 
ATOM      7  H   UNL     1      -7.388   2.730 126.504  0.00  0.00    +0.000 HD
ENDROOT
BRANCH   1  12
ATOM      8  F   UNL     1     -10.193  -4.008 123.190  0.00  0.00    +0.000 F 
ATOM      9  C   UNL     1      -9.409  -3.194 123.911  0.00  0.00    +0.000 A 
ATOM     10  C   UNL     1      -9.578  -3.098 125.289  0.00  0.00    +0.000 A 
ATOM     11  C   UNL     1      -8.760  -2.243 126.046  0.00  0.00    +0.000 A 
ATOM     12  C   UNL     1      -7.763  -1.486 125.420  0.00  0.00    +0.000 A 
ATOM     13  C   UNL     1      -7.636  -1.623 124.024  0.00  0.00    +0.000 A 
ATOM     14  C   UNL     1      -8.442  -2.463 123.269  0.00  0.00    +0.000 A 
ENDBRANCH   1  12
BRANCH   6  15
ATOM     15  C   UNL     1      -5.065   1.299 126.149  0.00  0.00    +0.000 C 
BRANCH  15  16
ATOM     16  O   UNL     1      -5.060   2.673 125.741  0.00  0.00    +0.000 OA
BRANCH  16  17
ATOM     17  C   UNL     1      -4.338   3.542 126.482  0.00  0.00    +0.000 A 
ATOM     18  C   UNL     1      -4.825   4.784 126.864  0.00  0.00    +0.000 A 
ATOM     19  C   UNL     1      -3.965   5.589 127.564  0.00  0.00    +0.000 A 
ATOM     20  C   UNL     1      -2.695   5.181 127.911  0.00  0.00    +0.000 A 
ATOM     21  O   UNL     1      -2.004   6.158 128.555  0.00  0.00    +0.000 OA
ATOM     22  C   UNL     1      -2.955   7.242 128.495  0.00  0.00    +0.000 C 
ATOM     23  O   UNL     1      -4.238   6.856 127.969  0.00  0.00    +0.000 OA
ATOM     24  C   UNL     1      -2.227   3.920 127.618  0.00  0.00    +0.000 A 
ATOM     25  C   UNL     1      -3.078   3.081 126.902  0.00  0.00    +0.000 A 
ENDBRANCH  16  17
ENDBRANCH  15  16
ENDBRANCH   6  15
TORSDOF 4
ENDMDL
MODEL 6
REMARK VINA RESULT:      -7.6      6.321      9.242
REMARK  Name = Paroxetine
REMARK  4 active torsions:
REMARK  status: ('A' for Active; 'I' for Inactive)
REMARK    1  A    between atoms: C_5  and  C_8
REMARK    2  A    between atoms: C_13  and  C_14
REMARK    3  A    between atoms: C_14  and  O_15
REMARK    4  A    between atoms: O_15  and  C_16
REMARK                            x       y       z     vdW  Elec       q    Type
REMARK                         _______ _______ _______ _____ _____    ______ ____
ROOT
ATOM      1  C   UNL     1      -5.968   3.362 124.069  0.00  0.00    +0.000 C 
ATOM      2  C   UNL     1      -7.195   2.812 124.813  0.00  0.00    +0.000 C 
ATOM      3  C   UNL     1      -8.241   3.892 125.092  0.00  0.00    +0.000 C 
ATOM      4  N   UNL     1      -7.703   5.127 125.678  0.00  0.00    +0.000 NA
ATOM      5  C   UNL     1      -6.473   5.653 125.047  0.00  0.00    +0.000 C 
ATOM      6  C   UNL     1      -5.389   4.577 124.844  0.00  0.00    +0.000 C 
ATOM      7  H   UNL     1      -7.415   4.886 126.635  0.00  0.00    +0.000 HD
ENDROOT
BRANCH   1  12
ATOM      8  F   UNL     1      -7.119   4.446 118.605  0.00  0.00    +0.000 F 
ATOM      9  C   UNL     1      -6.846   4.197 119.894  0.00  0.00    +0.000 A 
ATOM     10  C   UNL     1      -5.585   4.478 120.410  0.00  0.00    +0.000 A 
ATOM     11  C   UNL     1      -5.295   4.214 121.759  0.00  0.00    +0.000 A 
ATOM     12  C   UNL     1      -6.276   3.670 122.596  0.00  0.00    +0.000 A 
ATOM     13  C   UNL     1      -7.534   3.405 122.021  0.00  0.00    +0.000 A 
ATOM     14  C   UNL     1      -7.827   3.661 120.688  0.00  0.00    +0.000 A 
ENDBRANCH   1  12
BRANCH   6  15
ATOM     15  C   UNL     1      -4.794   4.159 126.220  0.00  0.00    +0.000 C 
BRANCH  15  16
ATOM     16  O   UNL     1      -4.759   5.316 127.065  0.00  0.00    +0.000 OA
BRANCH  16  17
ATOM     17  C   UNL     1      -4.058   5.228 128.217  0.00  0.00    +0.000 A 
ATOM     18  C   UNL     1      -4.227   4.188 129.118  0.00  0.00    +0.000 A 
ATOM     19  C   UNL     1      -3.494   4.255 130.274  0.00  0.00    +0.000 A 
ATOM     20  C   UNL     1      -2.602   5.275 130.520  0.00  0.00    +0.000 A 
ATOM     21  O   UNL     1      -2.028   5.166 131.747  0.00  0.00    +0.000 OA
ATOM     22  C   UNL     1      -2.723   4.013 132.266  0.00  0.00    +0.000 C 
ATOM     23  O   UNL     1      -3.571   3.366 131.298  0.00  0.00    +0.000 OA
ATOM     24  C   UNL     1      -2.355   6.268 129.598  0.00  0.00    +0.000 A 
ATOM     25  C   UNL     1      -3.090   6.229 128.416  0.00  0.00    +0.000 A 
ENDBRANCH  16  17
ENDBRANCH  15  16
ENDBRANCH   6  15
TORSDOF 4
ENDMDL
MODEL 7
REMARK VINA RESULT:      -7.5      4.152      8.136
REMARK  Name = Paroxetine
REMARK  4 active torsions:
REMARK  status: ('A' for Active; 'I' for Inactive)
REMARK    1  A    between atoms: C_5  and  C_8
REMARK    2  A    between atoms: C_13  and  C_14
REMARK    3  A    between atoms: C_14  and  O_15
REMARK    4  A    between atoms: O_15  and  C_16
REMARK                            x       y       z     vdW  Elec       q    Type
REMARK                         _______ _______ _______ _____ _____    ______ ____
ROOT
ATOM      1  C   UNL     1      -6.479   2.505 123.320  0.00  0.00    +0.000 C 
ATOM      2  C   UNL     1      -7.857   1.843 123.166  0.00  0.00    +0.000 C 
ATOM      3  C   UNL     1      -9.006   2.822 123.409  0.00  0.00    +0.000 C 
ATOM      4  N   UNL     1      -8.875   3.628 124.630  0.00  0.00    +0.000 NA
ATOM      5  C   UNL     1      -7.541   4.221 124.865  0.00  0.00    +0.000 C 
ATOM      6  C   UNL     1      -6.391   3.210 124.701  0.00  0.00    +0.000 C 
ATOM      7  H   UNL     1      -9.006   2.978 125.415  0.00  0.00    +0.000 HD
ENDROOT
BRANCH   1  12
ATOM      8  F   UNL     1      -5.252   5.894 118.919  0.00  0.00    +0.000 F 
ATOM      9  C   UNL     1      -5.542   5.100 119.960  0.00  0.00    +0.000 A 
ATOM     10  C   UNL     1      -4.739   5.115 121.096  0.00  0.00    +0.000 A 
ATOM     11  C   UNL     1      -5.038   4.281 122.187  0.00  0.00    +0.000 A 
ATOM     12  C   UNL     1      -6.150   3.433 122.141  0.00  0.00    +0.000 A 
ATOM     13  C   UNL     1      -6.927   3.460 120.966  0.00  0.00    +0.000 A 
ATOM     14  C   UNL     1      -6.637   4.278 119.884  0.00  0.00    +0.000 A 
ENDBRANCH   1  12
BRANCH   6  15
ATOM     15  C   UNL     1      -6.411   2.190 125.876  0.00  0.00    +0.000 C 
BRANCH  15  16
ATOM     16  O   UNL     1      -5.765   0.988 125.440  0.00  0.00    +0.000 OA
BRANCH  16  17
ATOM     17  C   UNL     1      -6.404  -0.182 125.662  0.00  0.00    +0.000 A 
ATOM     18  C   UNL     1      -7.762  -0.349 125.430  0.00  0.00    +0.000 A 
ATOM     19  C   UNL     1      -8.292  -1.570 125.755  0.00  0.00    +0.000 A 
ATOM     20  C   UNL     1      -7.519  -2.599 126.249  0.00  0.00    +0.000 A 
ATOM     21  O   UNL     1      -8.262  -3.696 126.549  0.00  0.00    +0.000 OA
ATOM     22  C   UNL     1      -9.590  -3.206 126.265  0.00  0.00    +0.000 C 
ATOM     23  O   UNL     1      -9.606  -1.900 125.658  0.00  0.00    +0.000 OA
ATOM     24  C   UNL     1      -6.156  -2.480 126.402  0.00  0.00    +0.000 A 
ATOM     25  C   UNL     1      -5.589  -1.248 126.084  0.00  0.00    +0.000 A 
ENDBRANCH  16  17
ENDBRANCH  15  16
ENDBRANCH   6  15
TORSDOF 4
ENDMDL
MODEL 8
REMARK VINA RESULT:      -7.5      9.296     10.827
REMARK  Name = Paroxetine
REMARK  4 active torsions:
REMARK  status: ('A' for Active; 'I' for Inactive)
REMARK    1  A    between atoms: C_5  and  C_8
REMARK    2  A    between atoms: C_13  and  C_14
REMARK    3  A    between atoms: C_14  and  O_15
REMARK    4  A    between atoms: O_15  and  C_16
REMARK                            x       y       z     vdW  Elec       q    Type
REMARK                         _______ _______ _______ _____ _____    ______ ____
ROOT
ATOM      1  C   UNL     1      -8.098   5.759 132.126  0.00  0.00    +0.000 C 
ATOM      2  C   UNL     1      -8.582   5.565 133.570  0.00  0.00    +0.000 C 
ATOM      3  C   UNL     1      -8.018   4.295 134.210  0.00  0.00    +0.000 C 
ATOM      4  N   UNL     1      -8.139   3.088 133.382  0.00  0.00    +0.000 NA
ATOM      5  C   UNL     1      -7.762   3.245 131.961  0.00  0.00    +0.000 C 
ATOM      6  C   UNL     1      -8.401   4.480 131.297  0.00  0.00    +0.000 C 
ATOM      7  H   UNL     1      -9.142   2.860 133.355  0.00  0.00    +0.000 HD
ENDROOT
BRANCH   1  12
ATOM      8  F   UNL     1      -2.652   7.393 131.942  0.00  0.00    +0.000 F 
ATOM      9  C   UNL     1      -3.935   7.004 131.980  0.00  0.00    +0.000 A 
ATOM     10  C   UNL     1      -4.777   7.260 130.902  0.00  0.00    +0.000 A 
ATOM     11  C   UNL     1      -6.122   6.858 130.941  0.00  0.00    +0.000 A 
ATOM     12  C   UNL     1      -6.625   6.190 132.064  0.00  0.00    +0.000 A 
ATOM     13  C   UNL     1      -5.729   5.958 133.125  0.00  0.00    +0.000 A 
ATOM     14  C   UNL     1      -4.400   6.355 133.095  0.00  0.00    +0.000 A 
ENDBRANCH   1  12
BRANCH   6  15
ATOM     15  C   UNL     1      -9.929   4.253 131.116  0.00  0.00    +0.000 C 
BRANCH  15  16
ATOM     16  O   UNL     1     -10.336   4.883 129.895  0.00  0.00    +0.000 OA
BRANCH  16  17
ATOM     17  C   UNL     1     -11.108   5.987 129.989  0.00  0.00    +0.000 A 
ATOM     18  C   UNL     1     -11.351   6.825 128.910  0.00  0.00    +0.000 A 
ATOM     19  C   UNL     1     -12.104   7.943 129.161  0.00  0.00    +0.000 A 
ATOM     20  C   UNL     1     -12.632   8.209 130.405  0.00  0.00    +0.000 A 
ATOM     21  O   UNL     1     -13.297   9.393 130.434  0.00  0.00    +0.000 OA
ATOM     22  C   UNL     1     -13.053   9.870 129.094  0.00  0.00    +0.000 C 
ATOM     23  O   UNL     1     -12.394   8.907 128.250  0.00  0.00    +0.000 OA
ATOM     24  C   UNL     1     -12.476   7.343 131.465  0.00  0.00    +0.000 A 
ATOM     25  C   UNL     1     -11.711   6.202 131.242  0.00  0.00    +0.000 A 
ENDBRANCH  16  17
ENDBRANCH  15  16
ENDBRANCH   6  15
TORSDOF 4
ENDMDL
MODEL 9
REMARK VINA RESULT:      -7.4      2.424      3.151
REMARK  Name = Paroxetine
REMARK  4 active torsions:
REMARK  status: ('A' for Active; 'I' for Inactive)
REMARK    1  A    between atoms: C_5  and  C_8
REMARK    2  A    between atoms: C_13  and  C_14
REMARK    3  A    between atoms: C_14  and  O_15
REMARK    4  A    between atoms: O_15  and  C_16
REMARK                            x       y       z     vdW  Elec       q    Type
REMARK                         _______ _______ _______ _____ _____    ______ ____
ROOT
ATOM      1  C   UNL     1      -8.135  -1.726 125.267  0.00  0.00    +0.000 C 
ATOM      2  C   UNL     1      -8.480  -2.956 124.413  0.00  0.00    +0.000 C 
ATOM      3  C   UNL     1      -7.328  -3.960 124.345  0.00  0.00    +0.000 C 
ATOM      4  N   UNL     1      -6.021  -3.371 124.025  0.00  0.00    +0.000 NA
ATOM      5  C   UNL     1      -5.677  -2.137 124.763  0.00  0.00    +0.000 C 
ATOM      6  C   UNL     1      -6.811  -1.093 124.758  0.00  0.00    +0.000 C 
ATOM      7  H   UNL     1      -6.075  -3.074 123.043  0.00  0.00    +0.000 HD
ENDROOT
BRANCH   1  12
ATOM      8  F   UNL     1      -8.011  -2.929 130.825  0.00  0.00    +0.000 F 
ATOM      9  C   UNL     1      -8.047  -2.646 129.514  0.00  0.00    +0.000 A 
ATOM     10  C   UNL     1      -8.591  -3.558 128.615  0.00  0.00    +0.000 A 
ATOM     11  C   UNL     1      -8.626  -3.266 127.242  0.00  0.00    +0.000 A 
ATOM     12  C   UNL     1      -8.117  -2.051 126.767  0.00  0.00    +0.000 A 
ATOM     13  C   UNL     1      -7.579  -1.166 127.721  0.00  0.00    +0.000 A 
ATOM     14  C   UNL     1      -7.538  -1.449 129.079  0.00  0.00    +0.000 A 
ENDBRANCH   1  12
BRANCH   6  15
ATOM     15  C   UNL     1      -6.965  -0.487 123.333  0.00  0.00    +0.000 C 
BRANCH  15  16
ATOM     16  O   UNL     1      -8.077   0.418 123.347  0.00  0.00    +0.000 OA
BRANCH  16  17
ATOM     17  C   UNL     1      -7.872   1.652 123.857  0.00  0.00    +0.000 A 
ATOM     18  C   UNL     1      -6.754   2.414 123.548  0.00  0.00    +0.000 A 
ATOM     19  C   UNL     1      -6.645   3.624 124.183  0.00  0.00    +0.000 A 
ATOM     20  C   UNL     1      -7.609   4.088 125.051  0.00  0.00    +0.000 A 
ATOM     21  O   UNL     1      -7.267   5.283 125.600  0.00  0.00    +0.000 OA
ATOM     22  C   UNL     1      -5.949   5.468 125.040  0.00  0.00    +0.000 C 
ATOM     23  O   UNL     1      -5.596   4.477 124.057  0.00  0.00    +0.000 OA
ATOM     24  C   UNL     1      -8.767   3.386 125.300  0.00  0.00    +0.000 A 
ATOM     25  C   UNL     1      -8.904   2.150 124.673  0.00  0.00    +0.000 A 
ENDBRANCH  16  17
ENDBRANCH  15  16
ENDBRANCH   6  15
TORSDOF 4
ENDMDL
