MODEL 1
REMARK VINA RESULT:      -7.6      0.000      0.000
REMARK  Name = Paromomycin
REMARK  22 active torsions:
REMARK  status: ('A' for Active; 'I' for Inactive)
REMARK    1  A    between atoms: N_1  and  C_2
REMARK    2  A    between atoms: C_2  and  C_3
REMARK    3  A    between atoms: C_5  and  O_6
REMARK    4  A    between atoms: O_6  and  C_7
REMARK    5  A    between atoms: C_8  and  C_9
REMARK    6  A    between atoms: C_9  and  O_10
REMARK    7  A    between atoms: C_12  and  O_13
REMARK    8  A    between atoms: O_13  and  C_14
REMARK    9  A    between atoms: C_15  and  O_16
REMARK   10  A    between atoms: C_17  and  N_18
REMARK   11  A    between atoms: C_20  and  N_21
REMARK   12  A    between atoms: C_22  and  O_23
REMARK   13  A    between atoms: O_23  and  C_24
REMARK   14  A    between atoms: C_26  and  C_27
REMARK   15  A    between atoms: C_27  and  O_28
REMARK   16  A    between atoms: C_29  and  O_30
REMARK   17  A    between atoms: C_31  and  O_32
REMARK   18  A    between atoms: C_33  and  N_34
REMARK   19  A    between atoms: C_35  and  O_36
REMARK   20  A    between atoms: C_37  and  N_38
REMARK   21  A    between atoms: C_39  and  O_40
REMARK   22  A    between atoms: C_41  and  O_42
REMARK                            x       y       z     vdW  Elec       q    Type
REMARK                         _______ _______ _______ _____ _____    ______ ____
ROOT
ATOM      1  C   UNL     1      -7.206   4.864 129.436  0.00  0.00    +0.000 C 
ATOM      2  C   UNL     1      -7.098   5.376 130.817  0.00  0.00    +0.000 C 
ATOM      3  C   UNL     1      -7.808   4.668 131.961  0.00  0.00    +0.000 C 
ATOM      4  C   UNL     1      -9.274   4.478 131.630  0.00  0.00    +0.000 C 
ATOM      5  C   UNL     1      -9.468   3.990 130.196  0.00  0.00    +0.000 C 
ATOM      6  C   UNL     1      -8.743   4.876 129.136  0.00  0.00    +0.000 C 
ENDROOT
BRANCH   3   7
ATOM      7  N   UNL     1      -6.998   3.519 132.370  0.00  0.00    +0.000 NA
ATOM      8  H   UNL     1      -6.301   3.247 131.686  0.00  0.00    +0.000 HD
ATOM      9  H   UNL     1      -7.581   2.747 132.650  0.00  0.00    +0.000 HD
ENDBRANCH   3   7
BRANCH   5  10
ATOM     10  N   UNL     1      -8.880   2.633 130.196  0.00  0.00    +0.000 NA
ATOM     11  H   UNL     1      -8.602   2.431 131.167  0.00  0.00    +0.000 HD
ATOM     12  H   UNL     1      -7.983   2.613 129.721  0.00  0.00    +0.000 HD
ENDBRANCH   5  10
BRANCH   2  13
ATOM     13  O   UNL     1      -6.966   6.664 130.532  0.00  0.00    +0.000 OA
ATOM     14  H   UNL     1      -6.445   6.992 131.286  0.00  0.00    +0.000 HD
ENDBRANCH   2  13
BRANCH   6  15
ATOM     15  O   UNL     1      -9.286   6.247 128.843  0.00  0.00    +0.000 OA
BRANCH  15  16
ATOM     16  C   UNL     1     -10.691   6.655 128.984  0.00  0.00    +0.000 C 
ATOM     17  O   UNL     1     -10.932   7.846 129.784  0.00  0.00    +0.000 OA
ATOM     18  C   UNL     1     -12.235   8.210 130.384  0.00  0.00    +0.000 C 
ATOM     19  C   UNL     1     -12.987   8.656 129.194  0.00  0.00    +0.000 C 
ATOM     20  C   UNL     1     -12.864   7.501 128.140  0.00  0.00    +0.000 C 
ATOM     21  C   UNL     1     -11.390   7.100 127.694  0.00  0.00    +0.000 C 
BRANCH  21  22
ATOM     22  N   UNL     1     -10.600   8.194 127.081  0.00  0.00    +0.000 NA
ATOM     23  H   UNL     1     -10.538   7.998 126.076  0.00  0.00    +0.000 HD
ATOM     24  H   UNL     1      -9.643   8.178 127.426  0.00  0.00    +0.000 HD
ENDBRANCH  21  22
BRANCH  20  25
ATOM     25  O   UNL     1     -13.532   6.307 128.611  0.00  0.00    +0.000 OA
ATOM     26  H   UNL     1     -14.114   5.918 127.927  0.00  0.00    +0.000 HD
ENDBRANCH  20  25
BRANCH  19  27
ATOM     27  O   UNL     1     -12.324   9.860 128.777  0.00  0.00    +0.000 OA
ATOM     28  H   UNL     1     -13.006  10.400 128.315  0.00  0.00    +0.000 HD
ENDBRANCH  19  27
BRANCH  18  29
ATOM     29  C   UNL     1     -13.042   7.273 131.295  0.00  0.00    +0.000 C 
BRANCH  29  30
ATOM     30  O   UNL     1     -12.216   6.218 131.614  0.00  0.00    +0.000 OA
ATOM     31  H   UNL     1     -11.595   6.595 132.284  0.00  0.00    +0.000 HD
ENDBRANCH  29  30
ENDBRANCH  18  29
ENDBRANCH  15  16
ENDBRANCH   6  15
BRANCH   1  32
ATOM     32  O   UNL     1      -6.356   3.736 129.592  0.00  0.00    +0.000 OA
BRANCH  32  36
ATOM     33  C   UNL     1      -6.834   2.785 126.522  0.00  0.00    +0.000 C 
ATOM     34  C   UNL     1      -5.994   3.943 126.015  0.00  0.00    +0.000 C 
ATOM     35  O   UNL     1      -5.202   4.373 127.214  0.00  0.00    +0.000 OA
ATOM     36  C   UNL     1      -5.468   3.499 128.397  0.00  0.00    +0.000 C 
ATOM     37  C   UNL     1      -5.937   2.309 127.690  0.00  0.00    +0.000 C 
BRANCH  37  38
ATOM     38  O   UNL     1      -4.702   1.686 127.354  0.00  0.00    +0.000 OA
ATOM     39  H   UNL     1      -4.224   2.291 126.766  0.00  0.00    +0.000 HD
ENDBRANCH  37  38
BRANCH  34  40
ATOM     40  C   UNL     1      -6.783   5.063 125.260  0.00  0.00    +0.000 C 
BRANCH  40  41
ATOM     41  O   UNL     1      -8.186   4.838 125.188  0.00  0.00    +0.000 OA
ATOM     42  H   UNL     1      -8.506   5.304 124.401  0.00  0.00    +0.000 HD
ENDBRANCH  40  41
ENDBRANCH  34  40
BRANCH  33  43
ATOM     43  O   UNL     1      -7.376   1.812 125.644  0.00  0.00    +0.000 OA
BRANCH  43  46
ATOM     44  C   UNL     1      -9.720   1.965 123.659  0.00  0.00    +0.000 C 
ATOM     45  O   UNL     1      -9.670   2.120 125.087  0.00  0.00    +0.000 OA
ATOM     46  C   UNL     1      -8.713   1.424 125.867  0.00  0.00    +0.000 C 
ATOM     47  C   UNL     1      -8.912  -0.069 125.610  0.00  0.00    +0.000 C 
ATOM     48  C   UNL     1      -9.033  -0.343 124.090  0.00  0.00    +0.000 C 
ATOM     49  C   UNL     1     -10.109   0.533 123.429  0.00  0.00    +0.000 C 
BRANCH  47  50
ATOM     50  N   UNL     1      -7.862  -0.933 126.188  0.00  0.00    +0.000 NA
ATOM     51  H   UNL     1      -8.300  -1.464 126.947  0.00  0.00    +0.000 HD
ATOM     52  H   UNL     1      -7.217  -0.303 126.673  0.00  0.00    +0.000 HD
ENDBRANCH  47  50
BRANCH  49  53
ATOM     53  O   UNL     1     -10.245   0.267 122.038  0.00  0.00    +0.000 OA
ATOM     54  H   UNL     1     -11.050  -0.298 121.960  0.00  0.00    +0.000 HD
ENDBRANCH  49  53
BRANCH  48  55
ATOM     55  O   UNL     1      -9.353  -1.725 123.913  0.00  0.00    +0.000 OA
ATOM     56  H   UNL     1      -9.897  -1.973 124.681  0.00  0.00    +0.000 HD
ENDBRANCH  48  55
BRANCH  44  57
ATOM     57  C   UNL     1      -8.461   2.393 122.830  0.00  0.00    +0.000 C 
BRANCH  57  58
ATOM     58  N   UNL     1      -8.328   3.699 122.190  0.00  0.00    +0.000 NA
ATOM     59  H   UNL     1      -8.494   4.388 122.937  0.00  0.00    +0.000 HD
ATOM     60  H   UNL     1      -9.139   3.820 121.576  0.00  0.00    +0.000 HD
ENDBRANCH  57  58
ENDBRANCH  44  57
ENDBRANCH  43  46
ENDBRANCH  33  43
ENDBRANCH  32  36
ENDBRANCH   1  32
TORSDOF 22
ENDMDL
MODEL 2
REMARK VINA RESULT:      -7.6      2.272      7.322
REMARK  Name = Paromomycin
REMARK  22 active torsions:
REMARK  status: ('A' for Active; 'I' for Inactive)
REMARK    1  A    between atoms: N_1  and  C_2
REMARK    2  A    between atoms: C_2  and  C_3
REMARK    3  A    between atoms: C_5  and  O_6
REMARK    4  A    between atoms: O_6  and  C_7
REMARK    5  A    between atoms: C_8  and  C_9
REMARK    6  A    between atoms: C_9  and  O_10
REMARK    7  A    between atoms: C_12  and  O_13
REMARK    8  A    between atoms: O_13  and  C_14
REMARK    9  A    between atoms: C_15  and  O_16
REMARK   10  A    between atoms: C_17  and  N_18
REMARK   11  A    between atoms: C_20  and  N_21
REMARK   12  A    between atoms: C_22  and  O_23
REMARK   13  A    between atoms: O_23  and  C_24
REMARK   14  A    between atoms: C_26  and  C_27
REMARK   15  A    between atoms: C_27  and  O_28
REMARK   16  A    between atoms: C_29  and  O_30
REMARK   17  A    between atoms: C_31  and  O_32
REMARK   18  A    between atoms: C_33  and  N_34
REMARK   19  A    between atoms: C_35  and  O_36
REMARK   20  A    between atoms: C_37  and  N_38
REMARK   21  A    between atoms: C_39  and  O_40
REMARK   22  A    between atoms: C_41  and  O_42
REMARK                            x       y       z     vdW  Elec       q    Type
REMARK                         _______ _______ _______ _____ _____    ______ ____
ROOT
ATOM      1  C   UNL     1      -5.085   3.782 129.079  0.00  0.00    +0.000 C 
ATOM      2  C   UNL     1      -3.683   3.419 129.369  0.00  0.00    +0.000 C 
ATOM      3  C   UNL     1      -2.569   4.437 129.183  0.00  0.00    +0.000 C 
ATOM      4  C   UNL     1      -2.634   5.038 127.794  0.00  0.00    +0.000 C 
ATOM      5  C   UNL     1      -4.067   5.399 127.404  0.00  0.00    +0.000 C 
ATOM      6  C   UNL     1      -5.071   4.218 127.575  0.00  0.00    +0.000 C 
ENDROOT
BRANCH   3   7
ATOM      7  N   UNL     1      -2.539   5.313 130.356  0.00  0.00    +0.000 NA
ATOM      8  H   UNL     1      -1.995   4.943 131.127  0.00  0.00    +0.000 HD
ATOM      9  H   UNL     1      -3.470   5.574 130.635  0.00  0.00    +0.000 HD
ENDBRANCH   3   7
BRANCH   5  10
ATOM     10  N   UNL     1      -4.425   6.495 128.330  0.00  0.00    +0.000 NA
ATOM     11  H   UNL     1      -4.476   6.081 129.273  0.00  0.00    +0.000 HD
ATOM     12  H   UNL     1      -5.383   6.803 128.194  0.00  0.00    +0.000 HD
ENDBRANCH   5  10
BRANCH   2  13
ATOM     13  O   UNL     1      -3.753   2.131 129.062  0.00  0.00    +0.000 OA
ATOM     14  H   UNL     1      -4.707   1.951 129.137  0.00  0.00    +0.000 HD
ENDBRANCH   2  13
BRANCH   6  15
ATOM     15  O   UNL     1      -5.002   3.062 126.616  0.00  0.00    +0.000 OA
BRANCH  15  16
ATOM     16  C   UNL     1      -5.814   2.914 125.400  0.00  0.00    +0.000 C 
ATOM     17  O   UNL     1      -7.016   2.106 125.529  0.00  0.00    +0.000 OA
ATOM     18  C   UNL     1      -7.752   1.501 124.396  0.00  0.00    +0.000 C 
ATOM     19  C   UNL     1      -8.411   2.686 123.813  0.00  0.00    +0.000 C 
ATOM     20  C   UNL     1      -7.280   3.748 123.581  0.00  0.00    +0.000 C 
ATOM     21  C   UNL     1      -6.457   4.200 124.866  0.00  0.00    +0.000 C 
BRANCH  21  22
ATOM     22  N   UNL     1      -7.266   4.807 125.949  0.00  0.00    +0.000 NA
ATOM     23  H   UNL     1      -7.529   5.749 125.640  0.00  0.00    +0.000 HD
ATOM     24  H   UNL     1      -6.702   4.938 126.785  0.00  0.00    +0.000 HD
ENDBRANCH  21  22
BRANCH  20  25
ATOM     25  O   UNL     1      -6.339   3.283 122.585  0.00  0.00    +0.000 OA
ATOM     26  H   UNL     1      -5.580   3.891 122.485  0.00  0.00    +0.000 HD
ENDBRANCH  20  25
BRANCH  19  27
ATOM     27  O   UNL     1      -9.363   3.097 124.807  0.00  0.00    +0.000 OA
ATOM     28  H   UNL     1      -9.338   4.082 124.816  0.00  0.00    +0.000 HD
ENDBRANCH  19  27
BRANCH  18  29
ATOM     29  C   UNL     1      -7.094   0.594 123.345  0.00  0.00    +0.000 C 
BRANCH  29  30
ATOM     30  O   UNL     1      -6.736  -0.569 123.989  0.00  0.00    +0.000 OA
ATOM     31  H   UNL     1      -6.200  -0.260 124.759  0.00  0.00    +0.000 HD
ENDBRANCH  29  30
ENDBRANCH  18  29
ENDBRANCH  15  16
ENDBRANCH   6  15
BRANCH   1  32
ATOM     32  O   UNL     1      -5.304   4.597 130.222  0.00  0.00    +0.000 OA
BRANCH  32  36
ATOM     33  C   UNL     1      -8.494   4.793 129.637  0.00  0.00    +0.000 C 
ATOM     34  C   UNL     1      -8.675   3.342 130.049  0.00  0.00    +0.000 C 
ATOM     35  O   UNL     1      -7.438   3.029 130.837  0.00  0.00    +0.000 OA
ATOM     36  C   UNL     1      -6.553   4.225 130.980  0.00  0.00    +0.000 C 
ATOM     37  C   UNL     1      -7.557   5.267 130.774  0.00  0.00    +0.000 C 
BRANCH  37  38
ATOM     38  O   UNL     1      -8.114   5.372 132.080  0.00  0.00    +0.000 OA
ATOM     39  H   UNL     1      -7.581   4.815 132.666  0.00  0.00    +0.000 HD
ENDBRANCH  37  38
BRANCH  34  40
ATOM     40  C   UNL     1      -9.035   2.357 128.889  0.00  0.00    +0.000 C 
BRANCH  40  41
ATOM     41  O   UNL     1      -8.618   2.796 127.602  0.00  0.00    +0.000 OA
ATOM     42  H   UNL     1      -9.073   3.634 127.429  0.00  0.00    +0.000 HD
ENDBRANCH  40  41
ENDBRANCH  34  40
BRANCH  33  43
ATOM     43  O   UNL     1      -9.594   5.613 129.280  0.00  0.00    +0.000 OA
BRANCH  43  46
ATOM     44  C   UNL     1     -10.760   8.251 128.211  0.00  0.00    +0.000 C 
ATOM     45  O   UNL     1      -9.712   7.988 129.159  0.00  0.00    +0.000 OA
ATOM     46  C   UNL     1      -9.737   6.831 129.977  0.00  0.00    +0.000 C 
ATOM     47  C   UNL     1     -11.036   6.866 130.780  0.00  0.00    +0.000 C 
ATOM     48  C   UNL     1     -12.233   7.197 129.855  0.00  0.00    +0.000 C 
ATOM     49  C   UNL     1     -11.994   8.476 129.036  0.00  0.00    +0.000 C 
BRANCH  47  50
ATOM     50  N   UNL     1     -11.320   5.628 131.536  0.00  0.00    +0.000 NA
ATOM     51  H   UNL     1     -12.262   5.728 131.925  0.00  0.00    +0.000 HD
ATOM     52  H   UNL     1     -10.713   5.658 132.361  0.00  0.00    +0.000 HD
ENDBRANCH  47  50
BRANCH  49  53
ATOM     53  O   UNL     1     -13.101   8.802 128.205  0.00  0.00    +0.000 OA
ATOM     54  H   UNL     1     -13.166   9.786 128.234  0.00  0.00    +0.000 HD
ENDBRANCH  49  53
BRANCH  48  55
ATOM     55  O   UNL     1     -13.395   7.353 130.673  0.00  0.00    +0.000 OA
ATOM     56  H   UNL     1     -13.246   8.159 131.198  0.00  0.00    +0.000 HD
ENDBRANCH  48  55
BRANCH  44  57
ATOM     57  C   UNL     1     -10.982   7.216 127.056  0.00  0.00    +0.000 C 
BRANCH  57  58
ATOM     58  N   UNL     1      -9.895   6.474 126.423  0.00  0.00    +0.000 NA
ATOM     59  H   UNL     1      -9.028   6.878 126.806  0.00  0.00    +0.000 HD
ATOM     60  H   UNL     1      -9.869   6.756 125.440  0.00  0.00    +0.000 HD
ENDBRANCH  57  58
ENDBRANCH  44  57
ENDBRANCH  43  46
ENDBRANCH  33  43
ENDBRANCH  32  36
ENDBRANCH   1  32
TORSDOF 22
ENDMDL
MODEL 3
REMARK VINA RESULT:      -7.6      2.178      3.494
REMARK  Name = Paromomycin
REMARK  22 active torsions:
REMARK  status: ('A' for Active; 'I' for Inactive)
REMARK    1  A    between atoms: N_1  and  C_2
REMARK    2  A    between atoms: C_2  and  C_3
REMARK    3  A    between atoms: C_5  and  O_6
REMARK    4  A    between atoms: O_6  and  C_7
REMARK    5  A    between atoms: C_8  and  C_9
REMARK    6  A    between atoms: C_9  and  O_10
REMARK    7  A    between atoms: C_12  and  O_13
REMARK    8  A    between atoms: O_13  and  C_14
REMARK    9  A    between atoms: C_15  and  O_16
REMARK   10  A    between atoms: C_17  and  N_18
REMARK   11  A    between atoms: C_20  and  N_21
REMARK   12  A    between atoms: C_22  and  O_23
REMARK   13  A    between atoms: O_23  and  C_24
REMARK   14  A    between atoms: C_26  and  C_27
REMARK   15  A    between atoms: C_27  and  O_28
REMARK   16  A    between atoms: C_29  and  O_30
REMARK   17  A    between atoms: C_31  and  O_32
REMARK   18  A    between atoms: C_33  and  N_34
REMARK   19  A    between atoms: C_35  and  O_36
REMARK   20  A    between atoms: C_37  and  N_38
REMARK   21  A    between atoms: C_39  and  O_40
REMARK   22  A    between atoms: C_41  and  O_42
REMARK                            x       y       z     vdW  Elec       q    Type
REMARK                         _______ _______ _______ _____ _____    ______ ____
ROOT
ATOM      1  C   UNL     1      -4.574   4.988 129.166  0.00  0.00    +0.000 C 
ATOM      2  C   UNL     1      -3.802   6.193 129.535  0.00  0.00    +0.000 C 
ATOM      3  C   UNL     1      -3.107   6.279 130.886  0.00  0.00    +0.000 C 
ATOM      4  C   UNL     1      -4.086   5.972 132.000  0.00  0.00    +0.000 C 
ATOM      5  C   UNL     1      -4.954   4.760 131.668  0.00  0.00    +0.000 C 
ATOM      6  C   UNL     1      -5.664   4.867 130.283  0.00  0.00    +0.000 C 
ENDROOT
BRANCH   3   7
ATOM      7  N   UNL     1      -1.841   5.546 130.804  0.00  0.00    +0.000 NA
ATOM      8  H   UNL     1      -1.179   5.947 130.151  0.00  0.00    +0.000 HD
ATOM      9  H   UNL     1      -2.002   4.567 130.634  0.00  0.00    +0.000 HD
ENDBRANCH   3   7
BRANCH   5  10
ATOM     10  N   UNL     1      -4.001   3.629 131.652  0.00  0.00    +0.000 NA
ATOM     11  H   UNL     1      -4.546   2.786 131.421  0.00  0.00    +0.000 HD
ATOM     12  H   UNL     1      -3.670   3.405 132.584  0.00  0.00    +0.000 HD
ENDBRANCH   5  10
BRANCH   2  13
ATOM     13  O   UNL     1      -4.506   7.086 128.854  0.00  0.00    +0.000 OA
ATOM     14  H   UNL     1      -4.059   7.920 129.083  0.00  0.00    +0.000 HD
ENDBRANCH   2  13
BRANCH   6  15
ATOM     15  O   UNL     1      -6.798   5.841 130.122  0.00  0.00    +0.000 OA
BRANCH  15  16
ATOM     16  C   UNL     1      -8.219   5.540 130.348  0.00  0.00    +0.000 C 
ATOM     17  O   UNL     1      -9.150   6.629 130.100  0.00  0.00    +0.000 OA
ATOM     18  C   UNL     1     -10.533   6.693 130.623  0.00  0.00    +0.000 C 
ATOM     19  C   UNL     1     -11.211   5.698 129.767  0.00  0.00    +0.000 C 
ATOM     20  C   UNL     1     -10.359   4.385 129.862  0.00  0.00    +0.000 C 
ATOM     21  C   UNL     1      -8.836   4.492 129.414  0.00  0.00    +0.000 C 
BRANCH  21  22
ATOM     22  N   UNL     1      -8.623   4.926 128.013  0.00  0.00    +0.000 NA
ATOM     23  H   UNL     1      -9.139   5.803 127.884  0.00  0.00    +0.000 HD
ATOM     24  H   UNL     1      -9.041   4.262 127.366  0.00  0.00    +0.000 HD
ENDBRANCH  21  22
BRANCH  20  25
ATOM     25  O   UNL     1     -10.395   3.848 131.206  0.00  0.00    +0.000 OA
ATOM     26  H   UNL     1     -11.119   4.237 131.736  0.00  0.00    +0.000 HD
ENDBRANCH  20  25
BRANCH  19  27
ATOM     27  O   UNL     1     -11.193   6.278 128.453  0.00  0.00    +0.000 OA
ATOM     28  H   UNL     1     -10.474   6.951 128.463  0.00  0.00    +0.000 HD
ENDBRANCH  19  27
BRANCH  18  29
ATOM     29  C   UNL     1     -10.885   6.554 132.111  0.00  0.00    +0.000 C 
BRANCH  29  30
ATOM     30  O   UNL     1     -12.206   6.169 132.175  0.00  0.00    +0.000 OA
ATOM     31  H   UNL     1     -12.181   5.308 132.659  0.00  0.00    +0.000 HD
ENDBRANCH  29  30
ENDBRANCH  18  29
ENDBRANCH  15  16
ENDBRANCH   6  15
BRANCH   1  32
ATOM     32  O   UNL     1      -3.468   4.128 128.928  0.00  0.00    +0.000 OA
BRANCH  32  36
ATOM     33  C   UNL     1      -5.760   3.351 126.760  0.00  0.00    +0.000 C 
ATOM     34  C   UNL     1      -5.001   4.087 125.670  0.00  0.00    +0.000 C 
ATOM     35  O   UNL     1      -3.609   4.213 126.214  0.00  0.00    +0.000 OA
ATOM     36  C   UNL     1      -3.469   3.538 127.541  0.00  0.00    +0.000 C 
ATOM     37  C   UNL     1      -4.584   2.600 127.428  0.00  0.00    +0.000 C 
BRANCH  37  38
ATOM     38  O   UNL     1      -3.978   1.543 126.690  0.00  0.00    +0.000 OA
ATOM     39  H   UNL     1      -3.696   0.871 127.327  0.00  0.00    +0.000 HD
ENDBRANCH  37  38
BRANCH  34  40
ATOM     40  C   UNL     1      -5.674   5.403 125.157  0.00  0.00    +0.000 C 
BRANCH  40  41
ATOM     41  O   UNL     1      -7.057   5.511 125.473  0.00  0.00    +0.000 OA
ATOM     42  H   UNL     1      -7.263   6.456 125.516  0.00  0.00    +0.000 HD
ENDBRANCH  40  41
ENDBRANCH  34  40
BRANCH  33  43
ATOM     43  O   UNL     1      -6.954   2.636 126.489  0.00  0.00    +0.000 OA
BRANCH  43  46
ATOM     44  C   UNL     1      -7.565  -0.270 125.689  0.00  0.00    +0.000 C 
ATOM     45  O   UNL     1      -6.782   0.749 125.048  0.00  0.00    +0.000 OA
ATOM     46  C   UNL     1      -7.109   2.121 125.186  0.00  0.00    +0.000 C 
ATOM     47  C   UNL     1      -8.539   2.304 124.679  0.00  0.00    +0.000 C 
ATOM     48  C   UNL     1      -9.465   1.214 125.274  0.00  0.00    +0.000 C 
ATOM     49  C   UNL     1      -8.916  -0.203 125.037  0.00  0.00    +0.000 C 
BRANCH  47  50
ATOM     50  N   UNL     1      -9.113   3.640 124.941  0.00  0.00    +0.000 NA
ATOM     51  H   UNL     1      -9.642   3.904 124.104  0.00  0.00    +0.000 HD
ATOM     52  H   UNL     1      -8.321   4.290 124.943  0.00  0.00    +0.000 HD
ENDBRANCH  47  50
BRANCH  49  53
ATOM     53  O   UNL     1      -9.776  -1.210 125.556  0.00  0.00    +0.000 OA
ATOM     54  H   UNL     1     -10.132  -0.839 126.397  0.00  0.00    +0.000 HD
ENDBRANCH  49  53
BRANCH  48  55
ATOM     55  O   UNL     1     -10.752   1.345 124.665  0.00  0.00    +0.000 OA
ATOM     56  H   UNL     1     -10.584   1.593 123.739  0.00  0.00    +0.000 HD
ENDBRANCH  48  55
BRANCH  44  57
ATOM     57  C   UNL     1      -7.646  -0.258 127.254  0.00  0.00    +0.000 C 
BRANCH  57  58
ATOM     58  N   UNL     1      -6.481  -0.075 128.116  0.00  0.00    +0.000 NA
ATOM     59  H   UNL     1      -5.666  -0.105 127.486  0.00  0.00    +0.000 HD
ATOM     60  H   UNL     1      -6.378  -0.930 128.671  0.00  0.00    +0.000 HD
ENDBRANCH  57  58
ENDBRANCH  44  57
ENDBRANCH  43  46
ENDBRANCH  33  43
ENDBRANCH  32  36
ENDBRANCH   1  32
TORSDOF 22
ENDMDL
MODEL 4
REMARK VINA RESULT:      -7.6      0.758      1.926
REMARK  Name = Paromomycin
REMARK  22 active torsions:
REMARK  status: ('A' for Active; 'I' for Inactive)
REMARK    1  A    between atoms: N_1  and  C_2
REMARK    2  A    between atoms: C_2  and  C_3
REMARK    3  A    between atoms: C_5  and  O_6
REMARK    4  A    between atoms: O_6  and  C_7
REMARK    5  A    between atoms: C_8  and  C_9
REMARK    6  A    between atoms: C_9  and  O_10
REMARK    7  A    between atoms: C_12  and  O_13
REMARK    8  A    between atoms: O_13  and  C_14
REMARK    9  A    between atoms: C_15  and  O_16
REMARK   10  A    between atoms: C_17  and  N_18
REMARK   11  A    between atoms: C_20  and  N_21
REMARK   12  A    between atoms: C_22  and  O_23
REMARK   13  A    between atoms: O_23  and  C_24
REMARK   14  A    between atoms: C_26  and  C_27
REMARK   15  A    between atoms: C_27  and  O_28
REMARK   16  A    between atoms: C_29  and  O_30
REMARK   17  A    between atoms: C_31  and  O_32
REMARK   18  A    between atoms: C_33  and  N_34
REMARK   19  A    between atoms: C_35  and  O_36
REMARK   20  A    between atoms: C_37  and  N_38
REMARK   21  A    between atoms: C_39  and  O_40
REMARK   22  A    between atoms: C_41  and  O_42
REMARK                            x       y       z     vdW  Elec       q    Type
REMARK                         _______ _______ _______ _____ _____    ______ ____
ROOT
ATOM      1  C   UNL     1      -7.306   4.806 129.388  0.00  0.00    +0.000 C 
ATOM      2  C   UNL     1      -7.174   5.307 130.772  0.00  0.00    +0.000 C 
ATOM      3  C   UNL     1      -7.890   4.606 131.917  0.00  0.00    +0.000 C 
ATOM      4  C   UNL     1      -9.362   4.450 131.597  0.00  0.00    +0.000 C 
ATOM      5  C   UNL     1      -9.579   3.976 130.161  0.00  0.00    +0.000 C 
ATOM      6  C   UNL     1      -8.844   4.854 129.102  0.00  0.00    +0.000 C 
ENDROOT
BRANCH   3   7
ATOM      7  N   UNL     1      -7.101   3.437 132.311  0.00  0.00    +0.000 NA
ATOM      8  H   UNL     1      -7.400   3.020 133.185  0.00  0.00    +0.000 HD
ATOM      9  H   UNL     1      -6.117   3.647 132.304  0.00  0.00    +0.000 HD
ENDBRANCH   3   7
BRANCH   5  10
ATOM     10  N   UNL     1      -9.021   2.607 130.147  0.00  0.00    +0.000 NA
ATOM     11  H   UNL     1      -8.026   2.691 130.399  0.00  0.00    +0.000 HD
ATOM     12  H   UNL     1      -8.959   2.237 129.204  0.00  0.00    +0.000 HD
ENDBRANCH   5  10
BRANCH   2  13
ATOM     13  O   UNL     1      -7.017   6.594 130.494  0.00  0.00    +0.000 OA
ATOM     14  H   UNL     1      -6.509   6.567 129.665  0.00  0.00    +0.000 HD
ENDBRANCH   2  13
BRANCH   6  15
ATOM     15  O   UNL     1      -9.360   6.238 128.822  0.00  0.00    +0.000 OA
BRANCH  15  16
ATOM     16  C   UNL     1     -10.760   6.667 128.946  0.00  0.00    +0.000 C 
ATOM     17  O   UNL     1     -10.999   7.830 129.786  0.00  0.00    +0.000 OA
ATOM     18  C   UNL     1     -12.310   8.195 130.369  0.00  0.00    +0.000 C 
ATOM     19  C   UNL     1     -13.024   8.701 129.180  0.00  0.00    +0.000 C 
ATOM     20  C   UNL     1     -12.897   7.585 128.085  0.00  0.00    +0.000 C 
ATOM     21  C   UNL     1     -11.420   7.174 127.658  0.00  0.00    +0.000 C 
BRANCH  21  22
ATOM     22  N   UNL     1     -10.595   8.276 127.108  0.00  0.00    +0.000 NA
ATOM     23  H   UNL     1      -9.899   7.853 126.484  0.00  0.00    +0.000 HD
ATOM     24  H   UNL     1     -10.065   8.729 127.848  0.00  0.00    +0.000 HD
ENDBRANCH  21  22
BRANCH  20  25
ATOM     25  O   UNL     1     -13.597   6.387 128.493  0.00  0.00    +0.000 OA
ATOM     26  H   UNL     1     -13.344   6.102 129.393  0.00  0.00    +0.000 HD
ENDBRANCH  20  25
BRANCH  19  27
ATOM     27  O   UNL     1     -12.330   9.908 128.826  0.00  0.00    +0.000 OA
ATOM     28  H   UNL     1     -12.984  10.637 128.926  0.00  0.00    +0.000 HD
ENDBRANCH  19  27
BRANCH  18  29
ATOM     29  C   UNL     1     -13.155   7.238 131.224  0.00  0.00    +0.000 C 
BRANCH  29  30
ATOM     30  O   UNL     1     -12.275   6.405 131.878  0.00  0.00    +0.000 OA
ATOM     31  H   UNL     1     -12.369   5.541 131.406  0.00  0.00    +0.000 HD
ENDBRANCH  29  30
ENDBRANCH  18  29
ENDBRANCH  15  16
ENDBRANCH   6  15
BRANCH   1  32
ATOM     32  O   UNL     1      -6.478   3.660 129.529  0.00  0.00    +0.000 OA
BRANCH  32  36
ATOM     33  C   UNL     1      -7.407   2.638 126.588  0.00  0.00    +0.000 C 
ATOM     34  C   UNL     1      -6.528   3.686 125.929  0.00  0.00    +0.000 C 
ATOM     35  O   UNL     1      -5.562   4.083 127.005  0.00  0.00    +0.000 OA
ATOM     36  C   UNL     1      -5.765   3.288 128.254  0.00  0.00    +0.000 C 
ATOM     37  C   UNL     1      -6.426   2.123 127.668  0.00  0.00    +0.000 C 
BRANCH  37  38
ATOM     38  O   UNL     1      -5.303   1.367 127.224  0.00  0.00    +0.000 OA
ATOM     39  H   UNL     1      -5.610   0.786 126.512  0.00  0.00    +0.000 HD
ENDBRANCH  37  38
BRANCH  34  40
ATOM     40  C   UNL     1      -7.293   4.848 125.212  0.00  0.00    +0.000 C 
BRANCH  40  41
ATOM     41  O   UNL     1      -8.704   4.812 125.390  0.00  0.00    +0.000 OA
ATOM     42  H   UNL     1      -9.015   5.728 125.360  0.00  0.00    +0.000 HD
ENDBRANCH  40  41
ENDBRANCH  34  40
BRANCH  33  43
ATOM     43  O   UNL     1      -8.139   1.690 125.829  0.00  0.00    +0.000 OA
BRANCH  43  46
ATOM     44  C   UNL     1      -7.879  -1.123 124.613  0.00  0.00    +0.000 C 
ATOM     45  O   UNL     1      -7.061   0.050 124.481  0.00  0.00    +0.000 OA
ATOM     46  C   UNL     1      -7.622   1.349 124.562  0.00  0.00    +0.000 C 
ATOM     47  C   UNL     1      -8.692   1.454 123.476  0.00  0.00    +0.000 C 
ATOM     48  C   UNL     1      -9.605   0.202 123.496  0.00  0.00    +0.000 C 
ATOM     49  C   UNL     1      -8.796  -1.104 123.425  0.00  0.00    +0.000 C 
BRANCH  47  50
ATOM     50  N   UNL     1      -9.522   2.674 123.552  0.00  0.00    +0.000 NA
ATOM     51  H   UNL     1      -9.553   3.070 122.608  0.00  0.00    +0.000 HD
ATOM     52  H   UNL     1      -8.970   3.355 124.082  0.00  0.00    +0.000 HD
ENDBRANCH  47  50
BRANCH  49  53
ATOM     53  O   UNL     1      -9.629  -2.256 123.414  0.00  0.00    +0.000 OA
ATOM     54  H   UNL     1      -9.477  -2.694 124.284  0.00  0.00    +0.000 HD
ENDBRANCH  49  53
BRANCH  48  55
ATOM     55  O   UNL     1     -10.495   0.286 122.381  0.00  0.00    +0.000 OA
ATOM     56  H   UNL     1     -11.058  -0.506 122.430  0.00  0.00    +0.000 HD
ENDBRANCH  48  55
BRANCH  44  57
ATOM     57  C   UNL     1      -8.641  -1.338 125.965  0.00  0.00    +0.000 C 
BRANCH  57  58
ATOM     58  N   UNL     1      -8.038  -1.096 127.274  0.00  0.00    +0.000 NA
ATOM     59  H   UNL     1      -8.787  -0.683 127.848  0.00  0.00    +0.000 HD
ATOM     60  H   UNL     1      -7.376  -0.322 127.163  0.00  0.00    +0.000 HD
ENDBRANCH  57  58
ENDBRANCH  44  57
ENDBRANCH  43  46
ENDBRANCH  33  43
ENDBRANCH  32  36
ENDBRANCH   1  32
TORSDOF 22
ENDMDL
MODEL 5
REMARK VINA RESULT:      -7.5      2.110      8.424
REMARK  Name = Paromomycin
REMARK  22 active torsions:
REMARK  status: ('A' for Active; 'I' for Inactive)
REMARK    1  A    between atoms: N_1  and  C_2
REMARK    2  A    between atoms: C_2  and  C_3
REMARK    3  A    between atoms: C_5  and  O_6
REMARK    4  A    between atoms: O_6  and  C_7
REMARK    5  A    between atoms: C_8  and  C_9
REMARK    6  A    between atoms: C_9  and  O_10
REMARK    7  A    between atoms: C_12  and  O_13
REMARK    8  A    between atoms: O_13  and  C_14
REMARK    9  A    between atoms: C_15  and  O_16
REMARK   10  A    between atoms: C_17  and  N_18
REMARK   11  A    between atoms: C_20  and  N_21
REMARK   12  A    between atoms: C_22  and  O_23
REMARK   13  A    between atoms: O_23  and  C_24
REMARK   14  A    between atoms: C_26  and  C_27
REMARK   15  A    between atoms: C_27  and  O_28
REMARK   16  A    between atoms: C_29  and  O_30
REMARK   17  A    between atoms: C_31  and  O_32
REMARK   18  A    between atoms: C_33  and  N_34
REMARK   19  A    between atoms: C_35  and  O_36
REMARK   20  A    between atoms: C_37  and  N_38
REMARK   21  A    between atoms: C_39  and  O_40
REMARK   22  A    between atoms: C_41  and  O_42
REMARK                            x       y       z     vdW  Elec       q    Type
REMARK                         _______ _______ _______ _____ _____    ______ ____
ROOT
ATOM      1  C   UNL     1      -6.338   2.146 127.834  0.00  0.00    +0.000 C 
ATOM      2  C   UNL     1      -5.375   1.868 126.749  0.00  0.00    +0.000 C 
ATOM      3  C   UNL     1      -5.653   2.343 125.330  0.00  0.00    +0.000 C 
ATOM      4  C   UNL     1      -7.027   1.888 124.885  0.00  0.00    +0.000 C 
ATOM      5  C   UNL     1      -8.073   2.104 125.978  0.00  0.00    +0.000 C 
ATOM      6  C   UNL     1      -7.671   1.482 127.351  0.00  0.00    +0.000 C 
ENDROOT
BRANCH   3   7
ATOM      7  N   UNL     1      -5.286   3.757 125.234  0.00  0.00    +0.000 NA
ATOM      8  H   UNL     1      -4.946   4.028 124.319  0.00  0.00    +0.000 HD
ATOM      9  H   UNL     1      -4.651   4.016 125.971  0.00  0.00    +0.000 HD
ENDBRANCH   3   7
BRANCH   5  10
ATOM     10  N   UNL     1      -8.161   3.574 126.105  0.00  0.00    +0.000 NA
ATOM     11  H   UNL     1      -7.600   3.972 125.337  0.00  0.00    +0.000 HD
ATOM     12  H   UNL     1      -7.657   3.912 126.918  0.00  0.00    +0.000 HD
ENDBRANCH   5  10
BRANCH   2  13
ATOM     13  O   UNL     1      -4.895   0.721 127.210  0.00  0.00    +0.000 OA
ATOM     14  H   UNL     1      -5.706   0.240 127.453  0.00  0.00    +0.000 HD
ENDBRANCH   2  13
BRANCH   6  15
ATOM     15  O   UNL     1      -7.685  -0.014 127.502  0.00  0.00    +0.000 OA
BRANCH  15  16
ATOM     16  C   UNL     1      -8.204  -0.966 126.510  0.00  0.00    +0.000 C 
ATOM     17  O   UNL     1      -7.389  -1.156 125.321  0.00  0.00    +0.000 OA
ATOM     18  C   UNL     1      -7.875  -1.732 124.047  0.00  0.00    +0.000 C 
ATOM     19  C   UNL     1      -7.989  -3.161 124.400  0.00  0.00    +0.000 C 
ATOM     20  C   UNL     1      -8.851  -3.222 125.709  0.00  0.00    +0.000 C 
ATOM     21  C   UNL     1      -8.289  -2.428 126.967  0.00  0.00    +0.000 C 
BRANCH  21  22
ATOM     22  N   UNL     1      -6.947  -2.854 127.432  0.00  0.00    +0.000 NA
ATOM     23  H   UNL     1      -7.057  -3.773 127.875  0.00  0.00    +0.000 HD
ATOM     24  H   UNL     1      -6.609  -2.234 128.163  0.00  0.00    +0.000 HD
ENDBRANCH  21  22
BRANCH  20  25
ATOM     25  O   UNL     1     -10.200  -2.765 125.454  0.00  0.00    +0.000 OA
ATOM     26  H   UNL     1     -10.483  -2.952 124.537  0.00  0.00    +0.000 HD
ENDBRANCH  20  25
BRANCH  19  27
ATOM     27  O   UNL     1      -6.634  -3.592 124.607  0.00  0.00    +0.000 OA
ATOM     28  H   UNL     1      -6.130  -2.787 124.869  0.00  0.00    +0.000 HD
ENDBRANCH  19  27
BRANCH  18  29
ATOM     29  C   UNL     1      -9.097  -1.196 123.286  0.00  0.00    +0.000 C 
BRANCH  29  30
ATOM     30  O   UNL     1      -9.686  -0.247 124.092  0.00  0.00    +0.000 OA
ATOM     31  H   UNL     1      -8.929   0.140 124.596  0.00  0.00    +0.000 HD
ENDBRANCH  29  30
ENDBRANCH  18  29
ENDBRANCH  15  16
ENDBRANCH   6  15
BRANCH   1  32
ATOM     32  O   UNL     1      -6.054   3.531 127.979  0.00  0.00    +0.000 OA
BRANCH  32  36
ATOM     33  C   UNL     1      -8.771   4.526 129.458  0.00  0.00    +0.000 C 
ATOM     34  C   UNL     1      -8.457   3.651 130.659  0.00  0.00    +0.000 C 
ATOM     35  O   UNL     1      -6.992   3.358 130.525  0.00  0.00    +0.000 OA
ATOM     36  C   UNL     1      -6.391   4.060 129.350  0.00  0.00    +0.000 C 
ATOM     37  C   UNL     1      -7.370   5.136 129.212  0.00  0.00    +0.000 C 
BRANCH  37  38
ATOM     38  O   UNL     1      -6.886   6.070 130.172  0.00  0.00    +0.000 OA
ATOM     39  H   UNL     1      -6.847   6.935 129.738  0.00  0.00    +0.000 HD
ENDBRANCH  37  38
BRANCH  34  40
ATOM     40  C   UNL     1      -9.402   2.419 130.856  0.00  0.00    +0.000 C 
BRANCH  40  41
ATOM     41  O   UNL     1     -10.757   2.761 131.118  0.00  0.00    +0.000 OA
ATOM     42  H   UNL     1     -11.263   2.537 130.323  0.00  0.00    +0.000 HD
ENDBRANCH  40  41
ENDBRANCH  34  40
BRANCH  33  43
ATOM     43  O   UNL     1      -9.898   5.385 129.432  0.00  0.00    +0.000 OA
BRANCH  43  46
ATOM     44  C   UNL     1     -10.454   8.235 128.418  0.00  0.00    +0.000 C 
ATOM     45  O   UNL     1      -9.513   7.734 129.380  0.00  0.00    +0.000 OA
ATOM     46  C   UNL     1      -9.802   6.588 130.162  0.00  0.00    +0.000 C 
ATOM     47  C   UNL     1     -11.088   6.876 130.937  0.00  0.00    +0.000 C 
ATOM     48  C   UNL     1     -12.162   7.474 129.995  0.00  0.00    +0.000 C 
ATOM     49  C   UNL     1     -11.637   8.694 129.221  0.00  0.00    +0.000 C 
BRANCH  47  50
ATOM     50  N   UNL     1     -11.646   5.707 131.648  0.00  0.00    +0.000 NA
ATOM     51  H   UNL     1     -12.194   6.072 132.433  0.00  0.00    +0.000 HD
ATOM     52  H   UNL     1     -10.850   5.248 132.101  0.00  0.00    +0.000 HD
ENDBRANCH  47  50
BRANCH  49  53
ATOM     53  O   UNL     1     -12.627   9.266 128.375  0.00  0.00    +0.000 OA
ATOM     54  H   UNL     1     -13.475   9.172 128.869  0.00  0.00    +0.000 HD
ENDBRANCH  49  53
BRANCH  48  55
ATOM     55  O   UNL     1     -13.288   7.850 130.791  0.00  0.00    +0.000 OA
ATOM     56  H   UNL     1     -13.266   7.273 131.574  0.00  0.00    +0.000 HD
ENDBRANCH  48  55
BRANCH  44  57
ATOM     57  C   UNL     1     -10.856   7.298 127.227  0.00  0.00    +0.000 C 
BRANCH  57  58
ATOM     58  N   UNL     1      -9.911   6.416 126.546  0.00  0.00    +0.000 NA
ATOM     59  H   UNL     1      -9.367   7.028 125.922  0.00  0.00    +0.000 HD
ATOM     60  H   UNL     1     -10.452   5.840 125.895  0.00  0.00    +0.000 HD
ENDBRANCH  57  58
ENDBRANCH  44  57
ENDBRANCH  43  46
ENDBRANCH  33  43
ENDBRANCH  32  36
ENDBRANCH   1  32
TORSDOF 22
ENDMDL
MODEL 6
REMARK VINA RESULT:      -7.4      2.227      7.923
REMARK  Name = Paromomycin
REMARK  22 active torsions:
REMARK  status: ('A' for Active; 'I' for Inactive)
REMARK    1  A    between atoms: N_1  and  C_2
REMARK    2  A    between atoms: C_2  and  C_3
REMARK    3  A    between atoms: C_5  and  O_6
REMARK    4  A    between atoms: O_6  and  C_7
REMARK    5  A    between atoms: C_8  and  C_9
REMARK    6  A    between atoms: C_9  and  O_10
REMARK    7  A    between atoms: C_12  and  O_13
REMARK    8  A    between atoms: O_13  and  C_14
REMARK    9  A    between atoms: C_15  and  O_16
REMARK   10  A    between atoms: C_17  and  N_18
REMARK   11  A    between atoms: C_20  and  N_21
REMARK   12  A    between atoms: C_22  and  O_23
REMARK   13  A    between atoms: O_23  and  C_24
REMARK   14  A    between atoms: C_26  and  C_27
REMARK   15  A    between atoms: C_27  and  O_28
REMARK   16  A    between atoms: C_29  and  O_30
REMARK   17  A    between atoms: C_31  and  O_32
REMARK   18  A    between atoms: C_33  and  N_34
REMARK   19  A    between atoms: C_35  and  O_36
REMARK   20  A    between atoms: C_37  and  N_38
REMARK   21  A    between atoms: C_39  and  O_40
REMARK   22  A    between atoms: C_41  and  O_42
REMARK                            x       y       z     vdW  Elec       q    Type
REMARK                         _______ _______ _______ _____ _____    ______ ____
ROOT
ATOM      1  C   UNL     1      -5.174   3.213 128.808  0.00  0.00    +0.000 C 
ATOM      2  C   UNL     1      -3.750   2.918 128.547  0.00  0.00    +0.000 C 
ATOM      3  C   UNL     1      -2.987   3.688 127.480  0.00  0.00    +0.000 C 
ATOM      4  C   UNL     1      -3.737   3.646 126.165  0.00  0.00    +0.000 C 
ATOM      5  C   UNL     1      -5.232   3.898 126.362  0.00  0.00    +0.000 C 
ATOM      6  C   UNL     1      -5.881   2.968 127.432  0.00  0.00    +0.000 C 
ENDROOT
BRANCH   3   7
ATOM      7  N   UNL     1      -2.573   4.975 128.042  0.00  0.00    +0.000 NA
ATOM      8  H   UNL     1      -2.945   5.776 127.545  0.00  0.00    +0.000 HD
ATOM      9  H   UNL     1      -1.572   5.019 128.145  0.00  0.00    +0.000 HD
ENDBRANCH   3   7
BRANCH   5  10
ATOM     10  N   UNL     1      -5.302   5.304 126.816  0.00  0.00    +0.000 NA
ATOM     11  H   UNL     1      -6.296   5.510 126.987  0.00  0.00    +0.000 HD
ATOM     12  H   UNL     1      -5.088   5.952 126.065  0.00  0.00    +0.000 HD
ENDBRANCH   5  10
BRANCH   2  13
ATOM     13  O   UNL     1      -3.763   1.630 128.857  0.00  0.00    +0.000 OA
ATOM     14  H   UNL     1      -3.067   1.270 128.279  0.00  0.00    +0.000 HD
ENDBRANCH   2  13
BRANCH   6  15
ATOM     15  O   UNL     1      -6.074   1.512 127.108  0.00  0.00    +0.000 OA
BRANCH  15  16
ATOM     16  C   UNL     1      -6.673   0.986 125.873  0.00  0.00    +0.000 C 
ATOM     17  O   UNL     1      -7.104  -0.402 125.914  0.00  0.00    +0.000 OA
ATOM     18  C   UNL     1      -7.356  -1.243 124.722  0.00  0.00    +0.000 C 
ATOM     19  C   UNL     1      -8.635  -0.687 124.240  0.00  0.00    +0.000 C 
ATOM     20  C   UNL     1      -8.422   0.863 124.119  0.00  0.00    +0.000 C 
ATOM     21  C   UNL     1      -8.000   1.627 125.449  0.00  0.00    +0.000 C 
BRANCH  21  22
ATOM     22  N   UNL     1      -8.960   1.511 126.572  0.00  0.00    +0.000 NA
ATOM     23  H   UNL     1      -8.923   2.391 127.097  0.00  0.00    +0.000 HD
ATOM     24  H   UNL     1      -8.662   0.788 127.223  0.00  0.00    +0.000 HD
ENDBRANCH  21  22
BRANCH  20  25
ATOM     25  O   UNL     1      -7.443   1.165 123.097  0.00  0.00    +0.000 OA
ATOM     26  H   UNL     1      -7.545   2.074 122.749  0.00  0.00    +0.000 HD
ENDBRANCH  20  25
BRANCH  19  27
ATOM     27  O   UNL     1      -9.589  -1.038 125.256  0.00  0.00    +0.000 OA
ATOM     28  H   UNL     1      -9.070  -1.451 125.984  0.00  0.00    +0.000 HD
ENDBRANCH  19  27
BRANCH  18  29
ATOM     29  C   UNL     1      -6.326  -1.457 123.602  0.00  0.00    +0.000 C 
BRANCH  29  30
ATOM     30  O   UNL     1      -7.031  -1.822 122.477  0.00  0.00    +0.000 OA
ATOM     31  H   UNL     1      -6.671  -2.713 122.248  0.00  0.00    +0.000 HD
ENDBRANCH  29  30
ENDBRANCH  18  29
ENDBRANCH  15  16
ENDBRANCH   6  15
BRANCH   1  32
ATOM     32  O   UNL     1      -4.985   4.448 129.485  0.00  0.00    +0.000 OA
BRANCH  32  36
ATOM     33  C   UNL     1      -8.181   4.863 129.897  0.00  0.00    +0.000 C 
ATOM     34  C   UNL     1      -8.207   3.755 130.936  0.00  0.00    +0.000 C 
ATOM     35  O   UNL     1      -6.774   3.612 131.353  0.00  0.00    +0.000 OA
ATOM     36  C   UNL     1      -5.895   4.613 130.675  0.00  0.00    +0.000 C 
ATOM     37  C   UNL     1      -6.910   5.616 130.357  0.00  0.00    +0.000 C 
BRANCH  37  38
ATOM     38  O   UNL     1      -6.982   6.331 131.587  0.00  0.00    +0.000 OA
ATOM     39  H   UNL     1      -6.129   6.772 131.713  0.00  0.00    +0.000 HD
ENDBRANCH  37  38
BRANCH  34  40
ATOM     40  C   UNL     1      -8.944   2.446 130.499  0.00  0.00    +0.000 C 
BRANCH  40  41
ATOM     41  O   UNL     1      -9.432   2.470 129.164  0.00  0.00    +0.000 OA
ATOM     42  H   UNL     1      -8.709   2.167 128.595  0.00  0.00    +0.000 HD
ENDBRANCH  40  41
ENDBRANCH  34  40
BRANCH  33  43
ATOM     43  O   UNL     1      -9.338   5.619 129.579  0.00  0.00    +0.000 OA
BRANCH  43  46
ATOM     44  C   UNL     1     -10.684   8.170 128.511  0.00  0.00    +0.000 C 
ATOM     45  O   UNL     1      -9.580   7.981 129.410  0.00  0.00    +0.000 OA
ATOM     46  C   UNL     1      -9.507   6.845 130.254  0.00  0.00    +0.000 C 
ATOM     47  C   UNL     1     -10.765   6.837 131.121  0.00  0.00    +0.000 C 
ATOM     48  C   UNL     1     -12.021   7.087 130.250  0.00  0.00    +0.000 C 
ATOM     49  C   UNL     1     -11.886   8.355 129.391  0.00  0.00    +0.000 C 
BRANCH  47  50
ATOM     50  N   UNL     1     -10.950   5.606 131.917  0.00  0.00    +0.000 NA
ATOM     51  H   UNL     1     -11.538   4.979 131.360  0.00  0.00    +0.000 HD
ATOM     52  H   UNL     1     -11.552   5.869 132.703  0.00  0.00    +0.000 HD
ENDBRANCH  47  50
BRANCH  49  53
ATOM     53  O   UNL     1     -13.048   8.606 128.610  0.00  0.00    +0.000 OA
ATOM     54  H   UNL     1     -12.736   9.155 127.852  0.00  0.00    +0.000 HD
ENDBRANCH  49  53
BRANCH  48  55
ATOM     55  O   UNL     1     -13.148   7.206 131.122  0.00  0.00    +0.000 OA
ATOM     56  H   UNL     1     -13.354   6.301 131.416  0.00  0.00    +0.000 HD
ENDBRANCH  48  55
BRANCH  44  57
ATOM     57  C   UNL     1     -10.911   7.096 127.392  0.00  0.00    +0.000 C 
BRANCH  57  58
ATOM     58  N   UNL     1      -9.822   6.473 126.645  0.00  0.00    +0.000 NA
ATOM     59  H   UNL     1      -9.647   5.574 127.115  0.00  0.00    +0.000 HD
ATOM     60  H   UNL     1      -8.973   7.009 126.844  0.00  0.00    +0.000 HD
ENDBRANCH  57  58
ENDBRANCH  44  57
ENDBRANCH  43  46
ENDBRANCH  33  43
ENDBRANCH  32  36
ENDBRANCH   1  32
TORSDOF 22
ENDMDL
MODEL 7
REMARK VINA RESULT:      -7.4      3.639      7.943
REMARK  Name = Paromomycin
REMARK  22 active torsions:
REMARK  status: ('A' for Active; 'I' for Inactive)
REMARK    1  A    between atoms: N_1  and  C_2
REMARK    2  A    between atoms: C_2  and  C_3
REMARK    3  A    between atoms: C_5  and  O_6
REMARK    4  A    between atoms: O_6  and  C_7
REMARK    5  A    between atoms: C_8  and  C_9
REMARK    6  A    between atoms: C_9  and  O_10
REMARK    7  A    between atoms: C_12  and  O_13
REMARK    8  A    between atoms: O_13  and  C_14
REMARK    9  A    between atoms: C_15  and  O_16
REMARK   10  A    between atoms: C_17  and  N_18
REMARK   11  A    between atoms: C_20  and  N_21
REMARK   12  A    between atoms: C_22  and  O_23
REMARK   13  A    between atoms: O_23  and  C_24
REMARK   14  A    between atoms: C_26  and  C_27
REMARK   15  A    between atoms: C_27  and  O_28
REMARK   16  A    between atoms: C_29  and  O_30
REMARK   17  A    between atoms: C_31  and  O_32
REMARK   18  A    between atoms: C_33  and  N_34
REMARK   19  A    between atoms: C_35  and  O_36
REMARK   20  A    between atoms: C_37  and  N_38
REMARK   21  A    between atoms: C_39  and  O_40
REMARK   22  A    between atoms: C_41  and  O_42
REMARK                            x       y       z     vdW  Elec       q    Type
REMARK                         _______ _______ _______ _____ _____    ______ ____
ROOT
ATOM      1  C   UNL     1      -7.391  -1.163 125.617  0.00  0.00    +0.000 C 
ATOM      2  C   UNL     1      -8.674  -1.808 125.274  0.00  0.00    +0.000 C 
ATOM      3  C   UNL     1      -8.760  -2.782 124.108  0.00  0.00    +0.000 C 
ATOM      4  C   UNL     1      -8.186  -2.154 122.856  0.00  0.00    +0.000 C 
ATOM      5  C   UNL     1      -6.873  -1.426 123.143  0.00  0.00    +0.000 C 
ATOM      6  C   UNL     1      -6.977  -0.400 124.314  0.00  0.00    +0.000 C 
ENDROOT
BRANCH   3   7
ATOM      7  N   UNL     1      -8.275  -4.088 124.558  0.00  0.00    +0.000 NA
ATOM      8  H   UNL     1      -8.699  -4.405 125.422  0.00  0.00    +0.000 HD
ATOM      9  H   UNL     1      -7.269  -4.106 124.596  0.00  0.00    +0.000 HD
ENDBRANCH   3   7
BRANCH   5  10
ATOM     10  N   UNL     1      -5.936  -2.509 123.513  0.00  0.00    +0.000 NA
ATOM     11  H   UNL     1      -6.354  -3.002 124.315  0.00  0.00    +0.000 HD
ATOM     12  H   UNL     1      -5.083  -2.143 123.924  0.00  0.00    +0.000 HD
ENDBRANCH   5  10
BRANCH   2  13
ATOM     13  O   UNL     1      -9.486  -0.835 125.663  0.00  0.00    +0.000 OA
ATOM     14  H   UNL     1      -8.861  -0.146 125.949  0.00  0.00    +0.000 HD
ENDBRANCH   2  13
BRANCH   6  15
ATOM     15  O   UNL     1      -7.744   0.874 124.096  0.00  0.00    +0.000 OA
BRANCH  15  16
ATOM     16  C   UNL     1      -7.518   2.138 124.811  0.00  0.00    +0.000 C 
ATOM     17  O   UNL     1      -6.194   2.724 124.667  0.00  0.00    +0.000 OA
ATOM     18  C   UNL     1      -5.617   3.739 125.577  0.00  0.00    +0.000 C 
ATOM     19  C   UNL     1      -6.375   4.944 125.183  0.00  0.00    +0.000 C 
ATOM     20  C   UNL     1      -7.892   4.550 125.251  0.00  0.00    +0.000 C 
ATOM     21  C   UNL     1      -8.352   3.334 124.334  0.00  0.00    +0.000 C 
BRANCH  21  22
ATOM     22  N   UNL     1      -8.121   3.520 122.882  0.00  0.00    +0.000 NA
ATOM     23  H   UNL     1      -7.331   2.921 122.620  0.00  0.00    +0.000 HD
ATOM     24  H   UNL     1      -7.823   4.473 122.687  0.00  0.00    +0.000 HD
ENDBRANCH  21  22
BRANCH  20  25
ATOM     25  O   UNL     1      -8.283   4.259 126.614  0.00  0.00    +0.000 OA
ATOM     26  H   UNL     1      -7.925   4.913 127.246  0.00  0.00    +0.000 HD
ENDBRANCH  20  25
BRANCH  19  27
ATOM     27  O   UNL     1      -5.935   5.227 123.845  0.00  0.00    +0.000 OA
ATOM     28  H   UNL     1      -6.615   5.825 123.457  0.00  0.00    +0.000 HD
ENDBRANCH  19  27
BRANCH  18  29
ATOM     29  C   UNL     1      -5.518   3.556 127.099  0.00  0.00    +0.000 C 
BRANCH  29  30
ATOM     30  O   UNL     1      -5.525   4.816 127.654  0.00  0.00    +0.000 OA
ATOM     31  H   UNL     1      -5.852   5.397 126.924  0.00  0.00    +0.000 HD
ENDBRANCH  29  30
ENDBRANCH  18  29
ENDBRANCH  15  16
ENDBRANCH   6  15
BRANCH   1  32
ATOM     32  O   UNL     1      -6.765  -2.299 126.200  0.00  0.00    +0.000 OA
BRANCH  32  36
ATOM     33  C   UNL     1      -6.972  -1.221 129.258  0.00  0.00    +0.000 C 
ATOM     34  C   UNL     1      -5.996  -2.289 129.718  0.00  0.00    +0.000 C 
ATOM     35  O   UNL     1      -5.312  -2.726 128.457  0.00  0.00    +0.000 OA
ATOM     36  C   UNL     1      -5.771  -1.937 127.274  0.00  0.00    +0.000 C 
ATOM     37  C   UNL     1      -6.248  -0.746 127.975  0.00  0.00    +0.000 C 
BRANCH  37  38
ATOM     38  O   UNL     1      -5.033  -0.022 128.140  0.00  0.00    +0.000 OA
ATOM     39  H   UNL     1      -5.269   0.884 128.391  0.00  0.00    +0.000 HD
ENDBRANCH  37  38
BRANCH  34  40
ATOM     40  C   UNL     1      -6.612  -3.419 130.608  0.00  0.00    +0.000 C 
BRANCH  40  41
ATOM     41  O   UNL     1      -7.570  -2.959 131.552  0.00  0.00    +0.000 OA
ATOM     42  H   UNL     1      -7.919  -2.121 131.214  0.00  0.00    +0.000 HD
ENDBRANCH  40  41
ENDBRANCH  34  40
BRANCH  33  43
ATOM     43  O   UNL     1      -7.485  -0.242 130.147  0.00  0.00    +0.000 OA
BRANCH  43  46
ATOM     44  C   UNL     1      -7.453   2.833 130.126  0.00  0.00    +0.000 C 
ATOM     45  O   UNL     1      -6.387   1.870 130.145  0.00  0.00    +0.000 OA
ATOM     46  C   UNL     1      -6.549   0.608 130.770  0.00  0.00    +0.000 C 
ATOM     47  C   UNL     1      -6.915   0.866 132.232  0.00  0.00    +0.000 C 
ATOM     48  C   UNL     1      -8.029   1.938 132.328  0.00  0.00    +0.000 C 
ATOM     49  C   UNL     1      -7.665   3.220 131.561  0.00  0.00    +0.000 C 
BRANCH  47  50
ATOM     50  N   UNL     1      -7.322  -0.341 132.981  0.00  0.00    +0.000 NA
ATOM     51  H   UNL     1      -8.141  -0.082 133.538  0.00  0.00    +0.000 HD
ATOM     52  H   UNL     1      -6.590  -0.495 133.682  0.00  0.00    +0.000 HD
ENDBRANCH  47  50
BRANCH  49  53
ATOM     53  O   UNL     1      -8.671   4.219 131.669  0.00  0.00    +0.000 OA
ATOM     54  H   UNL     1      -9.478   3.742 131.975  0.00  0.00    +0.000 HD
ENDBRANCH  49  53
BRANCH  48  55
ATOM     55  O   UNL     1      -8.235   2.239 133.710  0.00  0.00    +0.000 OA
ATOM     56  H   UNL     1      -7.703   3.034 133.892  0.00  0.00    +0.000 HD
ENDBRANCH  48  55
BRANCH  44  57
ATOM     57  C   UNL     1      -8.784   2.440 129.399  0.00  0.00    +0.000 C 
BRANCH  57  58
ATOM     58  N   UNL     1      -8.824   1.798 128.088  0.00  0.00    +0.000 NA
ATOM     59  H   UNL     1      -8.519   2.521 127.420  0.00  0.00    +0.000 HD
ATOM     60  H   UNL     1      -9.810   1.661 127.848  0.00  0.00    +0.000 HD
ENDBRANCH  57  58
ENDBRANCH  44  57
ENDBRANCH  43  46
ENDBRANCH  33  43
ENDBRANCH  32  36
ENDBRANCH   1  32
TORSDOF 22
ENDMDL
MODEL 8
REMARK VINA RESULT:      -7.3      1.684      2.961
REMARK  Name = Paromomycin
REMARK  22 active torsions:
REMARK  status: ('A' for Active; 'I' for Inactive)
REMARK    1  A    between atoms: N_1  and  C_2
REMARK    2  A    between atoms: C_2  and  C_3
REMARK    3  A    between atoms: C_5  and  O_6
REMARK    4  A    between atoms: O_6  and  C_7
REMARK    5  A    between atoms: C_8  and  C_9
REMARK    6  A    between atoms: C_9  and  O_10
REMARK    7  A    between atoms: C_12  and  O_13
REMARK    8  A    between atoms: O_13  and  C_14
REMARK    9  A    between atoms: C_15  and  O_16
REMARK   10  A    between atoms: C_17  and  N_18
REMARK   11  A    between atoms: C_20  and  N_21
REMARK   12  A    between atoms: C_22  and  O_23
REMARK   13  A    between atoms: O_23  and  C_24
REMARK   14  A    between atoms: C_26  and  C_27
REMARK   15  A    between atoms: C_27  and  O_28
REMARK   16  A    between atoms: C_29  and  O_30
REMARK   17  A    between atoms: C_31  and  O_32
REMARK   18  A    between atoms: C_33  and  N_34
REMARK   19  A    between atoms: C_35  and  O_36
REMARK   20  A    between atoms: C_37  and  N_38
REMARK   21  A    between atoms: C_39  and  O_40
REMARK   22  A    between atoms: C_41  and  O_42
REMARK                            x       y       z     vdW  Elec       q    Type
REMARK                         _______ _______ _______ _____ _____    ______ ____
ROOT
ATOM      1  C   UNL     1      -8.516   4.467 130.373  0.00  0.00    +0.000 C 
ATOM      2  C   UNL     1      -7.273   4.810 131.094  0.00  0.00    +0.000 C 
ATOM      3  C   UNL     1      -7.102   4.432 132.557  0.00  0.00    +0.000 C 
ATOM      4  C   UNL     1      -8.282   4.925 133.368  0.00  0.00    +0.000 C 
ATOM      5  C   UNL     1      -9.607   4.644 132.661  0.00  0.00    +0.000 C 
ATOM      6  C   UNL     1      -9.649   5.170 131.193  0.00  0.00    +0.000 C 
ENDROOT
BRANCH   3   7
ATOM      7  N   UNL     1      -6.703   3.025 132.630  0.00  0.00    +0.000 NA
ATOM      8  H   UNL     1      -7.481   2.387 132.757  0.00  0.00    +0.000 HD
ATOM      9  H   UNL     1      -5.981   2.889 133.318  0.00  0.00    +0.000 HD
ENDBRANCH   3   7
BRANCH   5  10
ATOM     10  N   UNL     1      -9.709   3.169 132.663  0.00  0.00    +0.000 NA
ATOM     11  H   UNL     1     -10.647   2.938 133.024  0.00  0.00    +0.000 HD
ATOM     12  H   UNL     1      -9.114   2.753 133.372  0.00  0.00    +0.000 HD
ENDBRANCH   5  10
BRANCH   2  13
ATOM     13  O   UNL     1      -6.972   5.920 130.435  0.00  0.00    +0.000 OA
ATOM     14  H   UNL     1      -7.666   6.534 130.734  0.00  0.00    +0.000 HD
ENDBRANCH   2  13
BRANCH   6  15
ATOM     15  O   UNL     1      -9.729   6.653 130.956  0.00  0.00    +0.000 OA
BRANCH  15  16
ATOM     16  C   UNL     1     -10.612   7.314 129.984  0.00  0.00    +0.000 C 
ATOM     17  O   UNL     1     -11.094   6.484 128.892  0.00  0.00    +0.000 OA
ATOM     18  C   UNL     1     -11.645   7.000 127.618  0.00  0.00    +0.000 C 
ATOM     19  C   UNL     1     -12.969   7.487 128.053  0.00  0.00    +0.000 C 
ATOM     20  C   UNL     1     -12.710   8.433 129.277  0.00  0.00    +0.000 C 
ATOM     21  C   UNL     1     -11.966   7.788 130.527  0.00  0.00    +0.000 C 
BRANCH  21  22
ATOM     22  N   UNL     1     -12.659   6.631 131.142  0.00  0.00    +0.000 NA
ATOM     23  H   UNL     1     -13.446   7.002 131.685  0.00  0.00    +0.000 HD
ATOM     24  H   UNL     1     -12.052   6.168 131.815  0.00  0.00    +0.000 HD
ENDBRANCH  21  22
BRANCH  20  25
ATOM     25  O   UNL     1     -11.967   9.606 128.867  0.00  0.00    +0.000 OA
ATOM     26  H   UNL     1     -12.121   9.827 127.927  0.00  0.00    +0.000 HD
ENDBRANCH  20  25
BRANCH  19  27
ATOM     27  O   UNL     1     -13.692   6.299 128.413  0.00  0.00    +0.000 OA
ATOM     28  H   UNL     1     -13.954   6.416 129.355  0.00  0.00    +0.000 HD
ENDBRANCH  19  27
BRANCH  18  29
ATOM     29  C   UNL     1     -10.901   7.993 126.713  0.00  0.00    +0.000 C 
BRANCH  29  30
ATOM     30  O   UNL     1     -11.185   7.639 125.413  0.00  0.00    +0.000 OA
ATOM     31  H   UNL     1     -10.892   6.697 125.353  0.00  0.00    +0.000 HD
ENDBRANCH  29  30
ENDBRANCH  18  29
ENDBRANCH  15  16
ENDBRANCH   6  15
BRANCH   1  32
ATOM     32  O   UNL     1      -8.272   3.073 130.239  0.00  0.00    +0.000 OA
BRANCH  32  36
ATOM     33  C   UNL     1      -8.324   2.350 127.072  0.00  0.00    +0.000 C 
ATOM     34  C   UNL     1      -7.247   3.385 126.801  0.00  0.00    +0.000 C 
ATOM     35  O   UNL     1      -6.630   3.631 128.146  0.00  0.00    +0.000 OA
ATOM     36  C   UNL     1      -7.227   2.756 129.200  0.00  0.00    +0.000 C 
ATOM     37  C   UNL     1      -7.731   1.687 128.338  0.00  0.00    +0.000 C 
BRANCH  37  38
ATOM     38  O   UNL     1      -6.558   0.895 128.173  0.00  0.00    +0.000 OA
ATOM     39  H   UNL     1      -5.833   1.357 128.620  0.00  0.00    +0.000 HD
ENDBRANCH  37  38
BRANCH  34  40
ATOM     40  C   UNL     1      -7.717   4.648 126.005  0.00  0.00    +0.000 C 
BRANCH  40  41
ATOM     41  O   UNL     1      -9.061   4.579 125.546  0.00  0.00    +0.000 OA
ATOM     42  H   UNL     1      -9.158   3.735 125.083  0.00  0.00    +0.000 HD
ENDBRANCH  40  41
ENDBRANCH  34  40
BRANCH  33  43
ATOM     43  O   UNL     1      -8.835   1.514 126.046  0.00  0.00    +0.000 OA
BRANCH  43  46
ATOM     44  C   UNL     1      -8.160  -1.177 124.720  0.00  0.00    +0.000 C 
ATOM     45  O   UNL     1      -7.386   0.021 124.890  0.00  0.00    +0.000 OA
ATOM     46  C   UNL     1      -8.005   1.295 124.928  0.00  0.00    +0.000 C 
ATOM     47  C   UNL     1      -8.774   1.470 123.619  0.00  0.00    +0.000 C 
ATOM     48  C   UNL     1      -9.608   0.202 123.311  0.00  0.00    +0.000 C 
ATOM     49  C   UNL     1      -8.753  -1.075 123.344  0.00  0.00    +0.000 C 
BRANCH  47  50
ATOM     50  N   UNL     1      -9.647   2.661 123.578  0.00  0.00    +0.000 NA
ATOM     51  H   UNL     1     -10.134   2.702 124.479  0.00  0.00    +0.000 HD
ATOM     52  H   UNL     1     -10.392   2.439 122.910  0.00  0.00    +0.000 HD
ENDBRANCH  47  50
BRANCH  49  53
ATOM     53  O   UNL     1      -9.507  -2.241 123.034  0.00  0.00    +0.000 OA
ATOM     54  H   UNL     1      -9.244  -2.907 123.712  0.00  0.00    +0.000 HD
ENDBRANCH  49  53
BRANCH  48  55
ATOM     55  O   UNL     1     -10.195   0.361 122.017  0.00  0.00    +0.000 OA
ATOM     56  H   UNL     1     -10.291  -0.537 121.655  0.00  0.00    +0.000 HD
ENDBRANCH  48  55
BRANCH  44  57
ATOM     57  C   UNL     1      -9.226  -1.524 125.816  0.00  0.00    +0.000 C 
BRANCH  57  58
ATOM     58  N   UNL     1     -10.037  -2.739 125.791  0.00  0.00    +0.000 NA
ATOM     59  H   UNL     1     -10.904  -2.499 126.292  0.00  0.00    +0.000 HD
ATOM     60  H   UNL     1      -9.587  -3.416 126.413  0.00  0.00    +0.000 HD
ENDBRANCH  57  58
ENDBRANCH  44  57
ENDBRANCH  43  46
ENDBRANCH  33  43
ENDBRANCH  32  36
ENDBRANCH   1  32
TORSDOF 22
ENDMDL
MODEL 9
REMARK VINA RESULT:      -7.3      3.411      7.590
REMARK  Name = Paromomycin
REMARK  22 active torsions:
REMARK  status: ('A' for Active; 'I' for Inactive)
REMARK    1  A    between atoms: N_1  and  C_2
REMARK    2  A    between atoms: C_2  and  C_3
REMARK    3  A    between atoms: C_5  and  O_6
REMARK    4  A    between atoms: O_6  and  C_7
REMARK    5  A    between atoms: C_8  and  C_9
REMARK    6  A    between atoms: C_9  and  O_10
REMARK    7  A    between atoms: C_12  and  O_13
REMARK    8  A    between atoms: O_13  and  C_14
REMARK    9  A    between atoms: C_15  and  O_16
REMARK   10  A    between atoms: C_17  and  N_18
REMARK   11  A    between atoms: C_20  and  N_21
REMARK   12  A    between atoms: C_22  and  O_23
REMARK   13  A    between atoms: O_23  and  C_24
REMARK   14  A    between atoms: C_26  and  C_27
REMARK   15  A    between atoms: C_27  and  O_28
REMARK   16  A    between atoms: C_29  and  O_30
REMARK   17  A    between atoms: C_31  and  O_32
REMARK   18  A    between atoms: C_33  and  N_34
REMARK   19  A    between atoms: C_35  and  O_36
REMARK   20  A    between atoms: C_37  and  N_38
REMARK   21  A    between atoms: C_39  and  O_40
REMARK   22  A    between atoms: C_41  and  O_42
REMARK                            x       y       z     vdW  Elec       q    Type
REMARK                         _______ _______ _______ _____ _____    ______ ____
ROOT
ATOM      1  C   UNL     1      -5.524   3.721 131.858  0.00  0.00    +0.000 C 
ATOM      2  C   UNL     1      -4.634   3.950 133.014  0.00  0.00    +0.000 C 
ATOM      3  C   UNL     1      -4.404   5.359 133.542  0.00  0.00    +0.000 C 
ATOM      4  C   UNL     1      -3.979   6.278 132.416  0.00  0.00    +0.000 C 
ATOM      5  C   UNL     1      -4.830   6.065 131.165  0.00  0.00    +0.000 C 
ATOM      6  C   UNL     1      -4.895   4.575 130.706  0.00  0.00    +0.000 C 
ENDROOT
BRANCH   3   7
ATOM      7  N   UNL     1      -5.536   5.725 134.396  0.00  0.00    +0.000 NA
ATOM      8  H   UNL     1      -5.337   6.490 135.029  0.00  0.00    +0.000 HD
ATOM      9  H   UNL     1      -5.903   4.918 134.874  0.00  0.00    +0.000 HD
ENDBRANCH   3   7
BRANCH   5  10
ATOM     10  N   UNL     1      -6.179   6.521 131.566  0.00  0.00    +0.000 NA
ATOM     11  H   UNL     1      -6.044   7.327 132.193  0.00  0.00    +0.000 HD
ATOM     12  H   UNL     1      -6.630   5.857 132.187  0.00  0.00    +0.000 HD
ENDBRANCH   5  10
BRANCH   2  13
ATOM     13  O   UNL     1      -3.796   2.943 132.812  0.00  0.00    +0.000 OA
ATOM     14  H   UNL     1      -3.239   3.279 132.088  0.00  0.00    +0.000 HD
ENDBRANCH   2  13
BRANCH   6  15
ATOM     15  O   UNL     1      -3.672   3.951 130.095  0.00  0.00    +0.000 OA
BRANCH  15  16
ATOM     16  C   UNL     1      -3.550   3.502 128.701  0.00  0.00    +0.000 C 
ATOM     17  O   UNL     1      -4.791   3.415 127.948  0.00  0.00    +0.000 OA
ATOM     18  C   UNL     1      -4.971   2.635 126.702  0.00  0.00    +0.000 C 
ATOM     19  C   UNL     1      -4.246   3.475 125.729  0.00  0.00    +0.000 C 
ATOM     20  C   UNL     1      -2.823   3.727 126.340  0.00  0.00    +0.000 C 
ATOM     21  C   UNL     1      -2.778   4.438 127.763  0.00  0.00    +0.000 C 
BRANCH  21  22
ATOM     22  N   UNL     1      -3.405   5.780 127.815  0.00  0.00    +0.000 NA
ATOM     23  H   UNL     1      -2.782   6.386 128.360  0.00  0.00    +0.000 HD
ATOM     24  H   UNL     1      -4.280   5.745 128.333  0.00  0.00    +0.000 HD
ENDBRANCH  21  22
BRANCH  20  25
ATOM     25  O   UNL     1      -2.080   2.489 126.432  0.00  0.00    +0.000 OA
ATOM     26  H   UNL     1      -1.580   2.423 127.270  0.00  0.00    +0.000 HD
ENDBRANCH  20  25
BRANCH  19  27
ATOM     27  O   UNL     1      -5.028   4.675 125.632  0.00  0.00    +0.000 OA
ATOM     28  H   UNL     1      -5.217   4.952 126.558  0.00  0.00    +0.000 HD
ENDBRANCH  19  27
BRANCH  18  29
ATOM     29  C   UNL     1      -4.637   1.140 126.582  0.00  0.00    +0.000 C 
BRANCH  29  30
ATOM     30  O   UNL     1      -4.961   0.560 127.788  0.00  0.00    +0.000 OA
ATOM     31  H   UNL     1      -4.239   0.852 128.395  0.00  0.00    +0.000 HD
ENDBRANCH  29  30
ENDBRANCH  18  29
ENDBRANCH  15  16
ENDBRANCH   6  15
BRANCH   1  32
ATOM     32  O   UNL     1      -6.757   3.935 132.530  0.00  0.00    +0.000 OA
BRANCH  32  36
ATOM     33  C   UNL     1      -8.926   4.666 130.224  0.00  0.00    +0.000 C 
ATOM     34  C   UNL     1      -8.644   3.350 129.519  0.00  0.00    +0.000 C 
ATOM     35  O   UNL     1      -7.985   2.507 130.570  0.00  0.00    +0.000 OA
ATOM     36  C   UNL     1      -7.913   3.213 131.885  0.00  0.00    +0.000 C 
ATOM     37  C   UNL     1      -9.007   4.162 131.685  0.00  0.00    +0.000 C 
BRANCH  37  38
ATOM     38  O   UNL     1     -10.131   3.361 132.039  0.00  0.00    +0.000 OA
ATOM     39  H   UNL     1     -10.926   3.873 131.831  0.00  0.00    +0.000 HD
ENDBRANCH  37  38
BRANCH  34  40
ATOM     40  C   UNL     1      -7.899   3.471 128.149  0.00  0.00    +0.000 C 
BRANCH  40  41
ATOM     41  O   UNL     1      -7.419   4.778 127.861  0.00  0.00    +0.000 OA
ATOM     42  H   UNL     1      -8.157   5.269 127.470  0.00  0.00    +0.000 HD
ENDBRANCH  40  41
ENDBRANCH  34  40
BRANCH  33  43
ATOM     43  O   UNL     1      -9.920   5.565 129.761  0.00  0.00    +0.000 OA
BRANCH  43  46
ATOM     44  C   UNL     1     -10.535   8.235 128.364  0.00  0.00    +0.000 C 
ATOM     45  O   UNL     1      -9.646   7.909 129.444  0.00  0.00    +0.000 OA
ATOM     46  C   UNL     1      -9.938   6.851 130.341  0.00  0.00    +0.000 C 
ATOM     47  C   UNL     1     -11.290   7.155 130.983  0.00  0.00    +0.000 C 
ATOM     48  C   UNL     1     -12.318   7.573 129.902  0.00  0.00    +0.000 C 
ATOM     49  C   UNL     1     -11.796   8.719 129.020  0.00  0.00    +0.000 C 
BRANCH  47  50
ATOM     50  N   UNL     1     -11.844   6.051 131.793  0.00  0.00    +0.000 NA
ATOM     51  H   UNL     1     -11.889   5.229 131.183  0.00  0.00    +0.000 HD
ATOM     52  H   UNL     1     -12.827   6.287 131.955  0.00  0.00    +0.000 HD
ENDBRANCH  47  50
BRANCH  49  53
ATOM     53  O   UNL     1     -12.746   9.126 128.043  0.00  0.00    +0.000 OA
ATOM     54  H   UNL     1     -13.594   9.234 128.536  0.00  0.00    +0.000 HD
ENDBRANCH  49  53
BRANCH  48  55
ATOM     55  O   UNL     1     -13.519   7.977 130.565  0.00  0.00    +0.000 OA
ATOM     56  H   UNL     1     -13.341   8.866 130.919  0.00  0.00    +0.000 HD
ENDBRANCH  48  55
BRANCH  44  57
ATOM     57  C   UNL     1     -10.799   7.140 127.274  0.00  0.00    +0.000 C 
BRANCH  57  58
ATOM     58  N   UNL     1      -9.737   6.354 126.652  0.00  0.00    +0.000 NA
ATOM     59  H   UNL     1      -9.761   6.603 125.653  0.00  0.00    +0.000 HD
ATOM     60  H   UNL     1     -10.041   5.377 126.656  0.00  0.00    +0.000 HD
ENDBRANCH  57  58
ENDBRANCH  44  57
ENDBRANCH  43  46
ENDBRANCH  33  43
ENDBRANCH  32  36
ENDBRANCH   1  32
TORSDOF 22
ENDMDL
