MODEL 1
REMARK VINA RESULT:      -6.6      0.000      0.000
REMARK  Name = Parthenolide
REMARK  2 active torsions:
REMARK  status: ('A' for Active; 'I' for Inactive)
REMARK    1  A    between atoms: C_1  and  C_2
REMARK    2  A    between atoms: C_6  and  C_7
REMARK                            x       y       z     vdW  Elec       q    Type
REMARK                         _______ _______ _______ _____ _____    ______ ____
ROOT
ATOM      1  C   UNL     1      -7.144  -1.828 122.522  0.00  0.00    +0.000 C 
ATOM      2  C   UNL     1      -8.485  -2.103 123.165  0.00  0.00    +0.000 C 
ATOM      3  C   UNL     1      -9.524  -1.272 123.177  0.00  0.00    +0.000 C 
ATOM      4  C   UNL     1      -9.470   0.109 122.679  0.00  0.00    +0.000 C 
ATOM      5  C   UNL     1     -10.048   0.964 123.787  0.00  0.00    +0.000 C 
ATOM      6  C   UNL     1      -8.911   1.601 124.547  0.00  0.00    +0.000 C 
ATOM      7  C   UNL     1      -8.479   2.866 123.776  0.00  0.00    +0.000 C 
ATOM      8  O   UNL     1      -9.204   1.784 125.914  0.00  0.00    +0.000 OA
ATOM      9  C   UNL     1      -8.053   0.890 125.845  0.00  0.00    +0.000 C 
ATOM     10  C   UNL     1      -8.288  -0.412 126.739  0.00  0.00    +0.000 C 
ATOM     11  O   UNL     1      -7.387  -0.273 127.941  0.00  0.00    +0.000 OA
ATOM     12  C   UNL     1      -7.329  -1.524 128.446  0.00  0.00    +0.000 C 
ATOM     13  O   UNL     1      -8.085  -1.998 129.321  0.00  0.00    +0.000 OA
ATOM     14  C   UNL     1      -6.888  -2.217 127.249  0.00  0.00    +0.000 C 
ATOM     15  C   UNL     1      -5.597  -2.259 126.863  0.00  0.00    +0.000 C 
ATOM     16  C   UNL     1      -8.091  -2.070 126.347  0.00  0.00    +0.000 C 
ATOM     17  C   UNL     1      -7.762  -3.107 125.186  0.00  0.00    +0.000 C 
ATOM     18  C   UNL     1      -8.651  -3.329 123.985  0.00  0.00    +0.000 C 
ENDROOT
TORSDOF 0
ENDMDL
MODEL 2
REMARK VINA RESULT:      -6.6      1.988      4.860
REMARK  Name = Parthenolide
REMARK  2 active torsions:
REMARK  status: ('A' for Active; 'I' for Inactive)
REMARK    1  A    between atoms: C_1  and  C_2
REMARK    2  A    between atoms: C_6  and  C_7
REMARK                            x       y       z     vdW  Elec       q    Type
REMARK                         _______ _______ _______ _____ _____    ______ ____
ROOT
ATOM      1  C   UNL     1      -9.156  -2.830 125.301  0.00  0.00    +0.000 C 
ATOM      2  C   UNL     1      -8.152  -2.616 124.191  0.00  0.00    +0.000 C 
ATOM      3  C   UNL     1      -6.832  -2.550 124.340  0.00  0.00    +0.000 C 
ATOM      4  C   UNL     1      -6.159  -2.537 125.647  0.00  0.00    +0.000 C 
ATOM      5  C   UNL     1      -5.211  -1.358 125.605  0.00  0.00    +0.000 C 
ATOM      6  C   UNL     1      -5.841  -0.206 126.349  0.00  0.00    +0.000 C 
ATOM      7  C   UNL     1      -5.552  -0.403 127.852  0.00  0.00    +0.000 C 
ATOM      8  O   UNL     1      -5.484   1.049 125.813  0.00  0.00    +0.000 OA
ATOM      9  C   UNL     1      -6.933   0.933 125.689  0.00  0.00    +0.000 C 
ATOM     10  C   UNL     1      -7.408   1.272 124.202  0.00  0.00    +0.000 C 
ATOM     11  O   UNL     1      -8.093   2.614 124.269  0.00  0.00    +0.000 OA
ATOM     12  C   UNL     1      -8.793   2.675 123.116  0.00  0.00    +0.000 C 
ATOM     13  O   UNL     1      -8.390   3.161 122.037  0.00  0.00    +0.000 OA
ATOM     14  C   UNL     1      -9.541   1.438 123.254  0.00  0.00    +0.000 C 
ATOM     15  C   UNL     1     -10.666   1.344 123.991  0.00  0.00    +0.000 C 
ATOM     16  C   UNL     1      -8.446   0.402 123.150  0.00  0.00    +0.000 C 
ATOM     17  C   UNL     1      -9.278  -0.939 122.951  0.00  0.00    +0.000 C 
ATOM     18  C   UNL     1      -8.646  -2.306 122.826  0.00  0.00    +0.000 C 
ENDROOT
TORSDOF 0
ENDMDL
MODEL 3
REMARK VINA RESULT:      -6.6      2.373      5.258
REMARK  Name = Parthenolide
REMARK  2 active torsions:
REMARK  status: ('A' for Active; 'I' for Inactive)
REMARK    1  A    between atoms: C_1  and  C_2
REMARK    2  A    between atoms: C_6  and  C_7
REMARK                            x       y       z     vdW  Elec       q    Type
REMARK                         _______ _______ _______ _____ _____    ______ ____
ROOT
ATOM      1  C   UNL     1      -5.386   0.670 126.894  0.00  0.00    +0.000 C 
ATOM      2  C   UNL     1      -6.569  -0.184 127.290  0.00  0.00    +0.000 C 
ATOM      3  C   UNL     1      -6.703  -1.484 127.045  0.00  0.00    +0.000 C 
ATOM      4  C   UNL     1      -5.767  -2.259 126.219  0.00  0.00    +0.000 C 
ATOM      5  C   UNL     1      -6.625  -3.000 125.216  0.00  0.00    +0.000 C 
ATOM      6  C   UNL     1      -6.573  -2.263 123.901  0.00  0.00    +0.000 C 
ATOM      7  C   UNL     1      -5.296  -2.711 123.160  0.00  0.00    +0.000 C 
ATOM      8  O   UNL     1      -7.776  -2.365 123.171  0.00  0.00    +0.000 OA
ATOM      9  C   UNL     1      -7.571  -0.948 123.450  0.00  0.00    +0.000 C 
ATOM     10  C   UNL     1      -8.885  -0.296 124.081  0.00  0.00    +0.000 C 
ATOM     11  O   UNL     1      -9.479   0.587 123.011  0.00  0.00    +0.000 OA
ATOM     12  C   UNL     1     -10.329   1.386 123.690  0.00  0.00    +0.000 C 
ATOM     13  O   UNL     1     -11.542   1.163 123.895  0.00  0.00    +0.000 OA
ATOM     14  C   UNL     1      -9.394   1.912 124.668  0.00  0.00    +0.000 C 
ATOM     15  C   UNL     1      -8.560   2.938 124.403  0.00  0.00    +0.000 C 
ATOM     16  C   UNL     1      -9.071   0.679 125.480  0.00  0.00    +0.000 C 
ATOM     17  C   UNL     1      -8.334   1.301 126.745  0.00  0.00    +0.000 C 
ATOM     18  C   UNL     1      -7.765   0.472 127.874  0.00  0.00    +0.000 C 
ENDROOT
TORSDOF 0
ENDMDL
MODEL 4
REMARK VINA RESULT:      -6.6      6.417      9.165
REMARK  Name = Parthenolide
REMARK  2 active torsions:
REMARK  status: ('A' for Active; 'I' for Inactive)
REMARK    1  A    between atoms: C_1  and  C_2
REMARK    2  A    between atoms: C_6  and  C_7
REMARK                            x       y       z     vdW  Elec       q    Type
REMARK                         _______ _______ _______ _____ _____    ______ ____
ROOT
ATOM      1  C   UNL     1      -6.337   3.279 133.451  0.00  0.00    +0.000 C 
ATOM      2  C   UNL     1      -7.838   3.316 133.625  0.00  0.00    +0.000 C 
ATOM      3  C   UNL     1      -8.692   2.388 133.199  0.00  0.00    +0.000 C 
ATOM      4  C   UNL     1      -8.302   1.244 132.364  0.00  0.00    +0.000 C 
ATOM      5  C   UNL     1      -9.269   1.240 131.200  0.00  0.00    +0.000 C 
ATOM      6  C   UNL     1      -8.585   1.854 130.003  0.00  0.00    +0.000 C 
ATOM      7  C   UNL     1      -7.744   0.752 129.326  0.00  0.00    +0.000 C 
ATOM      8  O   UNL     1      -9.479   2.550 129.163  0.00  0.00    +0.000 OA
ATOM      9  C   UNL     1      -8.506   3.525 129.645  0.00  0.00    +0.000 C 
ATOM     10  C   UNL     1      -9.236   4.815 130.237  0.00  0.00    +0.000 C 
ATOM     11  O   UNL     1      -9.007   5.928 129.245  0.00  0.00    +0.000 OA
ATOM     12  C   UNL     1      -9.293   7.047 129.946  0.00  0.00    +0.000 C 
ATOM     13  O   UNL     1     -10.407   7.607 130.012  0.00  0.00    +0.000 OA
ATOM     14  C   UNL     1      -8.390   6.835 131.064  0.00  0.00    +0.000 C 
ATOM     15  C   UNL     1      -7.078   7.142 131.011  0.00  0.00    +0.000 C 
ATOM     16  C   UNL     1      -9.004   5.626 131.731  0.00  0.00    +0.000 C 
ATOM     17  C   UNL     1      -8.243   5.598 133.127  0.00  0.00    +0.000 C 
ATOM     18  C   UNL     1      -8.468   4.539 134.182  0.00  0.00    +0.000 C 
ENDROOT
TORSDOF 0
ENDMDL
MODEL 5
REMARK VINA RESULT:      -6.5      2.182      4.780
REMARK  Name = Parthenolide
REMARK  2 active torsions:
REMARK  status: ('A' for Active; 'I' for Inactive)
REMARK    1  A    between atoms: C_1  and  C_2
REMARK    2  A    between atoms: C_6  and  C_7
REMARK                            x       y       z     vdW  Elec       q    Type
REMARK                         _______ _______ _______ _____ _____    ______ ____
ROOT
ATOM      1  C   UNL     1      -5.550  -1.691 127.107  0.00  0.00    +0.000 C 
ATOM      2  C   UNL     1      -6.877  -1.295 127.712  0.00  0.00    +0.000 C 
ATOM      3  C   UNL     1      -8.045  -1.888 127.478  0.00  0.00    +0.000 C 
ATOM      4  C   UNL     1      -8.236  -2.944 126.475  0.00  0.00    +0.000 C 
ATOM      5  C   UNL     1      -9.426  -2.508 125.647  0.00  0.00    +0.000 C 
ATOM      6  C   UNL     1      -8.922  -1.908 124.358  0.00  0.00    +0.000 C 
ATOM      7  C   UNL     1      -8.645  -3.065 123.376  0.00  0.00    +0.000 C 
ATOM      8  O   UNL     1      -9.755  -0.878 123.875  0.00  0.00    +0.000 OA
ATOM      9  C   UNL     1      -8.449  -0.279 124.130  0.00  0.00    +0.000 C 
ATOM     10  C   UNL     1      -8.590   1.043 125.015  0.00  0.00    +0.000 C 
ATOM     11  O   UNL     1      -8.307   2.204 124.095  0.00  0.00    +0.000 OA
ATOM     12  C   UNL     1      -8.061   3.229 124.938  0.00  0.00    +0.000 C 
ATOM     13  O   UNL     1      -8.906   4.042 125.372  0.00  0.00    +0.000 OA
ATOM     14  C   UNL     1      -7.006   2.613 125.723  0.00  0.00    +0.000 C 
ATOM     15  C   UNL     1      -5.721   2.574 125.316  0.00  0.00    +0.000 C 
ATOM     16  C   UNL     1      -7.756   1.513 126.437  0.00  0.00    +0.000 C 
ATOM     17  C   UNL     1      -6.706   1.063 127.544  0.00  0.00    +0.000 C 
ATOM     18  C   UNL     1      -6.954  -0.057 128.528  0.00  0.00    +0.000 C 
ENDROOT
TORSDOF 0
ENDMDL
MODEL 6
REMARK VINA RESULT:      -6.4      2.545      4.945
REMARK  Name = Parthenolide
REMARK  2 active torsions:
REMARK  status: ('A' for Active; 'I' for Inactive)
REMARK    1  A    between atoms: C_1  and  C_2
REMARK    2  A    between atoms: C_6  and  C_7
REMARK                            x       y       z     vdW  Elec       q    Type
REMARK                         _______ _______ _______ _____ _____    ______ ____
ROOT
ATOM      1  C   UNL     1      -6.124  -3.191 129.228  0.00  0.00    +0.000 C 
ATOM      2  C   UNL     1      -7.541  -2.751 129.514  0.00  0.00    +0.000 C 
ATOM      3  C   UNL     1      -8.631  -3.189 128.889  0.00  0.00    +0.000 C 
ATOM      4  C   UNL     1      -8.598  -4.077 127.719  0.00  0.00    +0.000 C 
ATOM      5  C   UNL     1      -9.485  -3.419 126.683  0.00  0.00    +0.000 C 
ATOM      6  C   UNL     1      -8.610  -2.704 125.684  0.00  0.00    +0.000 C 
ATOM      7  C   UNL     1      -8.139  -3.741 124.643  0.00  0.00    +0.000 C 
ATOM      8  O   UNL     1      -9.215  -1.541 125.164  0.00  0.00    +0.000 OA
ATOM      9  C   UNL     1      -7.999  -1.114 125.847  0.00  0.00    +0.000 C 
ATOM     10  C   UNL     1      -8.302   0.085 126.857  0.00  0.00    +0.000 C 
ATOM     11  O   UNL     1      -7.708   1.325 126.238  0.00  0.00    +0.000 OA
ATOM     12  C   UNL     1      -7.646   2.199 127.265  0.00  0.00    +0.000 C 
ATOM     13  O   UNL     1      -8.529   3.025 127.580  0.00  0.00    +0.000 OA
ATOM     14  C   UNL     1      -6.887   1.382 128.196  0.00  0.00    +0.000 C 
ATOM     15  C   UNL     1      -5.544   1.272 128.143  0.00  0.00    +0.000 C 
ATOM     16  C   UNL     1      -7.868   0.276 128.505  0.00  0.00    +0.000 C 
ATOM     17  C   UNL     1      -7.194  -0.420 129.767  0.00  0.00    +0.000 C 
ATOM     18  C   UNL     1      -7.769  -1.632 130.462  0.00  0.00    +0.000 C 
ENDROOT
TORSDOF 0
ENDMDL
MODEL 7
REMARK VINA RESULT:      -6.2      6.863      9.053
REMARK  Name = Parthenolide
REMARK  2 active torsions:
REMARK  status: ('A' for Active; 'I' for Inactive)
REMARK    1  A    between atoms: C_1  and  C_2
REMARK    2  A    between atoms: C_6  and  C_7
REMARK                            x       y       z     vdW  Elec       q    Type
REMARK                         _______ _______ _______ _____ _____    ______ ____
ROOT
ATOM      1  C   UNL     1      -2.288   5.447 131.106  0.00  0.00    +0.000 C 
ATOM      2  C   UNL     1      -2.866   6.527 130.219  0.00  0.00    +0.000 C 
ATOM      3  C   UNL     1      -4.010   7.173 130.429  0.00  0.00    +0.000 C 
ATOM      4  C   UNL     1      -4.957   6.827 131.497  0.00  0.00    +0.000 C 
ATOM      5  C   UNL     1      -6.307   6.708 130.821  0.00  0.00    +0.000 C 
ATOM      6  C   UNL     1      -6.610   5.246 130.606  0.00  0.00    +0.000 C 
ATOM      7  C   UNL     1      -7.202   4.690 131.918  0.00  0.00    +0.000 C 
ATOM      8  O   UNL     1      -7.370   5.014 129.441  0.00  0.00    +0.000 OA
ATOM      9  C   UNL     1      -6.105   4.306 129.268  0.00  0.00    +0.000 C 
ATOM     10  C   UNL     1      -5.440   4.660 127.860  0.00  0.00    +0.000 C 
ATOM     11  O   UNL     1      -5.589   3.432 126.997  0.00  0.00    +0.000 OA
ATOM     12  C   UNL     1      -4.703   3.633 125.998  0.00  0.00    +0.000 C 
ATOM     13  O   UNL     1      -4.944   4.184 124.903  0.00  0.00    +0.000 OA
ATOM     14  C   UNL     1      -3.515   3.849 126.805  0.00  0.00    +0.000 C 
ATOM     15  C   UNL     1      -2.786   2.837 127.317  0.00  0.00    +0.000 C 
ATOM     16  C   UNL     1      -3.841   5.156 127.489  0.00  0.00    +0.000 C 
ATOM     17  C   UNL     1      -2.430   5.573 128.093  0.00  0.00    +0.000 C 
ATOM     18  C   UNL     1      -2.208   6.818 128.921  0.00  0.00    +0.000 C 
ENDROOT
TORSDOF 0
ENDMDL
MODEL 8
REMARK VINA RESULT:      -5.8      4.605      7.082
REMARK  Name = Parthenolide
REMARK  2 active torsions:
REMARK  status: ('A' for Active; 'I' for Inactive)
REMARK    1  A    between atoms: C_1  and  C_2
REMARK    2  A    between atoms: C_6  and  C_7
REMARK                            x       y       z     vdW  Elec       q    Type
REMARK                         _______ _______ _______ _____ _____    ______ ____
ROOT
ATOM      1  C   UNL     1      -4.215  -3.573 129.885  0.00  0.00    +0.000 C 
ATOM      2  C   UNL     1      -5.488  -4.262 130.320  0.00  0.00    +0.000 C 
ATOM      3  C   UNL     1      -6.701  -4.039 129.820  0.00  0.00    +0.000 C 
ATOM      4  C   UNL     1      -7.001  -2.975 128.853  0.00  0.00    +0.000 C 
ATOM      5  C   UNL     1      -8.191  -2.232 129.421  0.00  0.00    +0.000 C 
ATOM      6  C   UNL     1      -7.700  -0.966 130.079  0.00  0.00    +0.000 C 
ATOM      7  C   UNL     1      -7.539   0.104 128.979  0.00  0.00    +0.000 C 
ATOM      8  O   UNL     1      -8.481  -0.592 131.192  0.00  0.00    +0.000 OA
ATOM      9  C   UNL     1      -7.129  -0.831 131.686  0.00  0.00    +0.000 C 
ATOM     10  C   UNL     1      -7.148  -1.809 132.948  0.00  0.00    +0.000 C 
ATOM     11  O   UNL     1      -6.824  -0.959 134.152  0.00  0.00    +0.000 OA
ATOM     12  C   UNL     1      -6.478  -1.860 135.097  0.00  0.00    +0.000 C 
ATOM     13  O   UNL     1      -7.249  -2.385 135.928  0.00  0.00    +0.000 OA
ATOM     14  C   UNL     1      -5.436  -2.553 134.360  0.00  0.00    +0.000 C 
ATOM     15  C   UNL     1      -4.173  -2.088 134.269  0.00  0.00    +0.000 C 
ATOM     16  C   UNL     1      -6.229  -3.223 133.262  0.00  0.00    +0.000 C 
ATOM     17  C   UNL     1      -5.168  -4.249 132.668  0.00  0.00    +0.000 C 
ATOM     18  C   UNL     1      -5.451  -5.163 131.499  0.00  0.00    +0.000 C 
ENDROOT
TORSDOF 0
ENDMDL
MODEL 9
REMARK VINA RESULT:      -5.8      8.490      9.970
REMARK  Name = Parthenolide
REMARK  2 active torsions:
REMARK  status: ('A' for Active; 'I' for Inactive)
REMARK    1  A    between atoms: C_1  and  C_2
REMARK    2  A    between atoms: C_6  and  C_7
REMARK                            x       y       z     vdW  Elec       q    Type
REMARK                         _______ _______ _______ _____ _____    ______ ____
ROOT
ATOM      1  C   UNL     1      -7.610   4.404 134.849  0.00  0.00    +0.000 C 
ATOM      2  C   UNL     1      -7.481   3.505 133.641  0.00  0.00    +0.000 C 
ATOM      3  C   UNL     1      -6.383   3.348 132.905  0.00  0.00    +0.000 C 
ATOM      4  C   UNL     1      -5.161   4.144 133.083  0.00  0.00    +0.000 C 
ATOM      5  C   UNL     1      -4.805   4.657 131.705  0.00  0.00    +0.000 C 
ATOM      6  C   UNL     1      -5.261   6.091 131.592  0.00  0.00    +0.000 C 
ATOM      7  C   UNL     1      -4.170   6.983 132.222  0.00  0.00    +0.000 C 
ATOM      8  O   UNL     1      -5.657   6.435 130.283  0.00  0.00    +0.000 OA
ATOM      9  C   UNL     1      -6.827   6.610 131.138  0.00  0.00    +0.000 C 
ATOM     10  C   UNL     1      -8.099   5.866 130.523  0.00  0.00    +0.000 C 
ATOM     11  O   UNL     1      -9.020   6.947 130.013  0.00  0.00    +0.000 OA
ATOM     12  C   UNL     1     -10.204   6.316 129.867  0.00  0.00    +0.000 C 
ATOM     13  O   UNL     1     -10.615   5.758 128.827  0.00  0.00    +0.000 OA
ATOM     14  C   UNL     1     -10.334   5.788 131.213  0.00  0.00    +0.000 C 
ATOM     15  C   UNL     1     -10.796   6.523 132.245  0.00  0.00    +0.000 C 
ATOM     16  C   UNL     1      -9.206   4.783 131.259  0.00  0.00    +0.000 C 
ATOM     17  C   UNL     1      -9.549   3.963 132.578  0.00  0.00    +0.000 C 
ATOM     18  C   UNL     1      -8.694   2.836 133.110  0.00  0.00    +0.000 C 
ENDROOT
TORSDOF 0
ENDMDL
