MODEL 1
REMARK VINA RESULT:      -7.8      0.000      0.000
REMARK  Name = Patent Blue
REMARK  16 active torsions:
REMARK  status: ('A' for Active; 'I' for Inactive)
REMARK    1  A    between atoms: C_1  and  C_2
REMARK    2  A    between atoms: C_2  and  N_3
REMARK    3  A    between atoms: N_3  and  C_4
REMARK    4  A    between atoms: N_3  and  C_6
REMARK    5  A    between atoms: C_4  and  C_5
REMARK    6  A    between atoms: C_9  and  C_12
REMARK    7  A    between atoms: C_12  and  C_24
REMARK    8  A    between atoms: N_19  and  C_20
REMARK    9  A    between atoms: N_19  and  C_22
REMARK   10  A    between atoms: C_20  and  C_21
REMARK   11  A    between atoms: C_22  and  C_23
REMARK   12  A    between atoms: C_25  and  S_35
REMARK   13  A    between atoms: C_27  and  S_31
REMARK   14  A    between atoms: C_28  and  O_29
REMARK   15  A    between atoms: S_31  and  O_32
REMARK   16  A    between atoms: S_35  and  O_36
REMARK                            x       y       z     vdW  Elec       q    Type
REMARK                         _______ _______ _______ _____ _____    ______ ____
ROOT
ATOM      1  C   UNL     1      -7.843   3.765 131.018  0.00  0.00    +0.000 C 
ATOM      2  C   UNL     1      -6.842   4.511 131.581  0.00  0.00    +0.000 C 
ATOM      3  C   UNL     1      -5.694   3.883 132.134  0.00  0.00    +0.000 C 
ATOM      4  C   UNL     1      -4.503   4.440 132.136  0.00  0.00    +0.000 C 
ATOM      5  C   UNL     1      -4.283   5.849 131.772  0.00  0.00    +0.000 C 
ATOM      6  C   UNL     1      -5.593   6.626 131.762  0.00  0.00    +0.000 C 
ATOM      7  C   UNL     1      -6.778   5.978 131.709  0.00  0.00    +0.000 C 
ATOM      8  N   UNL     1      -3.098   6.370 131.602  0.00  0.00    +0.000 N 
ENDROOT
BRANCH   1  12
ATOM      9  C   UNL     1      -7.851  -0.619 130.326  0.00  0.00    +0.000 A 
ATOM     10  C   UNL     1      -7.012   0.210 129.626  0.00  0.00    +0.000 A 
ATOM     11  C   UNL     1      -6.949   1.562 129.917  0.00  0.00    +0.000 A 
ATOM     12  C   UNL     1      -7.800   2.240 130.803  0.00  0.00    +0.000 A 
ATOM     13  C   UNL     1      -8.705   1.399 131.458  0.00  0.00    +0.000 A 
ATOM     14  C   UNL     1      -8.719   0.005 131.231  0.00  0.00    +0.000 A 
BRANCH   9  15
ATOM     15  N   UNL     1      -7.763  -2.000 130.137  0.00  0.00    +0.000 N 
BRANCH  15  17
ATOM     16  C   UNL     1      -6.280  -3.660 131.353  0.00  0.00    +0.000 C 
ATOM     17  C   UNL     1      -7.485  -2.760 131.354  0.00  0.00    +0.000 C 
ENDBRANCH  15  17
BRANCH  15  18
ATOM     18  C   UNL     1      -7.927  -2.458 128.738  0.00  0.00    +0.000 C 
ATOM     19  C   UNL     1      -8.752  -3.695 128.485  0.00  0.00    +0.000 C 
ENDBRANCH  15  18
ENDBRANCH   9  15
ENDBRANCH   1  12
BRANCH   1  20
ATOM     20  C   UNL     1      -8.998   4.574 130.526  0.00  0.00    +0.000 A 
ATOM     21  C   UNL     1      -9.138   5.061 129.215  0.00  0.00    +0.000 A 
ATOM     22  C   UNL     1     -10.127   6.025 128.934  0.00  0.00    +0.000 A 
ATOM     23  C   UNL     1     -11.086   6.353 129.916  0.00  0.00    +0.000 A 
ATOM     24  C   UNL     1     -10.998   5.815 131.195  0.00  0.00    +0.000 A 
ATOM     25  C   UNL     1      -9.945   4.957 131.496  0.00  0.00    +0.000 A 
BRANCH  23  26
ATOM     26  S   UNL     1     -12.500   7.326 129.459  0.00  0.00    +0.000 S 
ATOM     27  O   UNL     1     -13.392   6.422 128.747  0.00  0.00    +0.000 OA
ATOM     28  O   UNL     1     -12.911   8.070 130.618  0.00  0.00    +0.000 OA
BRANCH  26  29
ATOM     29  O   UNL     1     -11.914   8.362 128.372  0.00  0.00    +0.000 OA
ATOM     30  H   UNL     1     -11.922   9.272 128.726  0.00  0.00    +0.000 HD
ENDBRANCH  26  29
ENDBRANCH  23  26
BRANCH  21  31
ATOM     31  S   UNL     1      -8.074   4.507 127.868  0.00  0.00    +0.000 S 
ATOM     32  O   UNL     1      -6.725   4.900 128.238  0.00  0.00    +0.000 OA
ATOM     33  O   UNL     1      -8.356   3.143 127.494  0.00  0.00    +0.000 OA
BRANCH  31  34
ATOM     34  O   UNL     1      -8.516   5.425 126.620  0.00  0.00    +0.000 OA
ATOM     35  H   UNL     1      -8.366   6.373 126.792  0.00  0.00    +0.000 HD
ENDBRANCH  31  34
ENDBRANCH  21  31
BRANCH  24  36
ATOM     36  O   UNL     1     -11.851   6.062 132.229  0.00  0.00    +0.000 OA
ATOM     37  H   UNL     1     -12.148   7.001 132.248  0.00  0.00    +0.000 HD
ENDBRANCH  24  36
ENDBRANCH   1  20
BRANCH   8  38
ATOM     38  C   UNL     1      -1.751   5.618 131.596  0.00  0.00    +0.000 C 
ATOM     39  C   UNL     1      -1.077   5.368 132.918  0.00  0.00    +0.000 C 
ENDBRANCH   8  38
BRANCH   8  40
ATOM     40  C   UNL     1      -2.987   7.875 131.381  0.00  0.00    +0.000 C 
ATOM     41  C   UNL     1      -2.507   8.640 132.601  0.00  0.00    +0.000 C 
ENDBRANCH   8  40
TORSDOF 12
ENDMDL
MODEL 2
REMARK VINA RESULT:      -7.6      3.470      6.223
REMARK  Name = Patent Blue
REMARK  16 active torsions:
REMARK  status: ('A' for Active; 'I' for Inactive)
REMARK    1  A    between atoms: C_1  and  C_2
REMARK    2  A    between atoms: C_2  and  N_3
REMARK    3  A    between atoms: N_3  and  C_4
REMARK    4  A    between atoms: N_3  and  C_6
REMARK    5  A    between atoms: C_4  and  C_5
REMARK    6  A    between atoms: C_9  and  C_12
REMARK    7  A    between atoms: C_12  and  C_24
REMARK    8  A    between atoms: N_19  and  C_20
REMARK    9  A    between atoms: N_19  and  C_22
REMARK   10  A    between atoms: C_20  and  C_21
REMARK   11  A    between atoms: C_22  and  C_23
REMARK   12  A    between atoms: C_25  and  S_35
REMARK   13  A    between atoms: C_27  and  S_31
REMARK   14  A    between atoms: C_28  and  O_29
REMARK   15  A    between atoms: S_31  and  O_32
REMARK   16  A    between atoms: S_35  and  O_36
REMARK                            x       y       z     vdW  Elec       q    Type
REMARK                         _______ _______ _______ _____ _____    ______ ____
ROOT
ATOM      1  C   UNL     1      -8.007   0.713 129.201  0.00  0.00    +0.000 C 
ATOM      2  C   UNL     1      -7.984  -0.085 130.315  0.00  0.00    +0.000 C 
ATOM      3  C   UNL     1      -8.008  -1.500 130.192  0.00  0.00    +0.000 C 
ATOM      4  C   UNL     1      -7.418  -2.303 131.049  0.00  0.00    +0.000 C 
ATOM      5  C   UNL     1      -6.868  -1.834 132.331  0.00  0.00    +0.000 C 
ATOM      6  C   UNL     1      -7.384  -0.444 132.676  0.00  0.00    +0.000 C 
ATOM      7  C   UNL     1      -7.935   0.342 131.725  0.00  0.00    +0.000 C 
ATOM      8  N   UNL     1      -6.131  -2.578 133.112  0.00  0.00    +0.000 N 
ENDROOT
BRANCH   1  12
ATOM      9  C   UNL     1      -7.844  -0.877 125.061  0.00  0.00    +0.000 A 
ATOM     10  C   UNL     1      -8.849  -0.035 125.460  0.00  0.00    +0.000 A 
ATOM     11  C   UNL     1      -8.839   0.531 126.723  0.00  0.00    +0.000 A 
ATOM     12  C   UNL     1      -7.935   0.208 127.747  0.00  0.00    +0.000 A 
ATOM     13  C   UNL     1      -6.956  -0.710 127.356  0.00  0.00    +0.000 A 
ATOM     14  C   UNL     1      -6.908  -1.228 126.043  0.00  0.00    +0.000 A 
BRANCH   9  15
ATOM     15  N   UNL     1      -7.784  -1.288 123.727  0.00  0.00    +0.000 N 
BRANCH  15  17
ATOM     16  C   UNL     1      -9.452  -3.183 123.488  0.00  0.00    +0.000 C 
ATOM     17  C   UNL     1      -9.055  -1.765 123.185  0.00  0.00    +0.000 C 
ENDBRANCH  15  17
BRANCH  15  18
ATOM     18  C   UNL     1      -6.445  -1.206 123.100  0.00  0.00    +0.000 C 
ATOM     19  C   UNL     1      -5.675  -2.486 122.895  0.00  0.00    +0.000 C 
ENDBRANCH  15  18
ENDBRANCH   9  15
ENDBRANCH   1  12
BRANCH   1  20
ATOM     20  C   UNL     1      -8.023   2.175 129.503  0.00  0.00    +0.000 A 
ATOM     21  C   UNL     1      -6.881   2.960 129.737  0.00  0.00    +0.000 A 
ATOM     22  C   UNL     1      -7.027   4.258 130.267  0.00  0.00    +0.000 A 
ATOM     23  C   UNL     1      -8.313   4.829 130.382  0.00  0.00    +0.000 A 
ATOM     24  C   UNL     1      -9.445   4.081 130.081  0.00  0.00    +0.000 A 
ATOM     25  C   UNL     1      -9.294   2.759 129.674  0.00  0.00    +0.000 A 
BRANCH  23  26
ATOM     26  S   UNL     1      -8.466   6.558 130.756  0.00  0.00    +0.000 S 
ATOM     27  O   UNL     1      -9.314   6.637 131.938  0.00  0.00    +0.000 OA
ATOM     28  O   UNL     1      -7.150   7.134 130.706  0.00  0.00    +0.000 OA
BRANCH  26  29
ATOM     29  O   UNL     1      -9.323   7.141 129.522  0.00  0.00    +0.000 OA
ATOM     30  H   UNL     1      -9.585   8.066 129.693  0.00  0.00    +0.000 HD
ENDBRANCH  26  29
ENDBRANCH  23  26
BRANCH  21  31
ATOM     31  S   UNL     1      -5.217   2.355 129.397  0.00  0.00    +0.000 S 
ATOM     32  O   UNL     1      -4.952   1.332 130.394  0.00  0.00    +0.000 OA
ATOM     33  O   UNL     1      -5.031   2.068 127.995  0.00  0.00    +0.000 OA
BRANCH  31  34
ATOM     34  O   UNL     1      -4.269   3.612 129.736  0.00  0.00    +0.000 OA
ATOM     35  H   UNL     1      -3.332   3.355 129.811  0.00  0.00    +0.000 HD
ENDBRANCH  31  34
ENDBRANCH  21  31
BRANCH  24  36
ATOM     36  O   UNL     1     -10.736   4.512 130.164  0.00  0.00    +0.000 OA
ATOM     37  H   UNL     1     -11.073   4.497 131.089  0.00  0.00    +0.000 HD
ENDBRANCH  24  36
ENDBRANCH   1  20
BRANCH   8  38
ATOM     38  C   UNL     1      -5.581  -3.984 132.797  0.00  0.00    +0.000 C 
ATOM     39  C   UNL     1      -5.917  -5.102 133.748  0.00  0.00    +0.000 C 
ENDBRANCH   8  38
BRANCH   8  40
ATOM     40  C   UNL     1      -5.748  -2.039 134.487  0.00  0.00    +0.000 C 
ATOM     41  C   UNL     1      -4.308  -1.569 134.583  0.00  0.00    +0.000 C 
ENDBRANCH   8  40
TORSDOF 12
ENDMDL
MODEL 3
REMARK VINA RESULT:      -7.4      4.412      7.125
REMARK  Name = Patent Blue
REMARK  16 active torsions:
REMARK  status: ('A' for Active; 'I' for Inactive)
REMARK    1  A    between atoms: C_1  and  C_2
REMARK    2  A    between atoms: C_2  and  N_3
REMARK    3  A    between atoms: N_3  and  C_4
REMARK    4  A    between atoms: N_3  and  C_6
REMARK    5  A    between atoms: C_4  and  C_5
REMARK    6  A    between atoms: C_9  and  C_12
REMARK    7  A    between atoms: C_12  and  C_24
REMARK    8  A    between atoms: N_19  and  C_20
REMARK    9  A    between atoms: N_19  and  C_22
REMARK   10  A    between atoms: C_20  and  C_21
REMARK   11  A    between atoms: C_22  and  C_23
REMARK   12  A    between atoms: C_25  and  S_35
REMARK   13  A    between atoms: C_27  and  S_31
REMARK   14  A    between atoms: C_28  and  O_29
REMARK   15  A    between atoms: S_31  and  O_32
REMARK   16  A    between atoms: S_35  and  O_36
REMARK                            x       y       z     vdW  Elec       q    Type
REMARK                         _______ _______ _______ _____ _____    ______ ____
ROOT
ATOM      1  C   UNL     1      -7.026  -1.393 130.650  0.00  0.00    +0.000 C 
ATOM      2  C   UNL     1      -6.651  -2.176 131.709  0.00  0.00    +0.000 C 
ATOM      3  C   UNL     1      -6.291  -3.536 131.512  0.00  0.00    +0.000 C 
ATOM      4  C   UNL     1      -5.404  -4.158 132.256  0.00  0.00    +0.000 C 
ATOM      5  C   UNL     1      -4.862  -3.581 133.497  0.00  0.00    +0.000 C 
ATOM      6  C   UNL     1      -5.704  -2.404 133.971  0.00  0.00    +0.000 C 
ATOM      7  C   UNL     1      -6.560  -1.786 133.127  0.00  0.00    +0.000 C 
ATOM      8  N   UNL     1      -3.860  -4.102 134.154  0.00  0.00    +0.000 N 
ENDROOT
BRANCH   1  12
ATOM      9  C   UNL     1      -6.981  -2.500 126.352  0.00  0.00    +0.000 A 
ATOM     10  C   UNL     1      -5.839  -2.093 126.994  0.00  0.00    +0.000 A 
ATOM     11  C   UNL     1      -5.844  -1.843 128.355  0.00  0.00    +0.000 A 
ATOM     12  C   UNL     1      -6.986  -1.822 129.171  0.00  0.00    +0.000 A 
ATOM     13  C   UNL     1      -8.160  -2.163 128.492  0.00  0.00    +0.000 A 
ATOM     14  C   UNL     1      -8.152  -2.504 127.121  0.00  0.00    +0.000 A 
BRANCH   9  15
ATOM     15  N   UNL     1      -6.906  -2.917 125.022  0.00  0.00    +0.000 N 
BRANCH  15  17
ATOM     16  C   UNL     1      -4.846  -3.500 123.662  0.00  0.00    +0.000 C 
ATOM     17  C   UNL     1      -5.714  -2.457 124.310  0.00  0.00    +0.000 C 
ENDBRANCH  15  17
BRANCH  15  18
ATOM     18  C   UNL     1      -8.055  -3.721 124.545  0.00  0.00    +0.000 C 
ATOM     19  C   UNL     1      -8.995  -3.098 123.545  0.00  0.00    +0.000 C 
ENDBRANCH  15  18
ENDBRANCH   9  15
ENDBRANCH   1  12
BRANCH   1  20
ATOM     20  C   UNL     1      -7.417  -0.003 131.033  0.00  0.00    +0.000 A 
ATOM     21  C   UNL     1      -6.523   1.071 131.179  0.00  0.00    +0.000 A 
ATOM     22  C   UNL     1      -6.963   2.261 131.794  0.00  0.00    +0.000 A 
ATOM     23  C   UNL     1      -8.332   2.437 132.084  0.00  0.00    +0.000 A 
ATOM     24  C   UNL     1      -9.236   1.403 131.870  0.00  0.00    +0.000 A 
ATOM     25  C   UNL     1      -8.770   0.188 131.376  0.00  0.00    +0.000 A 
BRANCH  23  26
ATOM     26  S   UNL     1      -8.919   4.042 132.568  0.00  0.00    +0.000 S 
ATOM     27  O   UNL     1      -7.744   4.777 133.016  0.00  0.00    +0.000 OA
ATOM     28  O   UNL     1      -9.786   4.522 131.527  0.00  0.00    +0.000 OA
BRANCH  26  29
ATOM     29  O   UNL     1      -9.813   3.743 133.876  0.00  0.00    +0.000 OA
ATOM     30  H   UNL     1      -9.678   2.825 134.181  0.00  0.00    +0.000 HD
ENDBRANCH  26  29
ENDBRANCH  23  26
BRANCH  21  31
ATOM     31  S   UNL     1      -4.810   0.976 130.622  0.00  0.00    +0.000 S 
ATOM     32  O   UNL     1      -4.187  -0.063 131.423  0.00  0.00    +0.000 OA
ATOM     33  O   UNL     1      -4.721   0.935 129.183  0.00  0.00    +0.000 OA
BRANCH  31  34
ATOM     34  O   UNL     1      -4.173   2.383 131.081  0.00  0.00    +0.000 OA
ATOM     35  H   UNL     1      -3.262   2.495 130.755  0.00  0.00    +0.000 HD
ENDBRANCH  31  34
ENDBRANCH  21  31
BRANCH  24  36
ATOM     36  O   UNL     1     -10.575   1.444 132.121  0.00  0.00    +0.000 OA
ATOM     37  H   UNL     1     -11.086   1.789 131.354  0.00  0.00    +0.000 HD
ENDBRANCH  24  36
ENDBRANCH   1  20
BRANCH   8  38
ATOM     38  C   UNL     1      -2.978  -5.286 133.706  0.00  0.00    +0.000 C 
ATOM     39  C   UNL     1      -3.348  -6.662 134.188  0.00  0.00    +0.000 C 
ENDBRANCH   8  38
BRANCH   8  40
ATOM     40  C   UNL     1      -3.487  -3.508 135.509  0.00  0.00    +0.000 C 
ATOM     41  C   UNL     1      -1.999  -3.539 135.803  0.00  0.00    +0.000 C 
ENDBRANCH   8  40
TORSDOF 12
ENDMDL
MODEL 4
REMARK VINA RESULT:      -7.4      4.003      7.449
REMARK  Name = Patent Blue
REMARK  16 active torsions:
REMARK  status: ('A' for Active; 'I' for Inactive)
REMARK    1  A    between atoms: C_1  and  C_2
REMARK    2  A    between atoms: C_2  and  N_3
REMARK    3  A    between atoms: N_3  and  C_4
REMARK    4  A    between atoms: N_3  and  C_6
REMARK    5  A    between atoms: C_4  and  C_5
REMARK    6  A    between atoms: C_9  and  C_12
REMARK    7  A    between atoms: C_12  and  C_24
REMARK    8  A    between atoms: N_19  and  C_20
REMARK    9  A    between atoms: N_19  and  C_22
REMARK   10  A    between atoms: C_20  and  C_21
REMARK   11  A    between atoms: C_22  and  C_23
REMARK   12  A    between atoms: C_25  and  S_35
REMARK   13  A    between atoms: C_27  and  S_31
REMARK   14  A    between atoms: C_28  and  O_29
REMARK   15  A    between atoms: S_31  and  O_32
REMARK   16  A    between atoms: S_35  and  O_36
REMARK                            x       y       z     vdW  Elec       q    Type
REMARK                         _______ _______ _______ _____ _____    ______ ____
ROOT
ATOM      1  C   UNL     1      -7.298   1.882 128.098  0.00  0.00    +0.000 C 
ATOM      2  C   UNL     1      -6.260   1.040 128.398  0.00  0.00    +0.000 C 
ATOM      3  C   UNL     1      -5.562   1.161 129.630  0.00  0.00    +0.000 C 
ATOM      4  C   UNL     1      -5.024   0.136 130.252  0.00  0.00    +0.000 C 
ATOM      5  C   UNL     1      -4.895  -1.193 129.633  0.00  0.00    +0.000 C 
ATOM      6  C   UNL     1      -5.113  -1.123 128.127  0.00  0.00    +0.000 C 
ATOM      7  C   UNL     1      -5.721  -0.052 127.568  0.00  0.00    +0.000 C 
ATOM      8  N   UNL     1      -4.524  -2.259 130.291  0.00  0.00    +0.000 N 
ENDROOT
BRANCH   1  12
ATOM      9  C   UNL     1      -9.027   4.995 130.747  0.00  0.00    +0.000 A 
ATOM     10  C   UNL     1      -9.782   3.940 130.302  0.00  0.00    +0.000 A 
ATOM     11  C   UNL     1      -9.209   2.925 129.556  0.00  0.00    +0.000 A 
ATOM     12  C   UNL     1      -7.898   2.928 129.058  0.00  0.00    +0.000 A 
ATOM     13  C   UNL     1      -7.155   4.045 129.453  0.00  0.00    +0.000 A 
ATOM     14  C   UNL     1      -7.705   5.044 130.285  0.00  0.00    +0.000 A 
BRANCH   9  15
ATOM     15  N   UNL     1      -9.587   5.906 131.645  0.00  0.00    +0.000 N 
BRANCH  15  17
ATOM     16  C   UNL     1      -9.005   4.488 133.666  0.00  0.00    +0.000 C 
ATOM     17  C   UNL     1      -9.039   5.836 132.999  0.00  0.00    +0.000 C 
ENDBRANCH  15  17
BRANCH  15  18
ATOM     18  C   UNL     1     -10.660   6.763 131.090  0.00  0.00    +0.000 C 
ATOM     19  C   UNL     1     -12.054   6.608 131.644  0.00  0.00    +0.000 C 
ENDBRANCH  15  18
ENDBRANCH   9  15
ENDBRANCH   1  12
BRANCH   1  20
ATOM     20  C   UNL     1      -7.894   1.652 126.748  0.00  0.00    +0.000 A 
ATOM     21  C   UNL     1      -7.913   2.596 125.707  0.00  0.00    +0.000 A 
ATOM     22  C   UNL     1      -8.727   2.368 124.579  0.00  0.00    +0.000 A 
ATOM     23  C   UNL     1      -9.364   1.120 124.413  0.00  0.00    +0.000 A 
ATOM     24  C   UNL     1      -9.287   0.152 125.407  0.00  0.00    +0.000 A 
ATOM     25  C   UNL     1      -8.581   0.434 126.573  0.00  0.00    +0.000 A 
BRANCH  23  26
ATOM     26  S   UNL     1     -10.127   0.734 122.856  0.00  0.00    +0.000 S 
ATOM     27  O   UNL     1      -9.717   1.789 121.940  0.00  0.00    +0.000 OA
ATOM     28  O   UNL     1      -9.895  -0.659 122.590  0.00  0.00    +0.000 OA
BRANCH  26  29
ATOM     29  O   UNL     1     -11.700   0.942 123.140  0.00  0.00    +0.000 OA
ATOM     30  H   UNL     1     -11.857   1.117 124.088  0.00  0.00    +0.000 HD
ENDBRANCH  26  29
ENDBRANCH  23  26
BRANCH  21  31
ATOM     31  S   UNL     1      -6.940   4.113 125.772  0.00  0.00    +0.000 S 
ATOM     32  O   UNL     1      -7.797   5.112 126.386  0.00  0.00    +0.000 OA
ATOM     33  O   UNL     1      -5.615   3.874 126.291  0.00  0.00    +0.000 OA
BRANCH  31  34
ATOM     34  O   UNL     1      -6.758   4.524 124.225  0.00  0.00    +0.000 OA
ATOM     35  H   UNL     1      -7.607   4.756 123.805  0.00  0.00    +0.000 HD
ENDBRANCH  31  34
ENDBRANCH  21  31
BRANCH  24  36
ATOM     36  O   UNL     1      -9.866  -1.081 125.372  0.00  0.00    +0.000 OA
ATOM     37  H   UNL     1      -9.244  -1.774 125.052  0.00  0.00    +0.000 HD
ENDBRANCH  24  36
ENDBRANCH   1  20
BRANCH   8  38
ATOM     38  C   UNL     1      -4.302  -2.374 131.812  0.00  0.00    +0.000 C 
ATOM     39  C   UNL     1      -3.029  -1.810 132.383  0.00  0.00    +0.000 C 
ENDBRANCH   8  38
BRANCH   8  40
ATOM     40  C   UNL     1      -4.275  -3.547 129.512  0.00  0.00    +0.000 C 
ATOM     41  C   UNL     1      -2.825  -3.753 129.115  0.00  0.00    +0.000 C 
ENDBRANCH   8  40
TORSDOF 12
ENDMDL
MODEL 5
REMARK VINA RESULT:      -7.4      4.124      7.997
REMARK  Name = Patent Blue
REMARK  16 active torsions:
REMARK  status: ('A' for Active; 'I' for Inactive)
REMARK    1  A    between atoms: C_1  and  C_2
REMARK    2  A    between atoms: C_2  and  N_3
REMARK    3  A    between atoms: N_3  and  C_4
REMARK    4  A    between atoms: N_3  and  C_6
REMARK    5  A    between atoms: C_4  and  C_5
REMARK    6  A    between atoms: C_9  and  C_12
REMARK    7  A    between atoms: C_12  and  C_24
REMARK    8  A    between atoms: N_19  and  C_20
REMARK    9  A    between atoms: N_19  and  C_22
REMARK   10  A    between atoms: C_20  and  C_21
REMARK   11  A    between atoms: C_22  and  C_23
REMARK   12  A    between atoms: C_25  and  S_35
REMARK   13  A    between atoms: C_27  and  S_31
REMARK   14  A    between atoms: C_28  and  O_29
REMARK   15  A    between atoms: S_31  and  O_32
REMARK   16  A    between atoms: S_35  and  O_36
REMARK                            x       y       z     vdW  Elec       q    Type
REMARK                         _______ _______ _______ _____ _____    ______ ____
ROOT
ATOM      1  C   UNL     1      -8.406   4.470 132.636  0.00  0.00    +0.000 C 
ATOM      2  C   UNL     1      -8.356   3.104 132.735  0.00  0.00    +0.000 C 
ATOM      3  C   UNL     1      -9.257   2.291 131.998  0.00  0.00    +0.000 C 
ATOM      4  C   UNL     1      -8.946   1.093 131.558  0.00  0.00    +0.000 C 
ATOM      5  C   UNL     1      -7.722   0.387 131.971  0.00  0.00    +0.000 C 
ATOM      6  C   UNL     1      -7.097   1.038 133.197  0.00  0.00    +0.000 C 
ATOM      7  C   UNL     1      -7.436   2.296 133.556  0.00  0.00    +0.000 C 
ATOM      8  N   UNL     1      -7.311  -0.722 131.416  0.00  0.00    +0.000 N 
ENDROOT
BRANCH   1  12
ATOM      9  C   UNL     1     -10.953   6.864 129.903  0.00  0.00    +0.000 A 
ATOM     10  C   UNL     1      -9.858   6.183 129.439  0.00  0.00    +0.000 A 
ATOM     11  C   UNL     1      -9.126   5.363 130.281  0.00  0.00    +0.000 A 
ATOM     12  C   UNL     1      -9.309   5.256 131.668  0.00  0.00    +0.000 A 
ATOM     13  C   UNL     1     -10.383   6.015 132.147  0.00  0.00    +0.000 A 
ATOM     14  C   UNL     1     -11.188   6.788 131.282  0.00  0.00    +0.000 A 
BRANCH   9  15
ATOM     15  N   UNL     1     -11.774   7.538 128.996  0.00  0.00    +0.000 N 
BRANCH  15  17
ATOM     16  C   UNL     1     -13.033   9.713 129.338  0.00  0.00    +0.000 C 
ATOM     17  C   UNL     1     -12.902   8.239 129.607  0.00  0.00    +0.000 C 
ENDBRANCH  15  17
BRANCH  15  18
ATOM     18  C   UNL     1     -11.390   7.401 127.572  0.00  0.00    +0.000 C 
ATOM     19  C   UNL     1     -12.460   7.026 126.578  0.00  0.00    +0.000 C 
ENDBRANCH  15  18
ENDBRANCH   9  15
ENDBRANCH   1  12
BRANCH   1  20
ATOM     20  C   UNL     1      -7.422   5.177 133.509  0.00  0.00    +0.000 A 
ATOM     21  C   UNL     1      -6.121   5.543 133.121  0.00  0.00    +0.000 A 
ATOM     22  C   UNL     1      -5.198   5.966 134.099  0.00  0.00    +0.000 A 
ATOM     23  C   UNL     1      -5.634   6.198 135.421  0.00  0.00    +0.000 A 
ATOM     24  C   UNL     1      -6.941   5.909 135.794  0.00  0.00    +0.000 A 
ATOM     25  C   UNL     1      -7.812   5.377 134.848  0.00  0.00    +0.000 A 
BRANCH  23  26
ATOM     26  S   UNL     1      -4.547   7.018 136.563  0.00  0.00    +0.000 S 
ATOM     27  O   UNL     1      -4.444   6.136 137.717  0.00  0.00    +0.000 OA
ATOM     28  O   UNL     1      -3.399   7.470 135.825  0.00  0.00    +0.000 OA
BRANCH  26  29
ATOM     29  O   UNL     1      -5.390   8.309 137.032  0.00  0.00    +0.000 OA
ATOM     30  H   UNL     1      -5.502   8.312 138.002  0.00  0.00    +0.000 HD
ENDBRANCH  26  29
ENDBRANCH  23  26
BRANCH  21  31
ATOM     31  S   UNL     1      -5.578   5.474 131.403  0.00  0.00    +0.000 S 
ATOM     32  O   UNL     1      -5.716   4.086 130.996  0.00  0.00    +0.000 OA
ATOM     33  O   UNL     1      -6.174   6.524 130.614  0.00  0.00    +0.000 OA
BRANCH  31  34
ATOM     34  O   UNL     1      -4.002   5.797 131.480  0.00  0.00    +0.000 OA
ATOM     35  H   UNL     1      -3.720   6.031 132.382  0.00  0.00    +0.000 HD
ENDBRANCH  31  34
ENDBRANCH  21  31
BRANCH  24  36
ATOM     36  O   UNL     1      -7.476   6.077 137.036  0.00  0.00    +0.000 OA
ATOM     37  H   UNL     1      -8.458   6.142 137.011  0.00  0.00    +0.000 HD
ENDBRANCH  24  36
ENDBRANCH   1  20
BRANCH   8  38
ATOM     38  C   UNL     1      -7.909  -1.409 130.171  0.00  0.00    +0.000 C 
ATOM     39  C   UNL     1      -7.747  -2.899 130.041  0.00  0.00    +0.000 C 
ENDBRANCH   8  38
BRANCH   8  40
ATOM     40  C   UNL     1      -6.117  -1.447 132.030  0.00  0.00    +0.000 C 
ATOM     41  C   UNL     1      -4.788  -1.095 131.386  0.00  0.00    +0.000 C 
ENDBRANCH   8  40
TORSDOF 12
ENDMDL
MODEL 6
REMARK VINA RESULT:      -7.3      6.155      8.606
REMARK  Name = Patent Blue
REMARK  16 active torsions:
REMARK  status: ('A' for Active; 'I' for Inactive)
REMARK    1  A    between atoms: C_1  and  C_2
REMARK    2  A    between atoms: C_2  and  N_3
REMARK    3  A    between atoms: N_3  and  C_4
REMARK    4  A    between atoms: N_3  and  C_6
REMARK    5  A    between atoms: C_4  and  C_5
REMARK    6  A    between atoms: C_9  and  C_12
REMARK    7  A    between atoms: C_12  and  C_24
REMARK    8  A    between atoms: N_19  and  C_20
REMARK    9  A    between atoms: N_19  and  C_22
REMARK   10  A    between atoms: C_20  and  C_21
REMARK   11  A    between atoms: C_22  and  C_23
REMARK   12  A    between atoms: C_25  and  S_35
REMARK   13  A    between atoms: C_27  and  S_31
REMARK   14  A    between atoms: C_28  and  O_29
REMARK   15  A    between atoms: S_31  and  O_32
REMARK   16  A    between atoms: S_35  and  O_36
REMARK                            x       y       z     vdW  Elec       q    Type
REMARK                         _______ _______ _______ _____ _____    ______ ____
ROOT
ATOM      1  C   UNL     1      -6.736  -1.315 131.129  0.00  0.00    +0.000 C 
ATOM      2  C   UNL     1      -6.762  -0.023 131.582  0.00  0.00    +0.000 C 
ATOM      3  C   UNL     1      -6.831   1.063 130.669  0.00  0.00    +0.000 C 
ATOM      4  C   UNL     1      -7.433   2.198 130.949  0.00  0.00    +0.000 C 
ATOM      5  C   UNL     1      -7.899   2.538 132.302  0.00  0.00    +0.000 C 
ATOM      6  C   UNL     1      -7.285   1.615 133.346  0.00  0.00    +0.000 C 
ATOM      7  C   UNL     1      -6.726   0.440 132.982  0.00  0.00    +0.000 C 
ATOM      8  N   UNL     1      -8.649   3.576 132.564  0.00  0.00    +0.000 N 
ENDROOT
BRANCH   1  12
ATOM      9  C   UNL     1      -7.329  -2.461 126.883  0.00  0.00    +0.000 A 
ATOM     10  C   UNL     1      -6.325  -1.604 127.255  0.00  0.00    +0.000 A 
ATOM     11  C   UNL     1      -6.089  -1.329 128.590  0.00  0.00    +0.000 A 
ATOM     12  C   UNL     1      -6.899  -1.743 129.658  0.00  0.00    +0.000 A 
ATOM     13  C   UNL     1      -7.967  -2.555 129.263  0.00  0.00    +0.000 A 
ATOM     14  C   UNL     1      -8.166  -2.912 127.912  0.00  0.00    +0.000 A 
BRANCH   9  15
ATOM     15  N   UNL     1      -7.429  -2.860 125.548  0.00  0.00    +0.000 N 
BRANCH  15  17
ATOM     16  C   UNL     1      -9.295  -3.343 123.900  0.00  0.00    +0.000 C 
ATOM     17  C   UNL     1      -8.644  -3.607 125.230  0.00  0.00    +0.000 C 
ENDBRANCH  15  17
BRANCH  15  18
ATOM     18  C   UNL     1      -6.278  -2.493 124.691  0.00  0.00    +0.000 C 
ATOM     19  C   UNL     1      -5.436  -3.603 124.114  0.00  0.00    +0.000 C 
ENDBRANCH  15  18
ENDBRANCH   9  15
ENDBRANCH   1  12
BRANCH   1  20
ATOM     20  C   UNL     1      -6.617  -2.335 132.214  0.00  0.00    +0.000 A 
ATOM     21  C   UNL     1      -5.534  -3.218 132.371  0.00  0.00    +0.000 A 
ATOM     22  C   UNL     1      -5.649  -4.304 133.263  0.00  0.00    +0.000 A 
ATOM     23  C   UNL     1      -6.764  -4.392 134.123  0.00  0.00    +0.000 A 
ATOM     24  C   UNL     1      -7.805  -3.476 134.023  0.00  0.00    +0.000 A 
ATOM     25  C   UNL     1      -7.737  -2.478 133.056  0.00  0.00    +0.000 A 
BRANCH  23  26
ATOM     26  S   UNL     1      -6.751  -5.580 135.444  0.00  0.00    +0.000 S 
ATOM     27  O   UNL     1      -8.071  -6.196 135.438  0.00  0.00    +0.000 OA
ATOM     28  O   UNL     1      -5.537  -6.342 135.334  0.00  0.00    +0.000 OA
BRANCH  26  29
ATOM     29  O   UNL     1      -6.662  -4.672 136.772  0.00  0.00    +0.000 OA
ATOM     30  H   UNL     1      -6.707  -5.229 137.573  0.00  0.00    +0.000 HD
ENDBRANCH  26  29
ENDBRANCH  23  26
BRANCH  21  31
ATOM     31  S   UNL     1      -3.995  -3.021 131.452  0.00  0.00    +0.000 S 
ATOM     32  O   UNL     1      -4.172  -3.758 130.214  0.00  0.00    +0.000 OA
ATOM     33  O   UNL     1      -3.566  -1.644 131.423  0.00  0.00    +0.000 OA
BRANCH  31  34
ATOM     34  O   UNL     1      -2.910  -3.819 132.335  0.00  0.00    +0.000 OA
ATOM     35  H   UNL     1      -3.063  -3.709 133.291  0.00  0.00    +0.000 HD
ENDBRANCH  31  34
ENDBRANCH  21  31
BRANCH  24  36
ATOM     36  O   UNL     1      -8.936  -3.462 134.784  0.00  0.00    +0.000 OA
ATOM     37  H   UNL     1      -8.839  -4.003 135.601  0.00  0.00    +0.000 HD
ENDBRANCH  24  36
ENDBRANCH   1  20
BRANCH   8  38
ATOM     38  C   UNL     1      -9.296   4.529 131.539  0.00  0.00    +0.000 C 
ATOM     39  C   UNL     1      -8.567   5.800 131.198  0.00  0.00    +0.000 C 
ENDBRANCH   8  38
BRANCH   8  40
ATOM     40  C   UNL     1      -8.939   3.918 134.022  0.00  0.00    +0.000 C 
ATOM     41  C   UNL     1      -7.923   4.856 134.647  0.00  0.00    +0.000 C 
ENDBRANCH   8  40
TORSDOF 12
ENDMDL
MODEL 7
REMARK VINA RESULT:      -7.2      3.636      6.704
REMARK  Name = Patent Blue
REMARK  16 active torsions:
REMARK  status: ('A' for Active; 'I' for Inactive)
REMARK    1  A    between atoms: C_1  and  C_2
REMARK    2  A    between atoms: C_2  and  N_3
REMARK    3  A    between atoms: N_3  and  C_4
REMARK    4  A    between atoms: N_3  and  C_6
REMARK    5  A    between atoms: C_4  and  C_5
REMARK    6  A    between atoms: C_9  and  C_12
REMARK    7  A    between atoms: C_12  and  C_24
REMARK    8  A    between atoms: N_19  and  C_20
REMARK    9  A    between atoms: N_19  and  C_22
REMARK   10  A    between atoms: C_20  and  C_21
REMARK   11  A    between atoms: C_22  and  C_23
REMARK   12  A    between atoms: C_25  and  S_35
REMARK   13  A    between atoms: C_27  and  S_31
REMARK   14  A    between atoms: C_28  and  O_29
REMARK   15  A    between atoms: S_31  and  O_32
REMARK   16  A    between atoms: S_35  and  O_36
REMARK                            x       y       z     vdW  Elec       q    Type
REMARK                         _______ _______ _______ _____ _____    ______ ____
ROOT
ATOM      1  C   UNL     1      -8.122   0.855 129.244  0.00  0.00    +0.000 C 
ATOM      2  C   UNL     1      -8.140  -0.234 130.074  0.00  0.00    +0.000 C 
ATOM      3  C   UNL     1      -8.023  -1.548 129.548  0.00  0.00    +0.000 C 
ATOM      4  C   UNL     1      -7.454  -2.535 130.204  0.00  0.00    +0.000 C 
ATOM      5  C   UNL     1      -7.083  -2.436 131.625  0.00  0.00    +0.000 C 
ATOM      6  C   UNL     1      -7.755  -1.242 132.288  0.00  0.00    +0.000 C 
ATOM      7  C   UNL     1      -8.275  -0.242 131.542  0.00  0.00    +0.000 C 
ATOM      8  N   UNL     1      -6.364  -3.335 132.243  0.00  0.00    +0.000 N 
ENDROOT
BRANCH   1  12
ATOM      9  C   UNL     1      -7.358   0.572 124.881  0.00  0.00    +0.000 A 
ATOM     10  C   UNL     1      -8.583   0.952 125.365  0.00  0.00    +0.000 A 
ATOM     11  C   UNL     1      -8.783   1.130 126.723  0.00  0.00    +0.000 A 
ATOM     12  C   UNL     1      -7.856   0.809 127.727  0.00  0.00    +0.000 A 
ATOM     13  C   UNL     1      -6.633   0.348 127.228  0.00  0.00    +0.000 A 
ATOM     14  C   UNL     1      -6.391   0.245 125.841  0.00  0.00    +0.000 A 
BRANCH   9  15
ATOM     15  N   UNL     1      -7.136   0.576 123.502  0.00  0.00    +0.000 N 
BRANCH  15  17
ATOM     16  C   UNL     1      -7.826  -1.786 122.889  0.00  0.00    +0.000 C 
ATOM     17  C   UNL     1      -6.763  -0.724 122.947  0.00  0.00    +0.000 C 
ENDBRANCH  15  17
BRANCH  15  18
ATOM     18  C   UNL     1      -7.278   1.894 122.842  0.00  0.00    +0.000 C 
ATOM     19  C   UNL     1      -6.390   3.022 123.303  0.00  0.00    +0.000 C 
ENDBRANCH  15  18
ENDBRANCH   9  15
ENDBRANCH   1  12
BRANCH   1  20
ATOM     20  C   UNL     1      -8.301   2.159 129.950  0.00  0.00    +0.000 A 
ATOM     21  C   UNL     1      -7.273   2.877 130.584  0.00  0.00    +0.000 A 
ATOM     22  C   UNL     1      -7.601   3.951 131.436  0.00  0.00    +0.000 A 
ATOM     23  C   UNL     1      -8.932   4.417 131.499  0.00  0.00    +0.000 A 
ATOM     24  C   UNL     1      -9.943   3.754 130.813  0.00  0.00    +0.000 A 
ATOM     25  C   UNL     1      -9.627   2.621 130.071  0.00  0.00    +0.000 A 
BRANCH  23  26
ATOM     26  S   UNL     1      -9.279   5.949 132.328  0.00  0.00    +0.000 S 
ATOM     27  O   UNL     1      -8.333   6.026 133.433  0.00  0.00    +0.000 OA
ATOM     28  O   UNL     1      -9.387   6.973 131.325  0.00  0.00    +0.000 OA
BRANCH  26  29
ATOM     29  O   UNL     1     -10.737   5.713 132.972  0.00  0.00    +0.000 OA
ATOM     30  H   UNL     1     -11.124   4.876 132.649  0.00  0.00    +0.000 HD
ENDBRANCH  26  29
ENDBRANCH  23  26
BRANCH  21  31
ATOM     31  S   UNL     1      -5.534   2.459 130.361  0.00  0.00    +0.000 S 
ATOM     32  O   UNL     1      -4.792   3.362 131.224  0.00  0.00    +0.000 OA
ATOM     33  O   UNL     1      -5.314   1.035 130.440  0.00  0.00    +0.000 OA
BRANCH  31  34
ATOM     34  O   UNL     1      -5.223   2.886 128.840  0.00  0.00    +0.000 OA
ATOM     35  H   UNL     1      -5.404   3.831 128.680  0.00  0.00    +0.000 HD
ENDBRANCH  31  34
ENDBRANCH  21  31
BRANCH  24  36
ATOM     36  O   UNL     1     -11.263   4.096 130.804  0.00  0.00    +0.000 OA
ATOM     37  H   UNL     1     -11.847   3.323 130.976  0.00  0.00    +0.000 HD
ENDBRANCH  24  36
ENDBRANCH   1  20
BRANCH   8  38
ATOM     38  C   UNL     1      -5.660  -4.552 131.608  0.00  0.00    +0.000 C 
ATOM     39  C   UNL     1      -4.437  -4.299 130.769  0.00  0.00    +0.000 C 
ENDBRANCH   8  38
BRANCH   8  40
ATOM     40  C   UNL     1      -6.175  -3.207 133.752  0.00  0.00    +0.000 C 
ATOM     41  C   UNL     1      -7.097  -4.099 134.564  0.00  0.00    +0.000 C 
ENDBRANCH   8  40
TORSDOF 12
ENDMDL
MODEL 8
REMARK VINA RESULT:      -7.2      5.147     10.174
REMARK  Name = Patent Blue
REMARK  16 active torsions:
REMARK  status: ('A' for Active; 'I' for Inactive)
REMARK    1  A    between atoms: C_1  and  C_2
REMARK    2  A    between atoms: C_2  and  N_3
REMARK    3  A    between atoms: N_3  and  C_4
REMARK    4  A    between atoms: N_3  and  C_6
REMARK    5  A    between atoms: C_4  and  C_5
REMARK    6  A    between atoms: C_9  and  C_12
REMARK    7  A    between atoms: C_12  and  C_24
REMARK    8  A    between atoms: N_19  and  C_20
REMARK    9  A    between atoms: N_19  and  C_22
REMARK   10  A    between atoms: C_20  and  C_21
REMARK   11  A    between atoms: C_22  and  C_23
REMARK   12  A    between atoms: C_25  and  S_35
REMARK   13  A    between atoms: C_27  and  S_31
REMARK   14  A    between atoms: C_28  and  O_29
REMARK   15  A    between atoms: S_31  and  O_32
REMARK   16  A    between atoms: S_35  and  O_36
REMARK                            x       y       z     vdW  Elec       q    Type
REMARK                         _______ _______ _______ _____ _____    ______ ____
ROOT
ATOM      1  C   UNL     1      -6.221  -0.201 129.705  0.00  0.00    +0.000 C 
ATOM      2  C   UNL     1      -7.144  -0.607 128.777  0.00  0.00    +0.000 C 
ATOM      3  C   UNL     1      -7.720   0.325 127.873  0.00  0.00    +0.000 C 
ATOM      4  C   UNL     1      -8.098   0.003 126.656  0.00  0.00    +0.000 C 
ATOM      5  C   UNL     1      -8.169  -1.391 126.187  0.00  0.00    +0.000 C 
ATOM      6  C   UNL     1      -8.114  -2.368 127.354  0.00  0.00    +0.000 C 
ATOM      7  C   UNL     1      -7.665  -1.969 128.565  0.00  0.00    +0.000 C 
ATOM      8  N   UNL     1      -8.374  -1.719 124.940  0.00  0.00    +0.000 N 
ENDROOT
BRANCH   1  12
ATOM      9  C   UNL     1      -4.535   3.902 129.834  0.00  0.00    +0.000 A 
ATOM     10  C   UNL     1      -5.724   3.603 130.447  0.00  0.00    +0.000 A 
ATOM     11  C   UNL     1      -6.193   2.301 130.483  0.00  0.00    +0.000 A 
ATOM     12  C   UNL     1      -5.623   1.216 129.800  0.00  0.00    +0.000 A 
ATOM     13  C   UNL     1      -4.450   1.545 129.113  0.00  0.00    +0.000 A 
ATOM     14  C   UNL     1      -3.917   2.853 129.141  0.00  0.00    +0.000 A 
BRANCH   9  15
ATOM     15  N   UNL     1      -3.999   5.185 129.968  0.00  0.00    +0.000 N 
BRANCH  15  17
ATOM     16  C   UNL     1      -4.203   7.033 131.694  0.00  0.00    +0.000 C 
ATOM     17  C   UNL     1      -4.857   6.125 130.688  0.00  0.00    +0.000 C 
ENDBRANCH  15  17
BRANCH  15  18
ATOM     18  C   UNL     1      -2.677   5.389 129.333  0.00  0.00    +0.000 C 
ATOM     19  C   UNL     1      -2.544   6.477 128.297  0.00  0.00    +0.000 C 
ENDBRANCH  15  18
ENDBRANCH   9  15
ENDBRANCH   1  12
BRANCH   1  20
ATOM     20  C   UNL     1      -5.749  -1.293 130.608  0.00  0.00    +0.000 A 
ATOM     21  C   UNL     1      -6.235  -1.529 131.905  0.00  0.00    +0.000 A 
ATOM     22  C   UNL     1      -5.539  -2.412 132.757  0.00  0.00    +0.000 A 
ATOM     23  C   UNL     1      -4.478  -3.190 132.246  0.00  0.00    +0.000 A 
ATOM     24  C   UNL     1      -4.041  -3.013 130.938  0.00  0.00    +0.000 A 
ATOM     25  C   UNL     1      -4.657  -2.052 130.143  0.00  0.00    +0.000 A 
BRANCH  23  26
ATOM     26  S   UNL     1      -3.815  -4.510 133.232  0.00  0.00    +0.000 S 
ATOM     27  O   UNL     1      -4.642  -5.674 132.946  0.00  0.00    +0.000 OA
ATOM     28  O   UNL     1      -2.388  -4.509 133.061  0.00  0.00    +0.000 OA
BRANCH  26  29
ATOM     29  O   UNL     1      -4.146  -4.059 134.744  0.00  0.00    +0.000 OA
ATOM     30  H   UNL     1      -4.078  -3.089 134.836  0.00  0.00    +0.000 HD
ENDBRANCH  26  29
ENDBRANCH  23  26
BRANCH  21  31
ATOM     31  S   UNL     1      -7.720  -0.723 132.534  0.00  0.00    +0.000 S 
ATOM     32  O   UNL     1      -7.259   0.412 133.314  0.00  0.00    +0.000 OA
ATOM     33  O   UNL     1      -8.705  -0.539 131.496  0.00  0.00    +0.000 OA
BRANCH  31  34
ATOM     34  O   UNL     1      -8.337  -1.795 133.566  0.00  0.00    +0.000 OA
ATOM     35  H   UNL     1      -7.696  -2.054 134.253  0.00  0.00    +0.000 HD
ENDBRANCH  31  34
ENDBRANCH  21  31
BRANCH  24  36
ATOM     36  O   UNL     1      -3.023  -3.691 130.335  0.00  0.00    +0.000 OA
ATOM     37  H   UNL     1      -2.672  -4.414 130.903  0.00  0.00    +0.000 HD
ENDBRANCH  24  36
ENDBRANCH   1  20
BRANCH   8  38
ATOM     38  C   UNL     1      -8.428  -0.764 123.730  0.00  0.00    +0.000 C 
ATOM     39  C   UNL     1      -7.124  -0.303 123.137  0.00  0.00    +0.000 C 
ENDBRANCH   8  38
BRANCH   8  40
ATOM     40  C   UNL     1      -8.585  -3.191 124.598  0.00  0.00    +0.000 C 
ATOM     41  C   UNL     1      -9.572  -3.423 123.469  0.00  0.00    +0.000 C 
ENDBRANCH   8  40
TORSDOF 12
ENDMDL
MODEL 9
REMARK VINA RESULT:      -7.0      3.851      8.366
REMARK  Name = Patent Blue
REMARK  16 active torsions:
REMARK  status: ('A' for Active; 'I' for Inactive)
REMARK    1  A    between atoms: C_1  and  C_2
REMARK    2  A    between atoms: C_2  and  N_3
REMARK    3  A    between atoms: N_3  and  C_4
REMARK    4  A    between atoms: N_3  and  C_6
REMARK    5  A    between atoms: C_4  and  C_5
REMARK    6  A    between atoms: C_9  and  C_12
REMARK    7  A    between atoms: C_12  and  C_24
REMARK    8  A    between atoms: N_19  and  C_20
REMARK    9  A    between atoms: N_19  and  C_22
REMARK   10  A    between atoms: C_20  and  C_21
REMARK   11  A    between atoms: C_22  and  C_23
REMARK   12  A    between atoms: C_25  and  S_35
REMARK   13  A    between atoms: C_27  and  S_31
REMARK   14  A    between atoms: C_28  and  O_29
REMARK   15  A    between atoms: S_31  and  O_32
REMARK   16  A    between atoms: S_35  and  O_36
REMARK                            x       y       z     vdW  Elec       q    Type
REMARK                         _______ _______ _______ _____ _____    ______ ____
ROOT
ATOM      1  C   UNL     1      -7.939   4.344 130.506  0.00  0.00    +0.000 C 
ATOM      2  C   UNL     1      -7.753   3.083 130.005  0.00  0.00    +0.000 C 
ATOM      3  C   UNL     1      -8.794   2.423 129.299  0.00  0.00    +0.000 C 
ATOM      4  C   UNL     1      -8.570   1.566 128.327  0.00  0.00    +0.000 C 
ATOM      5  C   UNL     1      -7.229   1.040 128.024  0.00  0.00    +0.000 C 
ATOM      6  C   UNL     1      -6.259   1.314 129.165  0.00  0.00    +0.000 C 
ATOM      7  C   UNL     1      -6.541   2.249 130.100  0.00  0.00    +0.000 C 
ATOM      8  N   UNL     1      -6.961   0.328 126.962  0.00  0.00    +0.000 N 
ENDROOT
BRANCH   1  12
ATOM      9  C   UNL     1     -11.507   6.851 129.679  0.00  0.00    +0.000 A 
ATOM     10  C   UNL     1     -11.632   5.542 130.065  0.00  0.00    +0.000 A 
ATOM     11  C   UNL     1     -10.518   4.797 130.413  0.00  0.00    +0.000 A 
ATOM     12  C   UNL     1      -9.187   5.217 130.271  0.00  0.00    +0.000 A 
ATOM     13  C   UNL     1      -9.065   6.529 129.803  0.00  0.00    +0.000 A 
ATOM     14  C   UNL     1     -10.197   7.326 129.527  0.00  0.00    +0.000 A 
BRANCH   9  15
ATOM     15  N   UNL     1     -12.655   7.627 129.509  0.00  0.00    +0.000 N 
BRANCH  15  17
ATOM     16  C   UNL     1     -13.003   7.113 127.050  0.00  0.00    +0.000 C 
ATOM     17  C   UNL     1     -13.549   7.160 128.451  0.00  0.00    +0.000 C 
ENDBRANCH  15  17
BRANCH  15  18
ATOM     18  C   UNL     1     -12.759   8.807 130.399  0.00  0.00    +0.000 C 
ATOM     19  C   UNL     1     -13.158  10.127 129.789  0.00  0.00    +0.000 C 
ENDBRANCH  15  18
ENDBRANCH   9  15
ENDBRANCH   1  12
BRANCH   1  20
ATOM     20  C   UNL     1      -6.765   4.877 131.260  0.00  0.00    +0.000 A 
ATOM     21  C   UNL     1      -6.683   4.966 132.660  0.00  0.00    +0.000 A 
ATOM     22  C   UNL     1      -5.647   5.721 133.248  0.00  0.00    +0.000 A 
ATOM     23  C   UNL     1      -4.600   6.220 132.445  0.00  0.00    +0.000 A 
ATOM     24  C   UNL     1      -4.638   6.069 131.064  0.00  0.00    +0.000 A 
ATOM     25  C   UNL     1      -5.727   5.428 130.483  0.00  0.00    +0.000 A 
BRANCH  23  26
ATOM     26  S   UNL     1      -3.154   6.896 133.225  0.00  0.00    +0.000 S 
ATOM     27  O   UNL     1      -3.548   7.209 134.591  0.00  0.00    +0.000 OA
ATOM     28  O   UNL     1      -2.047   6.035 132.913  0.00  0.00    +0.000 OA
BRANCH  26  29
ATOM     29  O   UNL     1      -2.934   8.301 132.466  0.00  0.00    +0.000 OA
ATOM     30  H   UNL     1      -3.658   8.466 131.831  0.00  0.00    +0.000 HD
ENDBRANCH  26  29
ENDBRANCH  23  26
BRANCH  21  31
ATOM     31  S   UNL     1      -7.877   4.158 133.744  0.00  0.00    +0.000 S 
ATOM     32  O   UNL     1      -9.106   4.923 133.624  0.00  0.00    +0.000 OA
ATOM     33  O   UNL     1      -7.889   2.729 133.550  0.00  0.00    +0.000 OA
BRANCH  31  34
ATOM     34  O   UNL     1      -7.295   4.415 135.224  0.00  0.00    +0.000 OA
ATOM     35  H   UNL     1      -7.998   4.410 135.899  0.00  0.00    +0.000 HD
ENDBRANCH  31  34
ENDBRANCH  21  31
BRANCH  24  36
ATOM     36  O   UNL     1      -3.698   6.516 130.183  0.00  0.00    +0.000 OA
ATOM     37  H   UNL     1      -3.659   7.499 130.150  0.00  0.00    +0.000 HD
ENDBRANCH  24  36
ENDBRANCH   1  20
BRANCH   8  38
ATOM     38  C   UNL     1      -7.910   0.034 125.783  0.00  0.00    +0.000 C 
ATOM     39  C   UNL     1      -8.825  -1.156 125.894  0.00  0.00    +0.000 C 
ENDBRANCH   8  38
BRANCH   8  40
ATOM     40  C   UNL     1      -5.574  -0.296 126.834  0.00  0.00    +0.000 C 
ATOM     41  C   UNL     1      -5.505  -1.738 127.301  0.00  0.00    +0.000 C 
ENDBRANCH   8  40
TORSDOF 12
ENDMDL
