MODEL 1
REMARK VINA RESULT:      -9.4      0.000      0.000
REMARK  Name = Pazopanib
REMARK  9 active torsions:
REMARK  status: ('A' for Active; 'I' for Inactive)
REMARK    1  A    between atoms: C_1  and  N_2
REMARK    2  A    between atoms: N_2  and  C_3
REMARK    3  A    between atoms: N_2  and  C_14
REMARK    4  A    between atoms: N_7  and  C_8
REMARK    5  A    between atoms: C_9  and  C_10
REMARK    6  A    between atoms: N_19  and  C_20
REMARK    7  A    between atoms: C_23  and  C_24
REMARK    8  A    between atoms: C_25  and  S_27
REMARK    9  A    between atoms: S_27  and  N_28
REMARK                            x       y       z     vdW  Elec       q    Type
REMARK                         _______ _______ _______ _____ _____    ______ ____
ROOT
ATOM      1  C   UNL     1      -7.368   3.443 129.607  0.00  0.00    +0.000 A 
ATOM      2  C   UNL     1      -7.179   2.114 129.931  0.00  0.00    +0.000 A 
ATOM      3  C   UNL     1      -8.014   1.599 130.890  0.00  0.00    +0.000 A 
ATOM      4  N   UNL     1      -9.120   2.230 131.324  0.00  0.00    +0.000 NA
ATOM      5  C   UNL     1      -9.328   3.458 130.832  0.00  0.00    +0.000 A 
ATOM      6  N   UNL     1     -10.558   4.074 131.087  0.00  0.00    +0.000 N 
ATOM      7  N   UNL     1      -8.418   4.117 130.092  0.00  0.00    +0.000 NA
ATOM      8  H   UNL     1     -11.166   3.543 131.686  0.00  0.00    +0.000 HD
ENDROOT
BRANCH   6   9
ATOM      9  C   UNL     1     -10.916   5.364 130.676  0.00  0.00    +0.000 A 
ATOM     10  C   UNL     1     -11.656   6.192 131.528  0.00  0.00    +0.000 A 
ATOM     11  C   UNL     1     -12.188   7.399 131.077  0.00  0.00    +0.000 A 
ATOM     12  C   UNL     1     -12.105   7.748 129.725  0.00  0.00    +0.000 A 
ATOM     13  C   UNL     1     -12.875   8.946 129.251  0.00  0.00    +0.000 C 
ATOM     14  C   UNL     1     -11.340   6.930 128.870  0.00  0.00    +0.000 A 
ATOM     15  C   UNL     1     -10.675   5.794 129.368  0.00  0.00    +0.000 A 
BRANCH  14  16
ATOM     16  S   UNL     1     -11.247   7.278 127.118  0.00  0.00    +0.000 S 
ATOM     17  O   UNL     1     -12.424   6.749 126.485  0.00  0.00    +0.000 OA
ATOM     18  O   UNL     1     -10.828   8.656 126.946  0.00  0.00    +0.000 OA
BRANCH  16  19
ATOM     19  N   UNL     1      -9.944   6.351 126.627  0.00  0.00    +0.000 NA
ATOM     20  H   UNL     1      -9.840   5.437 127.053  0.00  0.00    +0.000 HD
ATOM     21  H   UNL     1      -9.131   6.850 126.282  0.00  0.00    +0.000 HD
ENDBRANCH  16  19
ENDBRANCH  14  16
ENDBRANCH   6   9
BRANCH   1  23
ATOM     22  C   UNL     1      -5.381   4.829 129.435  0.00  0.00    +0.000 C 
ATOM     23  N   UNL     1      -6.453   4.098 128.756  0.00  0.00    +0.000 N 
BRANCH  23  24
ATOM     24  C   UNL     1      -6.486   4.063 127.345  0.00  0.00    +0.000 A 
ATOM     25  C   UNL     1      -7.720   3.737 126.706  0.00  0.00    +0.000 A 
ATOM     26  C   UNL     1      -7.656   3.616 125.307  0.00  0.00    +0.000 A 
ATOM     27  N   UNL     1      -8.608   3.301 124.410  0.00  0.00    +0.000 NA
ATOM     28  N   UNL     1      -7.978   3.310 123.213  0.00  0.00    +0.000 N 
ATOM     29  C   UNL     1      -8.721   3.003 122.011  0.00  0.00    +0.000 C 
ATOM     30  C   UNL     1      -6.641   3.625 123.285  0.00  0.00    +0.000 A 
ATOM     31  C   UNL     1      -5.734   3.697 122.117  0.00  0.00    +0.000 C 
ATOM     32  C   UNL     1      -6.414   3.834 124.621  0.00  0.00    +0.000 A 
ATOM     33  C   UNL     1      -5.193   4.180 125.187  0.00  0.00    +0.000 A 
ATOM     34  C   UNL     1      -5.286   4.290 126.588  0.00  0.00    +0.000 A 
ENDBRANCH  23  24
ENDBRANCH   1  23
TORSDOF 5
ENDMDL
MODEL 2
REMARK VINA RESULT:      -9.1      2.834      7.223
REMARK  Name = Pazopanib
REMARK  9 active torsions:
REMARK  status: ('A' for Active; 'I' for Inactive)
REMARK    1  A    between atoms: C_1  and  N_2
REMARK    2  A    between atoms: N_2  and  C_3
REMARK    3  A    between atoms: N_2  and  C_14
REMARK    4  A    between atoms: N_7  and  C_8
REMARK    5  A    between atoms: C_9  and  C_10
REMARK    6  A    between atoms: N_19  and  C_20
REMARK    7  A    between atoms: C_23  and  C_24
REMARK    8  A    between atoms: C_25  and  S_27
REMARK    9  A    between atoms: S_27  and  N_28
REMARK                            x       y       z     vdW  Elec       q    Type
REMARK                         _______ _______ _______ _____ _____    ______ ____
ROOT
ATOM      1  C   UNL     1      -5.833   5.544 130.561  0.00  0.00    +0.000 A 
ATOM      2  C   UNL     1      -5.194   6.723 130.889  0.00  0.00    +0.000 A 
ATOM      3  C   UNL     1      -4.067   7.023 130.166  0.00  0.00    +0.000 A 
ATOM      4  N   UNL     1      -3.718   6.379 129.037  0.00  0.00    +0.000 NA
ATOM      5  C   UNL     1      -4.491   5.341 128.689  0.00  0.00    +0.000 A 
ATOM      6  N   UNL     1      -4.300   4.767 127.429  0.00  0.00    +0.000 N 
ATOM      7  N   UNL     1      -5.451   4.840 129.488  0.00  0.00    +0.000 NA
ATOM      8  H   UNL     1      -3.535   5.162 126.910  0.00  0.00    +0.000 HD
ENDROOT
BRANCH   6   9
ATOM      9  C   UNL     1      -4.998   3.659 126.931  0.00  0.00    +0.000 A 
ATOM     10  C   UNL     1      -4.355   2.423 126.804  0.00  0.00    +0.000 A 
ATOM     11  C   UNL     1      -4.961   1.360 126.137  0.00  0.00    +0.000 A 
ATOM     12  C   UNL     1      -6.174   1.545 125.465  0.00  0.00    +0.000 A 
ATOM     13  C   UNL     1      -6.678   0.437 124.588  0.00  0.00    +0.000 C 
ATOM     14  C   UNL     1      -6.837   2.780 125.612  0.00  0.00    +0.000 A 
ATOM     15  C   UNL     1      -6.291   3.798 126.417  0.00  0.00    +0.000 A 
BRANCH  14  16
ATOM     16  S   UNL     1      -8.356   3.111 124.728  0.00  0.00    +0.000 S 
ATOM     17  O   UNL     1      -8.052   3.228 123.328  0.00  0.00    +0.000 OA
ATOM     18  O   UNL     1      -9.381   2.212 125.225  0.00  0.00    +0.000 OA
BRANCH  16  19
ATOM     19  N   UNL     1      -8.785   4.628 125.285  0.00  0.00    +0.000 NA
ATOM     20  H   UNL     1      -9.545   5.098 124.806  0.00  0.00    +0.000 HD
ATOM     21  H   UNL     1      -8.062   5.167 125.749  0.00  0.00    +0.000 HD
ENDBRANCH  16  19
ENDBRANCH  14  16
ENDBRANCH   6   9
BRANCH   1  23
ATOM     22  C   UNL     1      -6.520   4.142 132.421  0.00  0.00    +0.000 C 
ATOM     23  N   UNL     1      -6.898   5.075 131.358  0.00  0.00    +0.000 N 
BRANCH  23  24
ATOM     24  C   UNL     1      -8.249   5.463 131.220  0.00  0.00    +0.000 A 
ATOM     25  C   UNL     1      -8.823   5.457 129.913  0.00  0.00    +0.000 A 
ATOM     26  C   UNL     1     -10.135   5.955 129.833  0.00  0.00    +0.000 A 
ATOM     27  N   UNL     1     -10.950   6.113 128.775  0.00  0.00    +0.000 NA
ATOM     28  N   UNL     1     -12.081   6.654 129.282  0.00  0.00    +0.000 N 
ATOM     29  C   UNL     1     -13.185   6.963 128.399  0.00  0.00    +0.000 C 
ATOM     30  C   UNL     1     -12.047   6.857 130.642  0.00  0.00    +0.000 A 
ATOM     31  C   UNL     1     -13.156   7.438 131.430  0.00  0.00    +0.000 C 
ATOM     32  C   UNL     1     -10.808   6.406 131.019  0.00  0.00    +0.000 A 
ATOM     33  C   UNL     1     -10.310   6.408 132.316  0.00  0.00    +0.000 A 
ATOM     34  C   UNL     1      -8.993   5.908 132.365  0.00  0.00    +0.000 A 
ENDBRANCH  23  24
ENDBRANCH   1  23
TORSDOF 5
ENDMDL
MODEL 3
REMARK VINA RESULT:      -9.0      4.394      7.083
REMARK  Name = Pazopanib
REMARK  9 active torsions:
REMARK  status: ('A' for Active; 'I' for Inactive)
REMARK    1  A    between atoms: C_1  and  N_2
REMARK    2  A    between atoms: N_2  and  C_3
REMARK    3  A    between atoms: N_2  and  C_14
REMARK    4  A    between atoms: N_7  and  C_8
REMARK    5  A    between atoms: C_9  and  C_10
REMARK    6  A    between atoms: N_19  and  C_20
REMARK    7  A    between atoms: C_23  and  C_24
REMARK    8  A    between atoms: C_25  and  S_27
REMARK    9  A    between atoms: S_27  and  N_28
REMARK                            x       y       z     vdW  Elec       q    Type
REMARK                         _______ _______ _______ _____ _____    ______ ____
ROOT
ATOM      1  C   UNL     1      -7.917   3.412 132.356  0.00  0.00    +0.000 A 
ATOM      2  C   UNL     1      -8.674   2.302 132.671  0.00  0.00    +0.000 A 
ATOM      3  C   UNL     1      -8.150   1.087 132.307  0.00  0.00    +0.000 A 
ATOM      4  N   UNL     1      -6.877   0.921 131.904  0.00  0.00    +0.000 NA
ATOM      5  C   UNL     1      -6.148   2.038 131.783  0.00  0.00    +0.000 A 
ATOM      6  N   UNL     1      -4.772   1.911 131.568  0.00  0.00    +0.000 N 
ATOM      7  N   UNL     1      -6.675   3.273 131.875  0.00  0.00    +0.000 NA
ATOM      8  H   UNL     1      -4.460   0.961 131.461  0.00  0.00    +0.000 HD
ENDROOT
BRANCH   6   9
ATOM      9  C   UNL     1      -3.880   2.975 131.384  0.00  0.00    +0.000 A 
ATOM     10  C   UNL     1      -3.010   3.347 132.415  0.00  0.00    +0.000 A 
ATOM     11  C   UNL     1      -2.253   4.515 132.333  0.00  0.00    +0.000 A 
ATOM     12  C   UNL     1      -2.443   5.409 131.274  0.00  0.00    +0.000 A 
ATOM     13  C   UNL     1      -1.765   6.746 131.340  0.00  0.00    +0.000 C 
ATOM     14  C   UNL     1      -3.300   5.026 130.222  0.00  0.00    +0.000 A 
ATOM     15  C   UNL     1      -3.942   3.773 130.238  0.00  0.00    +0.000 A 
BRANCH  14  16
ATOM     16  S   UNL     1      -3.643   6.147 128.872  0.00  0.00    +0.000 S 
ATOM     17  O   UNL     1      -4.373   7.273 129.388  0.00  0.00    +0.000 OA
ATOM     18  O   UNL     1      -2.433   6.302 128.086  0.00  0.00    +0.000 OA
BRANCH  16  19
ATOM     19  N   UNL     1      -4.687   5.260 127.912  0.00  0.00    +0.000 NA
ATOM     20  H   UNL     1      -5.172   5.758 127.174  0.00  0.00    +0.000 HD
ATOM     21  H   UNL     1      -5.101   4.432 128.327  0.00  0.00    +0.000 HD
ENDBRANCH  16  19
ENDBRANCH  14  16
ENDBRANCH   6   9
BRANCH   1  23
ATOM     22  C   UNL     1      -8.021   5.387 133.766  0.00  0.00    +0.000 C 
ATOM     23  N   UNL     1      -8.450   4.705 132.543  0.00  0.00    +0.000 N 
BRANCH  23  24
ATOM     24  C   UNL     1      -9.310   5.368 131.641  0.00  0.00    +0.000 A 
ATOM     25  C   UNL     1      -8.970   5.364 130.255  0.00  0.00    +0.000 A 
ATOM     26  C   UNL     1      -9.810   6.131 129.430  0.00  0.00    +0.000 A 
ATOM     27  N   UNL     1      -9.763   6.363 128.106  0.00  0.00    +0.000 NA
ATOM     28  N   UNL     1     -10.806   7.188 127.858  0.00  0.00    +0.000 N 
ATOM     29  C   UNL     1     -11.050   7.648 126.509  0.00  0.00    +0.000 C 
ATOM     30  C   UNL     1     -11.545   7.509 128.972  0.00  0.00    +0.000 A 
ATOM     31  C   UNL     1     -12.730   8.396 128.965  0.00  0.00    +0.000 C 
ATOM     32  C   UNL     1     -10.928   6.833 129.993  0.00  0.00    +0.000 A 
ATOM     33  C   UNL     1     -11.322   6.850 131.326  0.00  0.00    +0.000 A 
ATOM     34  C   UNL     1     -10.461   6.077 132.129  0.00  0.00    +0.000 A 
ENDBRANCH  23  24
ENDBRANCH   1  23
TORSDOF 5
ENDMDL
MODEL 4
REMARK VINA RESULT:      -9.0      3.017      4.303
REMARK  Name = Pazopanib
REMARK  9 active torsions:
REMARK  status: ('A' for Active; 'I' for Inactive)
REMARK    1  A    between atoms: C_1  and  N_2
REMARK    2  A    between atoms: N_2  and  C_3
REMARK    3  A    between atoms: N_2  and  C_14
REMARK    4  A    between atoms: N_7  and  C_8
REMARK    5  A    between atoms: C_9  and  C_10
REMARK    6  A    between atoms: N_19  and  C_20
REMARK    7  A    between atoms: C_23  and  C_24
REMARK    8  A    between atoms: C_25  and  S_27
REMARK    9  A    between atoms: S_27  and  N_28
REMARK                            x       y       z     vdW  Elec       q    Type
REMARK                         _______ _______ _______ _____ _____    ______ ____
ROOT
ATOM      1  C   UNL     1      -4.064   5.000 128.253  0.00  0.00    +0.000 A 
ATOM      2  C   UNL     1      -2.838   5.476 127.831  0.00  0.00    +0.000 A 
ATOM      3  C   UNL     1      -2.517   6.753 128.218  0.00  0.00    +0.000 A 
ATOM      4  N   UNL     1      -3.199   7.435 129.155  0.00  0.00    +0.000 NA
ATOM      5  C   UNL     1      -4.291   6.832 129.644  0.00  0.00    +0.000 A 
ATOM      6  N   UNL     1      -4.918   7.400 130.758  0.00  0.00    +0.000 N 
ATOM      7  N   UNL     1      -4.800   5.701 129.124  0.00  0.00    +0.000 NA
ATOM      8  H   UNL     1      -4.511   8.268 131.059  0.00  0.00    +0.000 HD
ENDROOT
BRANCH   6   9
ATOM      9  C   UNL     1      -6.084   6.915 131.364  0.00  0.00    +0.000 A 
ATOM     10  C   UNL     1      -5.998   6.057 132.466  0.00  0.00    +0.000 A 
ATOM     11  C   UNL     1      -7.127   5.409 132.965  0.00  0.00    +0.000 A 
ATOM     12  C   UNL     1      -8.351   5.502 132.295  0.00  0.00    +0.000 A 
ATOM     13  C   UNL     1      -9.479   4.622 132.747  0.00  0.00    +0.000 C 
ATOM     14  C   UNL     1      -8.448   6.384 131.200  0.00  0.00    +0.000 A 
ATOM     15  C   UNL     1      -7.340   7.154 130.797  0.00  0.00    +0.000 A 
BRANCH  14  16
ATOM     16  S   UNL     1      -9.961   6.502 130.255  0.00  0.00    +0.000 S 
ATOM     17  O   UNL     1     -10.077   5.329 129.432  0.00  0.00    +0.000 OA
ATOM     18  O   UNL     1     -11.024   6.934 131.143  0.00  0.00    +0.000 OA
BRANCH  16  19
ATOM     19  N   UNL     1      -9.666   7.804 129.247  0.00  0.00    +0.000 NA
ATOM     20  H   UNL     1     -10.431   8.116 128.658  0.00  0.00    +0.000 HD
ATOM     21  H   UNL     1      -8.706   7.952 128.957  0.00  0.00    +0.000 HD
ENDBRANCH  16  19
ENDBRANCH  14  16
ENDBRANCH   6   9
BRANCH   1  23
ATOM     22  C   UNL     1      -4.020   2.580 128.445  0.00  0.00    +0.000 C 
ATOM     23  N   UNL     1      -4.546   3.767 127.767  0.00  0.00    +0.000 N 
BRANCH  23  24
ATOM     24  C   UNL     1      -5.493   3.614 126.731  0.00  0.00    +0.000 A 
ATOM     25  C   UNL     1      -6.697   2.904 127.016  0.00  0.00    +0.000 A 
ATOM     26  C   UNL     1      -7.546   2.697 125.915  0.00  0.00    +0.000 A 
ATOM     27  N   UNL     1      -8.725   2.057 125.826  0.00  0.00    +0.000 NA
ATOM     28  N   UNL     1      -9.076   2.151 124.522  0.00  0.00    +0.000 N 
ATOM     29  C   UNL     1     -10.313   1.553 124.070  0.00  0.00    +0.000 C 
ATOM     30  C   UNL     1      -8.172   2.836 123.745  0.00  0.00    +0.000 A 
ATOM     31  C   UNL     1      -8.325   3.070 122.292  0.00  0.00    +0.000 C 
ATOM     32  C   UNL     1      -7.184   3.204 124.622  0.00  0.00    +0.000 A 
ATOM     33  C   UNL     1      -6.042   3.924 124.293  0.00  0.00    +0.000 A 
ATOM     34  C   UNL     1      -5.210   4.112 125.414  0.00  0.00    +0.000 A 
ENDBRANCH  23  24
ENDBRANCH   1  23
TORSDOF 5
ENDMDL
MODEL 5
REMARK VINA RESULT:      -8.8      4.740      8.384
REMARK  Name = Pazopanib
REMARK  9 active torsions:
REMARK  status: ('A' for Active; 'I' for Inactive)
REMARK    1  A    between atoms: C_1  and  N_2
REMARK    2  A    between atoms: N_2  and  C_3
REMARK    3  A    between atoms: N_2  and  C_14
REMARK    4  A    between atoms: N_7  and  C_8
REMARK    5  A    between atoms: C_9  and  C_10
REMARK    6  A    between atoms: N_19  and  C_20
REMARK    7  A    between atoms: C_23  and  C_24
REMARK    8  A    between atoms: C_25  and  S_27
REMARK    9  A    between atoms: S_27  and  N_28
REMARK                            x       y       z     vdW  Elec       q    Type
REMARK                         _______ _______ _______ _____ _____    ______ ____
ROOT
ATOM      1  C   UNL     1      -7.655  -2.225 124.627  0.00  0.00    +0.000 A 
ATOM      2  C   UNL     1      -8.342  -3.237 123.987  0.00  0.00    +0.000 A 
ATOM      3  C   UNL     1      -9.481  -2.866 123.316  0.00  0.00    +0.000 A 
ATOM      4  N   UNL     1      -9.803  -1.586 123.055  0.00  0.00    +0.000 NA
ATOM      5  C   UNL     1      -8.988  -0.658 123.573  0.00  0.00    +0.000 A 
ATOM      6  N   UNL     1      -9.155   0.670 123.167  0.00  0.00    +0.000 N 
ATOM      7  N   UNL     1      -8.008  -0.946 124.449  0.00  0.00    +0.000 NA
ATOM      8  H   UNL     1      -9.936   0.815 122.551  0.00  0.00    +0.000 HD
ENDROOT
BRANCH   6   9
ATOM      9  C   UNL     1      -8.412   1.759 123.639  0.00  0.00    +0.000 A 
ATOM     10  C   UNL     1      -7.386   2.301 122.857  0.00  0.00    +0.000 A 
ATOM     11  C   UNL     1      -6.510   3.253 123.376  0.00  0.00    +0.000 A 
ATOM     12  C   UNL     1      -6.555   3.593 124.732  0.00  0.00    +0.000 A 
ATOM     13  C   UNL     1      -5.461   4.456 125.287  0.00  0.00    +0.000 C 
ATOM     14  C   UNL     1      -7.602   3.068 125.517  0.00  0.00    +0.000 A 
ATOM     15  C   UNL     1      -8.577   2.228 124.946  0.00  0.00    +0.000 A 
BRANCH  14  16
ATOM     16  S   UNL     1      -7.683   3.405 127.271  0.00  0.00    +0.000 S 
ATOM     17  O   UNL     1      -6.444   2.993 127.872  0.00  0.00    +0.000 OA
ATOM     18  O   UNL     1      -8.230   4.735 127.458  0.00  0.00    +0.000 OA
BRANCH  16  19
ATOM     19  N   UNL     1      -8.876   2.355 127.793  0.00  0.00    +0.000 NA
ATOM     20  H   UNL     1      -9.047   1.531 127.228  0.00  0.00    +0.000 HD
ATOM     21  H   UNL     1      -9.620   2.751 128.358  0.00  0.00    +0.000 HD
ENDBRANCH  16  19
ENDBRANCH  14  16
ENDBRANCH   6   9
BRANCH   1  23
ATOM     22  C   UNL     1      -5.327  -2.896 124.790  0.00  0.00    +0.000 C 
ATOM     23  N   UNL     1      -6.571  -2.537 125.474  0.00  0.00    +0.000 N 
BRANCH  23  24
ATOM     24  C   UNL     1      -6.601  -2.491 126.884  0.00  0.00    +0.000 A 
ATOM     25  C   UNL     1      -5.391  -2.186 127.577  0.00  0.00    +0.000 A 
ATOM     26  C   UNL     1      -5.467  -2.261 128.978  0.00  0.00    +0.000 A 
ATOM     27  N   UNL     1      -4.526  -2.065 129.919  0.00  0.00    +0.000 NA
ATOM     28  N   UNL     1      -5.154  -2.294 131.095  0.00  0.00    +0.000 N 
ATOM     29  C   UNL     1      -4.419  -2.173 132.335  0.00  0.00    +0.000 C 
ATOM     30  C   UNL     1      -6.481  -2.631 130.967  0.00  0.00    +0.000 A 
ATOM     31  C   UNL     1      -7.382  -2.933 132.102  0.00  0.00    +0.000 C 
ATOM     32  C   UNL     1      -6.706  -2.608 129.615  0.00  0.00    +0.000 A 
ATOM     33  C   UNL     1      -7.918  -2.886 128.994  0.00  0.00    +0.000 A 
ATOM     34  C   UNL     1      -7.811  -2.807 127.592  0.00  0.00    +0.000 A 
ENDBRANCH  23  24
ENDBRANCH   1  23
TORSDOF 5
ENDMDL
MODEL 6
REMARK VINA RESULT:      -8.8      4.450      8.033
REMARK  Name = Pazopanib
REMARK  9 active torsions:
REMARK  status: ('A' for Active; 'I' for Inactive)
REMARK    1  A    between atoms: C_1  and  N_2
REMARK    2  A    between atoms: N_2  and  C_3
REMARK    3  A    between atoms: N_2  and  C_14
REMARK    4  A    between atoms: N_7  and  C_8
REMARK    5  A    between atoms: C_9  and  C_10
REMARK    6  A    between atoms: N_19  and  C_20
REMARK    7  A    between atoms: C_23  and  C_24
REMARK    8  A    between atoms: C_25  and  S_27
REMARK    9  A    between atoms: S_27  and  N_28
REMARK                            x       y       z     vdW  Elec       q    Type
REMARK                         _______ _______ _______ _____ _____    ______ ____
ROOT
ATOM      1  C   UNL     1      -8.147  -0.748 123.708  0.00  0.00    +0.000 A 
ATOM      2  C   UNL     1      -9.094  -1.234 122.829  0.00  0.00    +0.000 A 
ATOM      3  C   UNL     1     -10.070  -0.351 122.440  0.00  0.00    +0.000 A 
ATOM      4  N   UNL     1     -10.003   0.973 122.667  0.00  0.00    +0.000 NA
ATOM      5  C   UNL     1      -8.956   1.394 123.389  0.00  0.00    +0.000 A 
ATOM      6  N   UNL     1      -8.726   2.770 123.482  0.00  0.00    +0.000 N 
ATOM      7  N   UNL     1      -8.110   0.555 124.014  0.00  0.00    +0.000 NA
ATOM      8  H   UNL     1      -9.427   3.334 123.032  0.00  0.00    +0.000 HD
ENDROOT
BRANCH   6   9
ATOM      9  C   UNL     1      -7.702   3.371 124.224  0.00  0.00    +0.000 A 
ATOM     10  C   UNL     1      -6.475   3.665 123.619  0.00  0.00    +0.000 A 
ATOM     11  C   UNL     1      -5.380   4.081 124.373  0.00  0.00    +0.000 A 
ATOM     12  C   UNL     1      -5.445   4.090 125.771  0.00  0.00    +0.000 A 
ATOM     13  C   UNL     1      -4.181   4.338 126.541  0.00  0.00    +0.000 C 
ATOM     14  C   UNL     1      -6.685   3.819 126.383  0.00  0.00    +0.000 A 
ATOM     15  C   UNL     1      -7.828   3.551 125.605  0.00  0.00    +0.000 A 
BRANCH  14  16
ATOM     16  S   UNL     1      -6.826   3.745 128.164  0.00  0.00    +0.000 S 
ATOM     17  O   UNL     1      -6.155   2.560 128.626  0.00  0.00    +0.000 OA
ATOM     18  O   UNL     1      -6.532   5.060 128.702  0.00  0.00    +0.000 OA
BRANCH  16  19
ATOM     19  N   UNL     1      -8.467   3.525 128.396  0.00  0.00    +0.000 NA
ATOM     20  H   UNL     1      -8.957   4.230 128.937  0.00  0.00    +0.000 HD
ATOM     21  H   UNL     1      -8.810   2.571 128.372  0.00  0.00    +0.000 HD
ENDBRANCH  16  19
ENDBRANCH  14  16
ENDBRANCH   6   9
BRANCH   1  23
ATOM     22  C   UNL     1      -6.296  -2.277 123.343  0.00  0.00    +0.000 C 
ATOM     23  N   UNL     1      -7.207  -1.626 124.287  0.00  0.00    +0.000 N 
BRANCH  23  24
ATOM     24  C   UNL     1      -7.074  -1.878 125.670  0.00  0.00    +0.000 A 
ATOM     25  C   UNL     1      -5.765  -1.847 126.239  0.00  0.00    +0.000 A 
ATOM     26  C   UNL     1      -5.693  -2.211 127.595  0.00  0.00    +0.000 A 
ATOM     27  N   UNL     1      -4.636  -2.313 128.420  0.00  0.00    +0.000 NA
ATOM     28  N   UNL     1      -5.153  -2.723 129.601  0.00  0.00    +0.000 N 
ATOM     29  C   UNL     1      -4.274  -2.941 130.729  0.00  0.00    +0.000 C 
ATOM     30  C   UNL     1      -6.517  -2.893 129.589  0.00  0.00    +0.000 A 
ATOM     31  C   UNL     1      -7.316  -3.339 130.752  0.00  0.00    +0.000 C 
ATOM     32  C   UNL     1      -6.887  -2.561 128.311  0.00  0.00    +0.000 A 
ATOM     33  C   UNL     1      -8.186  -2.581 127.817  0.00  0.00    +0.000 A 
ATOM     34  C   UNL     1      -8.227  -2.216 126.457  0.00  0.00    +0.000 A 
ENDBRANCH  23  24
ENDBRANCH   1  23
TORSDOF 5
ENDMDL
MODEL 7
REMARK VINA RESULT:      -8.7      2.092      2.883
REMARK  Name = Pazopanib
REMARK  9 active torsions:
REMARK  status: ('A' for Active; 'I' for Inactive)
REMARK    1  A    between atoms: C_1  and  N_2
REMARK    2  A    between atoms: N_2  and  C_3
REMARK    3  A    between atoms: N_2  and  C_14
REMARK    4  A    between atoms: N_7  and  C_8
REMARK    5  A    between atoms: C_9  and  C_10
REMARK    6  A    between atoms: N_19  and  C_20
REMARK    7  A    between atoms: C_23  and  C_24
REMARK    8  A    between atoms: C_25  and  S_27
REMARK    9  A    between atoms: S_27  and  N_28
REMARK                            x       y       z     vdW  Elec       q    Type
REMARK                         _______ _______ _______ _____ _____    ______ ____
ROOT
ATOM      1  C   UNL     1      -7.334   4.110 131.846  0.00  0.00    +0.000 A 
ATOM      2  C   UNL     1      -7.206   2.815 132.306  0.00  0.00    +0.000 A 
ATOM      3  C   UNL     1      -8.349   2.225 132.784  0.00  0.00    +0.000 A 
ATOM      4  N   UNL     1      -9.579   2.738 132.600  0.00  0.00    +0.000 NA
ATOM      5  C   UNL     1      -9.634   3.930 131.991  0.00  0.00    +0.000 A 
ATOM      6  N   UNL     1     -10.885   4.412 131.593  0.00  0.00    +0.000 N 
ATOM      7  N   UNL     1      -8.544   4.673 131.731  0.00  0.00    +0.000 NA
ATOM      8  H   UNL     1     -11.656   3.827 131.864  0.00  0.00    +0.000 HD
ENDROOT
BRANCH   6   9
ATOM      9  C   UNL     1     -11.116   5.650 130.980  0.00  0.00    +0.000 A 
ATOM     10  C   UNL     1     -11.983   6.576 131.572  0.00  0.00    +0.000 A 
ATOM     11  C   UNL     1     -12.380   7.728 130.894  0.00  0.00    +0.000 A 
ATOM     12  C   UNL     1     -12.022   7.920 129.555  0.00  0.00    +0.000 A 
ATOM     13  C   UNL     1     -12.647   9.062 128.809  0.00  0.00    +0.000 C 
ATOM     14  C   UNL     1     -11.130   7.004 128.964  0.00  0.00    +0.000 A 
ATOM     15  C   UNL     1     -10.610   5.926 129.706  0.00  0.00    +0.000 A 
BRANCH  14  16
ATOM     16  S   UNL     1     -10.684   7.149 127.238  0.00  0.00    +0.000 S 
ATOM     17  O   UNL     1     -10.590   8.544 126.908  0.00  0.00    +0.000 OA
ATOM     18  O   UNL     1      -9.610   6.213 126.962  0.00  0.00    +0.000 OA
BRANCH  16  19
ATOM     19  N   UNL     1     -12.027   6.529 126.457  0.00  0.00    +0.000 NA
ATOM     20  H   UNL     1     -12.936   6.840 126.783  0.00  0.00    +0.000 HD
ATOM     21  H   UNL     1     -11.925   5.620 126.020  0.00  0.00    +0.000 HD
ENDBRANCH  16  19
ENDBRANCH  14  16
ENDBRANCH   6   9
BRANCH   1  23
ATOM     22  C   UNL     1      -5.735   5.821 132.490  0.00  0.00    +0.000 C 
ATOM     23  N   UNL     1      -6.186   4.849 131.492  0.00  0.00    +0.000 N 
BRANCH  23  24
ATOM     24  C   UNL     1      -5.454   4.690 130.295  0.00  0.00    +0.000 A 
ATOM     25  C   UNL     1      -6.146   4.833 129.055  0.00  0.00    +0.000 A 
ATOM     26  C   UNL     1      -5.383   4.558 127.908  0.00  0.00    +0.000 A 
ATOM     27  N   UNL     1      -5.722   4.570 126.606  0.00  0.00    +0.000 NA
ATOM     28  N   UNL     1      -4.599   4.202 125.948  0.00  0.00    +0.000 N 
ATOM     29  C   UNL     1      -4.613   4.106 124.505  0.00  0.00    +0.000 C 
ATOM     30  C   UNL     1      -3.525   3.949 126.769  0.00  0.00    +0.000 A 
ATOM     31  C   UNL     1      -2.188   3.528 126.293  0.00  0.00    +0.000 C 
ATOM     32  C   UNL     1      -4.004   4.180 128.033  0.00  0.00    +0.000 A 
ATOM     33  C   UNL     1      -3.273   4.052 129.208  0.00  0.00    +0.000 A 
ATOM     34  C   UNL     1      -4.064   4.331 130.341  0.00  0.00    +0.000 A 
ENDBRANCH  23  24
ENDBRANCH   1  23
TORSDOF 5
ENDMDL
MODEL 8
REMARK VINA RESULT:      -8.5      3.359      6.173
REMARK  Name = Pazopanib
REMARK  9 active torsions:
REMARK  status: ('A' for Active; 'I' for Inactive)
REMARK    1  A    between atoms: C_1  and  N_2
REMARK    2  A    between atoms: N_2  and  C_3
REMARK    3  A    between atoms: N_2  and  C_14
REMARK    4  A    between atoms: N_7  and  C_8
REMARK    5  A    between atoms: C_9  and  C_10
REMARK    6  A    between atoms: N_19  and  C_20
REMARK    7  A    between atoms: C_23  and  C_24
REMARK    8  A    between atoms: C_25  and  S_27
REMARK    9  A    between atoms: S_27  and  N_28
REMARK                            x       y       z     vdW  Elec       q    Type
REMARK                         _______ _______ _______ _____ _____    ______ ____
ROOT
ATOM      1  C   UNL     1      -5.289   3.960 129.272  0.00  0.00    +0.000 A 
ATOM      2  C   UNL     1      -4.820   2.672 129.110  0.00  0.00    +0.000 A 
ATOM      3  C   UNL     1      -5.586   1.674 129.658  0.00  0.00    +0.000 A 
ATOM      4  N   UNL     1      -6.842   1.865 130.102  0.00  0.00    +0.000 NA
ATOM      5  C   UNL     1      -7.291   3.127 130.071  0.00  0.00    +0.000 A 
ATOM      6  N   UNL     1      -8.648   3.353 130.326  0.00  0.00    +0.000 N 
ATOM      7  N   UNL     1      -6.504   4.180 129.789  0.00  0.00    +0.000 NA
ATOM      8  H   UNL     1      -9.161   2.525 130.577  0.00  0.00    +0.000 HD
ENDROOT
BRANCH   6   9
ATOM      9  C   UNL     1      -9.264   4.609 130.367  0.00  0.00    +0.000 A 
ATOM     10  C   UNL     1      -9.809   5.086 131.565  0.00  0.00    +0.000 A 
ATOM     11  C   UNL     1     -10.593   6.238 131.592  0.00  0.00    +0.000 A 
ATOM     12  C   UNL     1     -10.960   6.873 130.401  0.00  0.00    +0.000 A 
ATOM     13  C   UNL     1     -11.974   7.978 130.466  0.00  0.00    +0.000 C 
ATOM     14  C   UNL     1     -10.393   6.412 129.196  0.00  0.00    +0.000 A 
ATOM     15  C   UNL     1      -9.478   5.342 129.195  0.00  0.00    +0.000 A 
BRANCH  14  16
ATOM     16  S   UNL     1     -10.869   7.131 127.630  0.00  0.00    +0.000 S 
ATOM     17  O   UNL     1     -12.203   6.696 127.315  0.00  0.00    +0.000 OA
ATOM     18  O   UNL     1     -10.493   8.533 127.635  0.00  0.00    +0.000 OA
BRANCH  16  19
ATOM     19  N   UNL     1      -9.825   6.394 126.551  0.00  0.00    +0.000 NA
ATOM     20  H   UNL     1      -9.450   5.489 126.816  0.00  0.00    +0.000 HD
ATOM     21  H   UNL     1      -9.302   7.001 125.930  0.00  0.00    +0.000 HD
ENDBRANCH  16  19
ENDBRANCH  14  16
ENDBRANCH   6   9
BRANCH   1  23
ATOM     22  C   UNL     1      -4.421   5.308 127.448  0.00  0.00    +0.000 C 
ATOM     23  N   UNL     1      -4.486   5.055 128.889  0.00  0.00    +0.000 N 
BRANCH  23  24
ATOM     24  C   UNL     1      -3.798   5.910 129.777  0.00  0.00    +0.000 A 
ATOM     25  C   UNL     1      -2.655   5.396 130.460  0.00  0.00    +0.000 A 
ATOM     26  C   UNL     1      -2.082   6.263 131.406  0.00  0.00    +0.000 A 
ATOM     27  N   UNL     1      -1.032   6.091 132.229  0.00  0.00    +0.000 NA
ATOM     28  N   UNL     1      -0.948   7.244 132.933  0.00  0.00    +0.000 N 
ATOM     29  C   UNL     1       0.088   7.399 133.930  0.00  0.00    +0.000 C 
ATOM     30  C   UNL     1      -1.904   8.175 132.603  0.00  0.00    +0.000 A 
ATOM     31  C   UNL     1      -2.026   9.509 133.231  0.00  0.00    +0.000 C 
ATOM     32  C   UNL     1      -2.639   7.569 131.616  0.00  0.00    +0.000 A 
ATOM     33  C   UNL     1      -3.729   8.130 130.963  0.00  0.00    +0.000 A 
ATOM     34  C   UNL     1      -4.284   7.239 130.024  0.00  0.00    +0.000 A 
ENDBRANCH  23  24
ENDBRANCH   1  23
TORSDOF 5
ENDMDL
MODEL 9
REMARK VINA RESULT:      -8.4      4.539      6.557
REMARK  Name = Pazopanib
REMARK  9 active torsions:
REMARK  status: ('A' for Active; 'I' for Inactive)
REMARK    1  A    between atoms: C_1  and  N_2
REMARK    2  A    between atoms: N_2  and  C_3
REMARK    3  A    between atoms: N_2  and  C_14
REMARK    4  A    between atoms: N_7  and  C_8
REMARK    5  A    between atoms: C_9  and  C_10
REMARK    6  A    between atoms: N_19  and  C_20
REMARK    7  A    between atoms: C_23  and  C_24
REMARK    8  A    between atoms: C_25  and  S_27
REMARK    9  A    between atoms: S_27  and  N_28
REMARK                            x       y       z     vdW  Elec       q    Type
REMARK                         _______ _______ _______ _____ _____    ______ ____
ROOT
ATOM      1  C   UNL     1      -7.032  -1.482 130.485  0.00  0.00    +0.000 A 
ATOM      2  C   UNL     1      -7.591  -1.581 131.743  0.00  0.00    +0.000 A 
ATOM      3  C   UNL     1      -7.580  -0.439 132.503  0.00  0.00    +0.000 A 
ATOM      4  N   UNL     1      -7.292   0.778 132.006  0.00  0.00    +0.000 NA
ATOM      5  C   UNL     1      -6.917   0.815 130.721  0.00  0.00    +0.000 A 
ATOM      6  N   UNL     1      -6.806   2.062 130.099  0.00  0.00    +0.000 N 
ATOM      7  N   UNL     1      -6.661  -0.291 129.998  0.00  0.00    +0.000 NA
ATOM      8  H   UNL     1      -6.964   2.842 130.714  0.00  0.00    +0.000 HD
ENDROOT
BRANCH   6   9
ATOM      9  C   UNL     1      -6.392   2.273 128.778  0.00  0.00    +0.000 A 
ATOM     10  C   UNL     1      -5.171   2.906 128.517  0.00  0.00    +0.000 A 
ATOM     11  C   UNL     1      -4.826   3.300 127.225  0.00  0.00    +0.000 A 
ATOM     12  C   UNL     1      -5.748   3.188 126.180  0.00  0.00    +0.000 A 
ATOM     13  C   UNL     1      -5.410   3.818 124.861  0.00  0.00    +0.000 C 
ATOM     14  C   UNL     1      -6.968   2.529 126.433  0.00  0.00    +0.000 A 
ATOM     15  C   UNL     1      -7.245   1.995 127.706  0.00  0.00    +0.000 A 
BRANCH  14  16
ATOM     16  S   UNL     1      -8.222   2.410 125.164  0.00  0.00    +0.000 S 
ATOM     17  O   UNL     1      -8.820   3.706 124.991  0.00  0.00    +0.000 OA
ATOM     18  O   UNL     1      -7.677   1.655 124.051  0.00  0.00    +0.000 OA
BRANCH  16  19
ATOM     19  N   UNL     1      -9.364   1.411 125.865  0.00  0.00    +0.000 NA
ATOM     20  H   UNL     1      -9.776   1.721 126.739  0.00  0.00    +0.000 HD
ATOM     21  H   UNL     1      -9.300   0.421 125.653  0.00  0.00    +0.000 HD
ENDBRANCH  16  19
ENDBRANCH  14  16
ENDBRANCH   6   9
BRANCH   1  23
ATOM     22  C   UNL     1      -6.272  -3.788 130.405  0.00  0.00    +0.000 C 
ATOM     23  N   UNL     1      -6.851  -2.641 129.701  0.00  0.00    +0.000 N 
BRANCH  23  24
ATOM     24  C   UNL     1      -7.212  -2.768 128.342  0.00  0.00    +0.000 A 
ATOM     25  C   UNL     1      -6.326  -2.242 127.355  0.00  0.00    +0.000 A 
ATOM     26  C   UNL     1      -6.796  -2.307 126.032  0.00  0.00    +0.000 A 
ATOM     27  N   UNL     1      -6.238  -1.888 124.882  0.00  0.00    +0.000 NA
ATOM     28  N   UNL     1      -7.145  -2.187 123.924  0.00  0.00    +0.000 N 
ATOM     29  C   UNL     1      -6.862  -1.861 122.543  0.00  0.00    +0.000 C 
ATOM     30  C   UNL     1      -8.284  -2.795 124.398  0.00  0.00    +0.000 A 
ATOM     31  C   UNL     1      -9.423  -3.216 123.552  0.00  0.00    +0.000 C 
ATOM     32  C   UNL     1      -8.077  -2.890 125.750  0.00  0.00    +0.000 A 
ATOM     33  C   UNL     1      -8.967  -3.441 126.665  0.00  0.00    +0.000 A 
ATOM     34  C   UNL     1      -8.472  -3.359 127.981  0.00  0.00    +0.000 A 
ENDBRANCH  23  24
ENDBRANCH   1  23
TORSDOF 5
ENDMDL
