MODEL 1
REMARK VINA RESULT:      -6.6      0.000      0.000
REMARK  Name = PBT-434
REMARK  6 active torsions:
REMARK  status: ('A' for Active; 'I' for Inactive)
REMARK    1  A    between atoms: C_1  and  C_2
REMARK    2  A    between atoms: C_2  and  N_3
REMARK    3  A    between atoms: N_3  and  C_4
REMARK    4  A    between atoms: C_4  and  C_5
REMARK    5  A    between atoms: C_14  and  O_15
REMARK    6  A    between atoms: N_18  and  C_19
REMARK                            x       y       z     vdW  Elec       q    Type
REMARK                         _______ _______ _______ _____ _____    ______ ____
ROOT
ATOM      1  C   UNL     1      -9.674   7.225 130.203  0.00  0.00    +0.000 A 
ATOM      2  N   UNL     1      -8.390   7.413 130.153  0.00  0.00    +0.000 NA
ATOM      3  C   UNL     1      -7.560   6.839 131.137  0.00  0.00    +0.000 A 
ATOM      4  C   UNL     1      -8.091   6.083 132.194  0.00  0.00    +0.000 A 
ATOM      5  C   UNL     1      -7.250   5.556 133.192  0.00  0.00    +0.000 A 
ATOM      6 CL   UNL     1      -7.787   4.616 134.542  0.00  0.00    +0.000 Cl
ATOM      7  C   UNL     1      -5.875   5.783 133.139  0.00  0.00    +0.000 A 
ATOM      8  C   UNL     1      -5.333   6.523 132.098  0.00  0.00    +0.000 A 
ATOM      9 CL   UNL     1      -3.628   6.783 132.073  0.00  0.00    +0.000 Cl
ATOM     10  C   UNL     1      -6.163   7.048 131.099  0.00  0.00    +0.000 A 
ATOM     11  C   UNL     1      -9.551   5.878 132.198  0.00  0.00    +0.000 A 
ATOM     12  O   UNL     1     -10.090   5.230 133.095  0.00  0.00    +0.000 OA
ATOM     13  N   UNL     1     -10.286   6.439 131.166  0.00  0.00    +0.000 N 
ATOM     14  C   UNL     1     -11.716   6.140 131.167  0.00  0.00    +0.000 C 
ENDROOT
BRANCH  10  15
ATOM     15  O   UNL     1      -5.620   7.783 130.070  0.00  0.00    +0.000 OA
ATOM     16  H   UNL     1      -5.543   8.711 130.358  0.00  0.00    +0.000 HD
ENDBRANCH  10  15
BRANCH   1  17
ATOM     17  C   UNL     1     -10.574   7.924 129.171  0.00  0.00    +0.000 C 
BRANCH  17  18
ATOM     18  N   UNL     1     -10.197   7.469 127.824  0.00  0.00    +0.000 NA
ATOM     19  H   UNL     1      -9.367   7.943 127.488  0.00  0.00    +0.000 HD
BRANCH  18  21
ATOM     20  C   UNL     1     -12.597   7.330 127.537  0.00  0.00    +0.000 C 
ATOM     21  C   UNL     1     -11.273   7.664 126.863  0.00  0.00    +0.000 C 
ENDBRANCH  18  21
ENDBRANCH  17  18
ENDBRANCH   1  17
TORSDOF 4
ENDMDL
MODEL 2
REMARK VINA RESULT:      -6.5      2.807      4.493
REMARK  Name = PBT-434
REMARK  6 active torsions:
REMARK  status: ('A' for Active; 'I' for Inactive)
REMARK    1  A    between atoms: C_1  and  C_2
REMARK    2  A    between atoms: C_2  and  N_3
REMARK    3  A    between atoms: N_3  and  C_4
REMARK    4  A    between atoms: C_4  and  C_5
REMARK    5  A    between atoms: C_14  and  O_15
REMARK    6  A    between atoms: N_18  and  C_19
REMARK                            x       y       z     vdW  Elec       q    Type
REMARK                         _______ _______ _______ _____ _____    ______ ____
ROOT
ATOM      1  C   UNL     1     -11.838   7.608 128.961  0.00  0.00    +0.000 A 
ATOM      2  N   UNL     1     -11.658   7.165 130.169  0.00  0.00    +0.000 NA
ATOM      3  C   UNL     1     -10.602   6.270 130.436  0.00  0.00    +0.000 A 
ATOM      4  C   UNL     1      -9.746   5.822 129.418  0.00  0.00    +0.000 A 
ATOM      5  C   UNL     1      -8.726   4.894 129.697  0.00  0.00    +0.000 A 
ATOM      6 CL   UNL     1      -7.615   4.266 128.527  0.00  0.00    +0.000 Cl
ATOM      7  C   UNL     1      -8.556   4.408 130.993  0.00  0.00    +0.000 A 
ATOM      8  C   UNL     1      -9.391   4.845 132.012  0.00  0.00    +0.000 A 
ATOM      9 CL   UNL     1      -9.149   4.217 133.600  0.00  0.00    +0.000 Cl
ATOM     10  C   UNL     1     -10.407   5.772 131.744  0.00  0.00    +0.000 A 
ATOM     11  C   UNL     1      -9.974   6.369 128.068  0.00  0.00    +0.000 A 
ATOM     12  O   UNL     1      -9.266   6.019 127.123  0.00  0.00    +0.000 OA
ATOM     13  N   UNL     1     -11.006   7.279 127.904  0.00  0.00    +0.000 N 
ATOM     14  C   UNL     1     -11.140   7.855 126.568  0.00  0.00    +0.000 C 
ENDROOT
BRANCH  10  15
ATOM     15  O   UNL     1     -11.232   6.200 132.759  0.00  0.00    +0.000 OA
ATOM     16  H   UNL     1     -10.885   7.043 133.106  0.00  0.00    +0.000 HD
ENDBRANCH  10  15
BRANCH   1  17
ATOM     17  C   UNL     1     -13.042   8.519 128.669  0.00  0.00    +0.000 C 
BRANCH  17  18
ATOM     18  N   UNL     1     -12.673   9.910 128.972  0.00  0.00    +0.000 NA
ATOM     19  H   UNL     1     -11.670  10.019 129.071  0.00  0.00    +0.000 HD
BRANCH  18  21
ATOM     20  C   UNL     1     -13.756  11.837 129.960  0.00  0.00    +0.000 C 
ATOM     21  C   UNL     1     -13.322  10.394 130.182  0.00  0.00    +0.000 C 
ENDBRANCH  18  21
ENDBRANCH  17  18
ENDBRANCH   1  17
TORSDOF 4
ENDMDL
MODEL 3
REMARK VINA RESULT:      -6.5      3.353      5.627
REMARK  Name = PBT-434
REMARK  6 active torsions:
REMARK  status: ('A' for Active; 'I' for Inactive)
REMARK    1  A    between atoms: C_1  and  C_2
REMARK    2  A    between atoms: C_2  and  N_3
REMARK    3  A    between atoms: N_3  and  C_4
REMARK    4  A    between atoms: C_4  and  C_5
REMARK    5  A    between atoms: C_14  and  O_15
REMARK    6  A    between atoms: N_18  and  C_19
REMARK                            x       y       z     vdW  Elec       q    Type
REMARK                         _______ _______ _______ _____ _____    ______ ____
ROOT
ATOM      1  C   UNL     1      -8.060   5.684 130.522  0.00  0.00    +0.000 A 
ATOM      2  N   UNL     1      -8.569   5.898 129.347  0.00  0.00    +0.000 NA
ATOM      3  C   UNL     1      -9.882   6.396 129.232  0.00  0.00    +0.000 A 
ATOM      4  C   UNL     1     -10.672   6.647 130.365  0.00  0.00    +0.000 A 
ATOM      5  C   UNL     1     -11.997   7.101 130.229  0.00  0.00    +0.000 A 
ATOM      6 CL   UNL     1     -13.066   7.439 131.548  0.00  0.00    +0.000 Cl
ATOM      7  C   UNL     1     -12.539   7.306 128.961  0.00  0.00    +0.000 A 
ATOM      8  C   UNL     1     -11.770   7.068 127.831  0.00  0.00    +0.000 A 
ATOM      9 CL   UNL     1     -12.481   7.331 126.281  0.00  0.00    +0.000 Cl
ATOM     10  C   UNL     1     -10.449   6.619 127.957  0.00  0.00    +0.000 A 
ATOM     11  C   UNL     1     -10.046   6.411 131.679  0.00  0.00    +0.000 A 
ATOM     12  O   UNL     1     -10.677   6.604 132.718  0.00  0.00    +0.000 OA
ATOM     13  N   UNL     1      -8.734   5.964 131.699  0.00  0.00    +0.000 N 
ATOM     14  C   UNL     1      -8.130   5.824 133.023  0.00  0.00    +0.000 C 
ENDROOT
BRANCH  10  15
ATOM     15  O   UNL     1      -9.692   6.384 126.832  0.00  0.00    +0.000 OA
ATOM     16  H   UNL     1     -10.266   5.990 126.149  0.00  0.00    +0.000 HD
ENDBRANCH  10  15
BRANCH   1  17
ATOM     17  C   UNL     1      -6.657   5.064 130.630  0.00  0.00    +0.000 C 
BRANCH  17  18
ATOM     18  N   UNL     1      -5.689   5.956 129.974  0.00  0.00    +0.000 NA
ATOM     19  H   UNL     1      -4.823   5.477 129.761  0.00  0.00    +0.000 HD
BRANCH  18  21
ATOM     20  C   UNL     1      -4.286   7.925 130.106  0.00  0.00    +0.000 C 
ATOM     21  C   UNL     1      -5.393   7.128 130.785  0.00  0.00    +0.000 C 
ENDBRANCH  18  21
ENDBRANCH  17  18
ENDBRANCH   1  17
TORSDOF 4
ENDMDL
MODEL 4
REMARK VINA RESULT:      -6.1      9.401     10.270
REMARK  Name = PBT-434
REMARK  6 active torsions:
REMARK  status: ('A' for Active; 'I' for Inactive)
REMARK    1  A    between atoms: C_1  and  C_2
REMARK    2  A    between atoms: C_2  and  N_3
REMARK    3  A    between atoms: N_3  and  C_4
REMARK    4  A    between atoms: C_4  and  C_5
REMARK    5  A    between atoms: C_14  and  O_15
REMARK    6  A    between atoms: N_18  and  C_19
REMARK                            x       y       z     vdW  Elec       q    Type
REMARK                         _______ _______ _______ _____ _____    ______ ____
ROOT
ATOM      1  C   UNL     1      -7.385   2.154 124.269  0.00  0.00    +0.000 A 
ATOM      2  N   UNL     1      -8.216   1.272 123.801  0.00  0.00    +0.000 NA
ATOM      3  C   UNL     1      -8.062  -0.087 124.144  0.00  0.00    +0.000 A 
ATOM      4  C   UNL     1      -7.011  -0.520 124.966  0.00  0.00    +0.000 A 
ATOM      5  C   UNL     1      -6.847  -1.886 125.261  0.00  0.00    +0.000 A 
ATOM      6 CL   UNL     1      -5.589  -2.540 126.255  0.00  0.00    +0.000 Cl
ATOM      7  C   UNL     1      -7.732  -2.826 124.735  0.00  0.00    +0.000 A 
ATOM      8  C   UNL     1      -8.781  -2.414 123.924  0.00  0.00    +0.000 A 
ATOM      9 CL   UNL     1      -9.851  -3.609 123.291  0.00  0.00    +0.000 Cl
ATOM     10  C   UNL     1      -8.953  -1.055 123.629  0.00  0.00    +0.000 A 
ATOM     11  C   UNL     1      -6.106   0.518 125.493  0.00  0.00    +0.000 A 
ATOM     12  O   UNL     1      -5.157   0.214 126.216  0.00  0.00    +0.000 OA
ATOM     13  N   UNL     1      -6.358   1.835 125.142  0.00  0.00    +0.000 N 
ATOM     14  C   UNL     1      -5.485   2.835 125.753  0.00  0.00    +0.000 C 
ENDROOT
BRANCH  10  15
ATOM     15  O   UNL     1      -9.994  -0.653 122.824  0.00  0.00    +0.000 OA
ATOM     16  H   UNL     1     -10.329   0.201 123.154  0.00  0.00    +0.000 HD
ENDBRANCH  10  15
BRANCH   1  17
ATOM     17  C   UNL     1      -7.517   3.619 123.822  0.00  0.00    +0.000 C 
BRANCH  17  18
ATOM     18  N   UNL     1      -7.232   3.706 122.382  0.00  0.00    +0.000 NA
ATOM     19  H   UNL     1      -7.587   2.901 121.880  0.00  0.00    +0.000 HD
BRANCH  18  21
ATOM     20  C   UNL     1      -5.590   3.852 120.610  0.00  0.00    +0.000 C 
ATOM     21  C   UNL     1      -5.806   3.836 122.117  0.00  0.00    +0.000 C 
ENDBRANCH  18  21
ENDBRANCH  17  18
ENDBRANCH   1  17
TORSDOF 4
ENDMDL
MODEL 5
REMARK VINA RESULT:      -6.1      2.489      2.885
REMARK  Name = PBT-434
REMARK  6 active torsions:
REMARK  status: ('A' for Active; 'I' for Inactive)
REMARK    1  A    between atoms: C_1  and  C_2
REMARK    2  A    between atoms: C_2  and  N_3
REMARK    3  A    between atoms: N_3  and  C_4
REMARK    4  A    between atoms: C_4  and  C_5
REMARK    5  A    between atoms: C_14  and  O_15
REMARK    6  A    between atoms: N_18  and  C_19
REMARK                            x       y       z     vdW  Elec       q    Type
REMARK                         _______ _______ _______ _____ _____    ______ ____
ROOT
ATOM      1  C   UNL     1     -11.558   6.583 129.418  0.00  0.00    +0.000 A 
ATOM      2  N   UNL     1     -10.567   6.014 128.800  0.00  0.00    +0.000 NA
ATOM      3  C   UNL     1      -9.454   5.557 129.534  0.00  0.00    +0.000 A 
ATOM      4  C   UNL     1      -9.375   5.724 130.925  0.00  0.00    +0.000 A 
ATOM      5  C   UNL     1      -8.235   5.302 131.634  0.00  0.00    +0.000 A 
ATOM      6 CL   UNL     1      -8.021   5.458 133.345  0.00  0.00    +0.000 Cl
ATOM      7  C   UNL     1      -7.168   4.712 130.957  0.00  0.00    +0.000 A 
ATOM      8  C   UNL     1      -7.233   4.535 129.582  0.00  0.00    +0.000 A 
ATOM      9 CL   UNL     1      -5.890   3.804 128.783  0.00  0.00    +0.000 Cl
ATOM     10  C   UNL     1      -8.366   4.949 128.869  0.00  0.00    +0.000 A 
ATOM     11  C   UNL     1     -10.532   6.354 131.587  0.00  0.00    +0.000 A 
ATOM     12  O   UNL     1     -10.533   6.539 132.805  0.00  0.00    +0.000 OA
ATOM     13  N   UNL     1     -11.604   6.732 130.795  0.00  0.00    +0.000 N 
ATOM     14  C   UNL     1     -12.760   7.276 131.504  0.00  0.00    +0.000 C 
ENDROOT
BRANCH  10  15
ATOM     15  O   UNL     1      -8.422   4.771 127.506  0.00  0.00    +0.000 OA
ATOM     16  H   UNL     1      -7.634   5.184 127.106  0.00  0.00    +0.000 HD
ENDBRANCH  10  15
BRANCH   1  17
ATOM     17  C   UNL     1     -12.728   7.149 128.597  0.00  0.00    +0.000 C 
BRANCH  17  18
ATOM     18  N   UNL     1     -12.415   8.533 128.210  0.00  0.00    +0.000 NA
ATOM     19  H   UNL     1     -11.610   8.889 128.712  0.00  0.00    +0.000 HD
BRANCH  18  21
ATOM     20  C   UNL     1     -13.231  10.322 129.621  0.00  0.00    +0.000 C 
ATOM     21  C   UNL     1     -13.543   9.427 128.430  0.00  0.00    +0.000 C 
ENDBRANCH  18  21
ENDBRANCH  17  18
ENDBRANCH   1  17
TORSDOF 4
ENDMDL
MODEL 6
REMARK VINA RESULT:      -5.8      4.066      5.677
REMARK  Name = PBT-434
REMARK  6 active torsions:
REMARK  status: ('A' for Active; 'I' for Inactive)
REMARK    1  A    between atoms: C_1  and  C_2
REMARK    2  A    between atoms: C_2  and  N_3
REMARK    3  A    between atoms: N_3  and  C_4
REMARK    4  A    between atoms: C_4  and  C_5
REMARK    5  A    between atoms: C_14  and  O_15
REMARK    6  A    between atoms: N_18  and  C_19
REMARK                            x       y       z     vdW  Elec       q    Type
REMARK                         _______ _______ _______ _____ _____    ______ ____
ROOT
ATOM      1  C   UNL     1      -9.049   4.790 130.361  0.00  0.00    +0.000 A 
ATOM      2  N   UNL     1      -9.143   5.156 129.119  0.00  0.00    +0.000 NA
ATOM      3  C   UNL     1     -10.012   6.207 128.763  0.00  0.00    +0.000 A 
ATOM      4  C   UNL     1     -10.805   6.858 129.720  0.00  0.00    +0.000 A 
ATOM      5  C   UNL     1     -11.700   7.875 129.337  0.00  0.00    +0.000 A 
ATOM      6 CL   UNL     1     -12.731   8.744 130.423  0.00  0.00    +0.000 Cl
ATOM      7  C   UNL     1     -11.808   8.245 127.997  0.00  0.00    +0.000 A 
ATOM      8  C   UNL     1     -11.027   7.614 127.039  0.00  0.00    +0.000 A 
ATOM      9 CL   UNL     1     -11.193   8.100 125.392  0.00  0.00    +0.000 Cl
ATOM     10  C   UNL     1     -10.130   6.604 127.412  0.00  0.00    +0.000 A 
ATOM     11  C   UNL     1     -10.650   6.425 131.120  0.00  0.00    +0.000 A 
ATOM     12  O   UNL     1     -11.315   6.946 132.015  0.00  0.00    +0.000 OA
ATOM     13  N   UNL     1      -9.738   5.415 131.387  0.00  0.00    +0.000 N 
ATOM     14  C   UNL     1      -9.559   5.077 132.798  0.00  0.00    +0.000 C 
ENDROOT
BRANCH  10  15
ATOM     15  O   UNL     1      -9.360   5.982 126.456  0.00  0.00    +0.000 OA
ATOM     16  H   UNL     1      -9.910   5.323 125.994  0.00  0.00    +0.000 HD
ENDBRANCH  10  15
BRANCH   1  17
ATOM     17  C   UNL     1      -8.159   3.590 130.724  0.00  0.00    +0.000 C 
BRANCH  17  18
ATOM     18  N   UNL     1      -8.906   2.348 130.475  0.00  0.00    +0.000 NA
ATOM     19  H   UNL     1      -9.138   1.871 131.338  0.00  0.00    +0.000 HD
BRANCH  18  21
ATOM     20  C   UNL     1      -8.561   1.707 128.167  0.00  0.00    +0.000 C 
ATOM     21  C   UNL     1      -8.171   1.434 129.613  0.00  0.00    +0.000 C 
ENDBRANCH  18  21
ENDBRANCH  17  18
ENDBRANCH   1  17
TORSDOF 4
ENDMDL
MODEL 7
REMARK VINA RESULT:      -5.8      8.836      9.654
REMARK  Name = PBT-434
REMARK  6 active torsions:
REMARK  status: ('A' for Active; 'I' for Inactive)
REMARK    1  A    between atoms: C_1  and  C_2
REMARK    2  A    between atoms: C_2  and  N_3
REMARK    3  A    between atoms: N_3  and  C_4
REMARK    4  A    between atoms: C_4  and  C_5
REMARK    5  A    between atoms: C_14  and  O_15
REMARK    6  A    between atoms: N_18  and  C_19
REMARK                            x       y       z     vdW  Elec       q    Type
REMARK                         _______ _______ _______ _____ _____    ______ ____
ROOT
ATOM      1  C   UNL     1      -8.462   1.712 125.114  0.00  0.00    +0.000 A 
ATOM      2  N   UNL     1      -8.161   1.005 126.160  0.00  0.00    +0.000 NA
ATOM      3  C   UNL     1      -8.329  -0.394 126.132  0.00  0.00    +0.000 A 
ATOM      4  C   UNL     1      -8.842  -1.048 125.001  0.00  0.00    +0.000 A 
ATOM      5  C   UNL     1      -9.046  -2.440 125.007  0.00  0.00    +0.000 A 
ATOM      6 CL   UNL     1      -9.675  -3.353 123.678  0.00  0.00    +0.000 Cl
ATOM      7  C   UNL     1      -8.739  -3.186 126.144  0.00  0.00    +0.000 A 
ATOM      8  C   UNL     1      -8.226  -2.556 127.270  0.00  0.00    +0.000 A 
ATOM      9 CL   UNL     1      -7.863  -3.516 128.656  0.00  0.00    +0.000 Cl
ATOM     10  C   UNL     1      -8.017  -1.171 127.270  0.00  0.00    +0.000 A 
ATOM     11  C   UNL     1      -9.149  -0.207 123.828  0.00  0.00    +0.000 A 
ATOM     12  O   UNL     1      -9.607  -0.708 122.801  0.00  0.00    +0.000 OA
ATOM     13  N   UNL     1      -8.910   1.154 123.928  0.00  0.00    +0.000 N 
ATOM     14  C   UNL     1      -9.151   1.933 122.715  0.00  0.00    +0.000 C 
ENDROOT
BRANCH  10  15
ATOM     15  O   UNL     1      -7.509  -0.553 128.389  0.00  0.00    +0.000 OA
ATOM     16  H   UNL     1      -8.253  -0.215 128.922  0.00  0.00    +0.000 HD
ENDBRANCH  10  15
BRANCH   1  17
ATOM     17  C   UNL     1      -8.350   3.244 125.187  0.00  0.00    +0.000 C 
BRANCH  17  18
ATOM     18  N   UNL     1      -7.020   3.601 125.703  0.00  0.00    +0.000 NA
ATOM     19  H   UNL     1      -7.061   3.902 126.669  0.00  0.00    +0.000 HD
BRANCH  18  21
ATOM     20  C   UNL     1      -5.923   4.046 123.591  0.00  0.00    +0.000 C 
ATOM     21  C   UNL     1      -6.391   4.647 124.909  0.00  0.00    +0.000 C 
ENDBRANCH  18  21
ENDBRANCH  17  18
ENDBRANCH   1  17
TORSDOF 4
ENDMDL
MODEL 8
REMARK VINA RESULT:      -5.8      7.777      9.363
REMARK  Name = PBT-434
REMARK  6 active torsions:
REMARK  status: ('A' for Active; 'I' for Inactive)
REMARK    1  A    between atoms: C_1  and  C_2
REMARK    2  A    between atoms: C_2  and  N_3
REMARK    3  A    between atoms: N_3  and  C_4
REMARK    4  A    between atoms: C_4  and  C_5
REMARK    5  A    between atoms: C_14  and  O_15
REMARK    6  A    between atoms: N_18  and  C_19
REMARK                            x       y       z     vdW  Elec       q    Type
REMARK                         _______ _______ _______ _____ _____    ______ ____
ROOT
ATOM      1  C   UNL     1      -5.663   3.033 126.049  0.00  0.00    +0.000 A 
ATOM      2  N   UNL     1      -5.507   3.508 124.850  0.00  0.00    +0.000 NA
ATOM      3  C   UNL     1      -6.519   3.324 123.886  0.00  0.00    +0.000 A 
ATOM      4  C   UNL     1      -7.692   2.613 124.182  0.00  0.00    +0.000 A 
ATOM      5  C   UNL     1      -8.670   2.401 123.193  0.00  0.00    +0.000 A 
ATOM      6 CL   UNL     1     -10.151   1.538 123.437  0.00  0.00    +0.000 Cl
ATOM      7  C   UNL     1      -8.481   2.897 121.904  0.00  0.00    +0.000 A 
ATOM      8  C   UNL     1      -7.329   3.607 121.597  0.00  0.00    +0.000 A 
ATOM      9 CL   UNL     1      -7.133   4.200 119.989  0.00  0.00    +0.000 Cl
ATOM     10  C   UNL     1      -6.351   3.825 122.576  0.00  0.00    +0.000 A 
ATOM     11  C   UNL     1      -7.836   2.111 125.561  0.00  0.00    +0.000 A 
ATOM     12  O   UNL     1      -8.836   1.474 125.895  0.00  0.00    +0.000 OA
ATOM     13  N   UNL     1      -6.813   2.377 126.457  0.00  0.00    +0.000 N 
ATOM     14  C   UNL     1      -7.038   1.933 127.831  0.00  0.00    +0.000 C 
ENDROOT
BRANCH  10  15
ATOM     15  O   UNL     1      -5.211   4.529 122.264  0.00  0.00    +0.000 OA
ATOM     16  H   UNL     1      -5.028   5.159 122.985  0.00  0.00    +0.000 HD
ENDBRANCH  10  15
BRANCH   1  17
ATOM     17  C   UNL     1      -4.518   3.171 127.065  0.00  0.00    +0.000 C 
BRANCH  17  18
ATOM     18  N   UNL     1      -3.373   2.370 126.606  0.00  0.00    +0.000 NA
ATOM     19  H   UNL     1      -3.264   1.524 127.152  0.00  0.00    +0.000 HD
BRANCH  18  21
ATOM     20  C   UNL     1      -2.331   4.348 127.535  0.00  0.00    +0.000 C 
ATOM     21  C   UNL     1      -2.128   3.124 126.651  0.00  0.00    +0.000 C 
ENDBRANCH  18  21
ENDBRANCH  17  18
ENDBRANCH   1  17
TORSDOF 4
ENDMDL
MODEL 9
REMARK VINA RESULT:      -5.8      9.053     10.326
REMARK  Name = PBT-434
REMARK  6 active torsions:
REMARK  status: ('A' for Active; 'I' for Inactive)
REMARK    1  A    between atoms: C_1  and  C_2
REMARK    2  A    between atoms: C_2  and  N_3
REMARK    3  A    between atoms: N_3  and  C_4
REMARK    4  A    between atoms: C_4  and  C_5
REMARK    5  A    between atoms: C_14  and  O_15
REMARK    6  A    between atoms: N_18  and  C_19
REMARK                            x       y       z     vdW  Elec       q    Type
REMARK                         _______ _______ _______ _____ _____    ______ ____
ROOT
ATOM      1  C   UNL     1      -6.081   2.001 125.588  0.00  0.00    +0.000 A 
ATOM      2  N   UNL     1      -6.041   0.706 125.673  0.00  0.00    +0.000 NA
ATOM      3  C   UNL     1      -6.962  -0.072 124.941  0.00  0.00    +0.000 A 
ATOM      4  C   UNL     1      -7.945   0.522 124.134  0.00  0.00    +0.000 A 
ATOM      5  C   UNL     1      -8.883  -0.269 123.447  0.00  0.00    +0.000 A 
ATOM      6 CL   UNL     1     -10.140   0.348 122.429  0.00  0.00    +0.000 Cl
ATOM      7  C   UNL     1      -8.845  -1.658 123.562  0.00  0.00    +0.000 A 
ATOM      8  C   UNL     1      -7.876  -2.262 124.352  0.00  0.00    +0.000 A 
ATOM      9 CL   UNL     1      -7.867  -3.983 124.470  0.00  0.00    +0.000 Cl
ATOM     10  C   UNL     1      -6.936  -1.481 125.037  0.00  0.00    +0.000 A 
ATOM     11  C   UNL     1      -7.937   1.995 124.051  0.00  0.00    +0.000 A 
ATOM     12  O   UNL     1      -8.771   2.588 123.367  0.00  0.00    +0.000 OA
ATOM     13  N   UNL     1      -6.967   2.678 124.767  0.00  0.00    +0.000 N 
ATOM     14  C   UNL     1      -6.947   4.128 124.588  0.00  0.00    +0.000 C 
ENDROOT
BRANCH  10  15
ATOM     15  O   UNL     1      -5.979  -2.086 125.819  0.00  0.00    +0.000 OA
ATOM     16  H   UNL     1      -5.544  -1.403 126.361  0.00  0.00    +0.000 HD
ENDBRANCH  10  15
BRANCH   1  17
ATOM     17  C   UNL     1      -5.124   2.837 126.454  0.00  0.00    +0.000 C 
BRANCH  17  18
ATOM     18  N   UNL     1      -3.831   2.143 126.544  0.00  0.00    +0.000 NA
ATOM     19  H   UNL     1      -3.926   1.227 126.964  0.00  0.00    +0.000 HD
BRANCH  18  21
ATOM     20  C   UNL     1      -1.564   2.993 126.493  0.00  0.00    +0.000 C 
ATOM     21  C   UNL     1      -2.853   2.911 127.301  0.00  0.00    +0.000 C 
ENDBRANCH  18  21
ENDBRANCH  17  18
ENDBRANCH   1  17
TORSDOF 4
ENDMDL
