MODEL 1
REMARK VINA RESULT:      -6.8      0.000      0.000
REMARK  Name = Pefloxacin
REMARK  6 active torsions:
REMARK  status: ('A' for Active; 'I' for Inactive)
REMARK    1  A    between atoms: C_1  and  C_2
REMARK    2  A    between atoms: C_2  and  N_3
REMARK    3  A    between atoms: C_5  and  C_6
REMARK    4  A    between atoms: C_6  and  O_7
REMARK    5  A    between atoms: C_15  and  N_18
REMARK    6  A    between atoms: N_21  and  C_22
REMARK                            x       y       z     vdW  Elec       q    Type
REMARK                         _______ _______ _______ _____ _____    ______ ____
ROOT
ATOM      1  N   UNL     1      -7.438  -1.744 124.440  0.00  0.00    +0.000 N 
ATOM      2  C   UNL     1      -8.303  -0.983 123.654  0.00  0.00    +0.000 A 
ATOM      3  C   UNL     1      -8.981   0.111 124.039  0.00  0.00    +0.000 A 
ATOM      4  C   UNL     1      -8.807   0.538 125.439  0.00  0.00    +0.000 A 
ATOM      5  O   UNL     1      -9.401   1.532 125.860  0.00  0.00    +0.000 OA
ATOM      6  C   UNL     1      -7.947  -0.279 126.323  0.00  0.00    +0.000 A 
ATOM      7  C   UNL     1      -7.870   0.060 127.673  0.00  0.00    +0.000 A 
ATOM      8  C   UNL     1      -7.235  -0.808 128.546  0.00  0.00    +0.000 A 
ATOM      9  F   UNL     1      -7.276  -0.535 129.860  0.00  0.00    +0.000 F 
ATOM     10  C   UNL     1      -6.542  -1.937 128.091  0.00  0.00    +0.000 A 
ATOM     11  C   UNL     1      -6.507  -2.162 126.709  0.00  0.00    +0.000 A 
ATOM     12  C   UNL     1      -7.278  -1.405 125.806  0.00  0.00    +0.000 A 
ENDROOT
BRANCH  10  13
ATOM     13  N   UNL     1      -5.927  -2.800 128.968  0.00  0.00    +0.000 N 
ATOM     14  C   UNL     1      -6.720  -3.710 129.805  0.00  0.00    +0.000 C 
ATOM     15  C   UNL     1      -6.140  -3.745 131.235  0.00  0.00    +0.000 C 
ATOM     16  N   UNL     1      -4.699  -4.096 131.224  0.00  0.00    +0.000 NA
ATOM     17  C   UNL     1      -4.178  -4.173 132.583  0.00  0.00    +0.000 C 
ATOM     18  C   UNL     1      -3.983  -3.062 130.441  0.00  0.00    +0.000 C 
ATOM     19  C   UNL     1      -4.479  -2.997 128.976  0.00  0.00    +0.000 C 
ENDBRANCH  10  13
BRANCH   1  21
ATOM     20  C   UNL     1      -5.472  -2.708 123.270  0.00  0.00    +0.000 C 
ATOM     21  C   UNL     1      -6.815  -2.985 123.937  0.00  0.00    +0.000 C 
ENDBRANCH   1  21
BRANCH   3  22
ATOM     22  C   UNL     1      -9.856   0.826 123.080  0.00  0.00    +0.000 C 
ATOM     23  O   UNL     1     -10.844   0.322 122.573  0.00  0.00    +0.000 OA
BRANCH  22  24
ATOM     24  O   UNL     1      -9.475   2.095 122.798  0.00  0.00    +0.000 OA
ATOM     25  H   UNL     1      -8.646   2.386 123.249  0.00  0.00    +0.000 HD
ENDBRANCH  22  24
ENDBRANCH   3  22
TORSDOF 4
ENDMDL
MODEL 2
REMARK VINA RESULT:      -6.6      9.487     10.472
REMARK  Name = Pefloxacin
REMARK  6 active torsions:
REMARK  status: ('A' for Active; 'I' for Inactive)
REMARK    1  A    between atoms: C_1  and  C_2
REMARK    2  A    between atoms: C_2  and  N_3
REMARK    3  A    between atoms: C_5  and  C_6
REMARK    4  A    between atoms: C_6  and  O_7
REMARK    5  A    between atoms: C_15  and  N_18
REMARK    6  A    between atoms: N_21  and  C_22
REMARK                            x       y       z     vdW  Elec       q    Type
REMARK                         _______ _______ _______ _____ _____    ______ ____
ROOT
ATOM      1  N   UNL     1      -8.357   5.161 133.194  0.00  0.00    +0.000 N 
ATOM      2  C   UNL     1      -9.631   5.462 132.715  0.00  0.00    +0.000 A 
ATOM      3  C   UNL     1      -9.926   6.201 131.633  0.00  0.00    +0.000 A 
ATOM      4  C   UNL     1      -8.786   6.766 130.888  0.00  0.00    +0.000 A 
ATOM      5  O   UNL     1      -8.984   7.456 129.887  0.00  0.00    +0.000 OA
ATOM      6  C   UNL     1      -7.419   6.522 131.400  0.00  0.00    +0.000 A 
ATOM      7  C   UNL     1      -6.349   7.147 130.761  0.00  0.00    +0.000 A 
ATOM      8  C   UNL     1      -5.096   7.091 131.346  0.00  0.00    +0.000 A 
ATOM      9  F   UNL     1      -4.100   7.800 130.790  0.00  0.00    +0.000 F 
ATOM     10  C   UNL     1      -4.843   6.303 132.476  0.00  0.00    +0.000 A 
ATOM     11  C   UNL     1      -5.909   5.562 133.002  0.00  0.00    +0.000 A 
ATOM     12  C   UNL     1      -7.231   5.723 132.544  0.00  0.00    +0.000 A 
ENDROOT
BRANCH  10  13
ATOM     13  N   UNL     1      -3.596   6.266 133.058  0.00  0.00    +0.000 N 
ATOM     14  C   UNL     1      -3.395   6.749 134.431  0.00  0.00    +0.000 C 
ATOM     15  C   UNL     1      -2.091   7.571 134.510  0.00  0.00    +0.000 C 
ATOM     16  N   UNL     1      -0.932   6.793 134.007  0.00  0.00    +0.000 NA
ATOM     17  C   UNL     1       0.299   7.564 134.134  0.00  0.00    +0.000 C 
ATOM     18  C   UNL     1      -1.195   6.447 132.590  0.00  0.00    +0.000 C 
ATOM     19  C   UNL     1      -2.467   5.580 132.432  0.00  0.00    +0.000 C 
ENDBRANCH  10  13
BRANCH   1  21
ATOM     20  C   UNL     1      -7.940   5.349 135.635  0.00  0.00    +0.000 C 
ATOM     21  C   UNL     1      -8.152   4.412 134.450  0.00  0.00    +0.000 C 
ENDBRANCH   1  21
BRANCH   3  22
ATOM     22  C   UNL     1     -11.337   6.423 131.239  0.00  0.00    +0.000 C 
ATOM     23  O   UNL     1     -12.202   6.777 132.022  0.00  0.00    +0.000 OA
BRANCH  22  24
ATOM     24  O   UNL     1     -11.605   6.199 129.930  0.00  0.00    +0.000 OA
ATOM     25  H   UNL     1     -12.199   6.868 129.511  0.00  0.00    +0.000 HD
ENDBRANCH  22  24
ENDBRANCH   3  22
TORSDOF 4
ENDMDL
MODEL 3
REMARK VINA RESULT:      -6.6      2.222      2.958
REMARK  Name = Pefloxacin
REMARK  6 active torsions:
REMARK  status: ('A' for Active; 'I' for Inactive)
REMARK    1  A    between atoms: C_1  and  C_2
REMARK    2  A    between atoms: C_2  and  N_3
REMARK    3  A    between atoms: C_5  and  C_6
REMARK    4  A    between atoms: C_6  and  O_7
REMARK    5  A    between atoms: C_15  and  N_18
REMARK    6  A    between atoms: N_21  and  C_22
REMARK                            x       y       z     vdW  Elec       q    Type
REMARK                         _______ _______ _______ _____ _____    ______ ____
ROOT
ATOM      1  N   UNL     1      -6.501  -1.057 125.837  0.00  0.00    +0.000 N 
ATOM      2  C   UNL     1      -7.420  -1.293 124.815  0.00  0.00    +0.000 A 
ATOM      3  C   UNL     1      -8.535  -2.039 124.897  0.00  0.00    +0.000 A 
ATOM      4  C   UNL     1      -8.802  -2.688 126.194  0.00  0.00    +0.000 A 
ATOM      5  O   UNL     1      -9.804  -3.388 126.338  0.00  0.00    +0.000 OA
ATOM      6  C   UNL     1      -7.818  -2.514 127.285  0.00  0.00    +0.000 A 
ATOM      7  C   UNL     1      -8.013  -3.216 128.473  0.00  0.00    +0.000 A 
ATOM      8  C   UNL     1      -7.003  -3.221 129.420  0.00  0.00    +0.000 A 
ATOM      9  F   UNL     1      -7.148  -4.001 130.504  0.00  0.00    +0.000 F 
ATOM     10  C   UNL     1      -5.859  -2.424 129.285  0.00  0.00    +0.000 A 
ATOM     11  C   UNL     1      -5.768  -1.608 128.150  0.00  0.00    +0.000 A 
ATOM     12  C   UNL     1      -6.685  -1.701 127.085  0.00  0.00    +0.000 A 
ENDROOT
BRANCH  10  13
ATOM     13  N   UNL     1      -4.855  -2.447 130.226  0.00  0.00    +0.000 N 
ATOM     14  C   UNL     1      -4.004  -3.633 130.384  0.00  0.00    +0.000 C 
ATOM     15  C   UNL     1      -3.781  -3.922 131.884  0.00  0.00    +0.000 C 
ATOM     16  N   UNL     1      -3.236  -2.734 132.586  0.00  0.00    +0.000 NA
ATOM     17  C   UNL     1      -2.985  -3.036 133.990  0.00  0.00    +0.000 C 
ATOM     18  C   UNL     1      -4.217  -1.632 132.450  0.00  0.00    +0.000 C 
ATOM     19  C   UNL     1      -4.460  -1.253 130.970  0.00  0.00    +0.000 C 
ENDBRANCH  10  13
BRANCH   1  21
ATOM     20  C   UNL     1      -5.454   1.193 125.890  0.00  0.00    +0.000 C 
ATOM     21  C   UNL     1      -5.258  -0.293 125.608  0.00  0.00    +0.000 C 
ENDBRANCH   1  21
BRANCH   3  22
ATOM     22  C   UNL     1      -9.425  -2.185 123.723  0.00  0.00    +0.000 C 
ATOM     23  O   UNL     1      -9.645  -1.281 122.933  0.00  0.00    +0.000 OA
BRANCH  22  24
ATOM     24  O   UNL     1      -9.990  -3.408 123.585  0.00  0.00    +0.000 OA
ATOM     25  H   UNL     1     -10.531  -3.702 124.358  0.00  0.00    +0.000 HD
ENDBRANCH  22  24
ENDBRANCH   3  22
TORSDOF 4
ENDMDL
MODEL 4
REMARK VINA RESULT:      -6.5      4.600      6.091
REMARK  Name = Pefloxacin
REMARK  6 active torsions:
REMARK  status: ('A' for Active; 'I' for Inactive)
REMARK    1  A    between atoms: C_1  and  C_2
REMARK    2  A    between atoms: C_2  and  N_3
REMARK    3  A    between atoms: C_5  and  C_6
REMARK    4  A    between atoms: C_6  and  O_7
REMARK    5  A    between atoms: C_15  and  N_18
REMARK    6  A    between atoms: N_21  and  C_22
REMARK                            x       y       z     vdW  Elec       q    Type
REMARK                         _______ _______ _______ _____ _____    ______ ____
ROOT
ATOM      1  N   UNL     1      -6.074  -1.118 126.986  0.00  0.00    +0.000 N 
ATOM      2  C   UNL     1      -6.974  -2.102 126.578  0.00  0.00    +0.000 A 
ATOM      3  C   UNL     1      -7.753  -2.071 125.483  0.00  0.00    +0.000 A 
ATOM      4  C   UNL     1      -7.658  -0.866 124.639  0.00  0.00    +0.000 A 
ATOM      5  O   UNL     1      -8.345  -0.770 123.622  0.00  0.00    +0.000 OA
ATOM      6  C   UNL     1      -6.761   0.228 125.071  0.00  0.00    +0.000 A 
ATOM      7  C   UNL     1      -6.754   1.411 124.334  0.00  0.00    +0.000 A 
ATOM      8  C   UNL     1      -6.077   2.509 124.838  0.00  0.00    +0.000 A 
ATOM      9  F   UNL     1      -6.182   3.678 124.185  0.00  0.00    +0.000 F 
ATOM     10  C   UNL     1      -5.279   2.422 125.985  0.00  0.00    +0.000 A 
ATOM     11  C   UNL     1      -5.182   1.174 126.614  0.00  0.00    +0.000 A 
ATOM     12  C   UNL     1      -5.985   0.081 126.237  0.00  0.00    +0.000 A 
ENDROOT
BRANCH  10  13
ATOM     13  N   UNL     1      -4.621   3.522 126.485  0.00  0.00    +0.000 N 
ATOM     14  C   UNL     1      -3.195   3.735 126.205  0.00  0.00    +0.000 C 
ATOM     15  C   UNL     1      -2.476   4.215 127.484  0.00  0.00    +0.000 C 
ATOM     16  N   UNL     1      -3.129   5.422 128.048  0.00  0.00    +0.000 NA
ATOM     17  C   UNL     1      -2.412   5.893 129.226  0.00  0.00    +0.000 C 
ATOM     18  C   UNL     1      -4.528   5.068 128.388  0.00  0.00    +0.000 C 
ATOM     19  C   UNL     1      -5.330   4.618 127.143  0.00  0.00    +0.000 C 
ENDBRANCH  10  13
BRANCH   1  21
ATOM     20  C   UNL     1      -4.800  -2.627 128.491  0.00  0.00    +0.000 C 
ATOM     21  C   UNL     1      -5.335  -1.218 128.260  0.00  0.00    +0.000 C 
ENDBRANCH   1  21
BRANCH   3  22
ATOM     22  C   UNL     1      -8.654  -3.206 125.173  0.00  0.00    +0.000 C 
ATOM     23  O   UNL     1      -8.251  -4.323 124.896  0.00  0.00    +0.000 OA
BRANCH  22  24
ATOM     24  O   UNL     1      -9.975  -2.912 125.215  0.00  0.00    +0.000 OA
ATOM     25  H   UNL     1     -10.511  -3.321 124.493  0.00  0.00    +0.000 HD
ENDBRANCH  22  24
ENDBRANCH   3  22
TORSDOF 4
ENDMDL
MODEL 5
REMARK VINA RESULT:      -6.4      9.700     10.977
REMARK  Name = Pefloxacin
REMARK  6 active torsions:
REMARK  status: ('A' for Active; 'I' for Inactive)
REMARK    1  A    between atoms: C_1  and  C_2
REMARK    2  A    between atoms: C_2  and  N_3
REMARK    3  A    between atoms: C_5  and  C_6
REMARK    4  A    between atoms: C_6  and  O_7
REMARK    5  A    between atoms: C_15  and  N_18
REMARK    6  A    between atoms: N_21  and  C_22
REMARK                            x       y       z     vdW  Elec       q    Type
REMARK                         _______ _______ _______ _____ _____    ______ ____
ROOT
ATOM      1  N   UNL     1      -7.156   5.640 133.469  0.00  0.00    +0.000 N 
ATOM      2  C   UNL     1      -8.510   5.668 133.136  0.00  0.00    +0.000 A 
ATOM      3  C   UNL     1      -9.044   6.129 131.992  0.00  0.00    +0.000 A 
ATOM      4  C   UNL     1      -8.103   6.677 130.998  0.00  0.00    +0.000 A 
ATOM      5  O   UNL     1      -8.524   7.119 129.928  0.00  0.00    +0.000 OA
ATOM      6  C   UNL     1      -6.664   6.722 131.340  0.00  0.00    +0.000 A 
ATOM      7  C   UNL     1      -5.789   7.340 130.448  0.00  0.00    +0.000 A 
ATOM      8  C   UNL     1      -4.482   7.569 130.843  0.00  0.00    +0.000 A 
ATOM      9  F   UNL     1      -3.683   8.276 130.028  0.00  0.00    +0.000 F 
ATOM     10  C   UNL     1      -3.976   7.065 132.048  0.00  0.00    +0.000 A 
ATOM     11  C   UNL     1      -4.842   6.312 132.851  0.00  0.00    +0.000 A 
ATOM     12  C   UNL     1      -6.218   6.202 132.570  0.00  0.00    +0.000 A 
ENDROOT
BRANCH  10  13
ATOM     13  N   UNL     1      -2.679   7.310 132.438  0.00  0.00    +0.000 N 
ATOM     14  C   UNL     1      -1.644   6.278 132.289  0.00  0.00    +0.000 C 
ATOM     15  C   UNL     1      -0.751   6.246 133.548  0.00  0.00    +0.000 C 
ATOM     16  N   UNL     1      -0.181   7.584 133.838  0.00  0.00    +0.000 NA
ATOM     17  C   UNL     1       0.698   7.528 134.999  0.00  0.00    +0.000 C 
ATOM     18  C   UNL     1      -1.306   8.520 134.072  0.00  0.00    +0.000 C 
ATOM     19  C   UNL     1      -2.225   8.642 132.832  0.00  0.00    +0.000 C 
ENDBRANCH  10  13
BRANCH   1  21
ATOM     20  C   UNL     1      -7.532   5.791 135.919  0.00  0.00    +0.000 C 
ATOM     21  C   UNL     1      -6.689   5.193 134.797  0.00  0.00    +0.000 C 
ENDBRANCH   1  21
BRANCH   3  22
ATOM     22  C   UNL     1     -10.508   6.079 131.775  0.00  0.00    +0.000 C 
ATOM     23  O   UNL     1     -11.309   6.671 132.481  0.00  0.00    +0.000 OA
BRANCH  22  24
ATOM     24  O   UNL     1     -10.904   5.318 130.727  0.00  0.00    +0.000 OA
ATOM     25  H   UNL     1     -10.176   5.054 130.113  0.00  0.00    +0.000 HD
ENDBRANCH  22  24
ENDBRANCH   3  22
TORSDOF 4
ENDMDL
MODEL 6
REMARK VINA RESULT:      -6.4      4.529      5.676
REMARK  Name = Pefloxacin
REMARK  6 active torsions:
REMARK  status: ('A' for Active; 'I' for Inactive)
REMARK    1  A    between atoms: C_1  and  C_2
REMARK    2  A    between atoms: C_2  and  N_3
REMARK    3  A    between atoms: C_5  and  C_6
REMARK    4  A    between atoms: C_6  and  O_7
REMARK    5  A    between atoms: C_15  and  N_18
REMARK    6  A    between atoms: N_21  and  C_22
REMARK                            x       y       z     vdW  Elec       q    Type
REMARK                         _______ _______ _______ _____ _____    ______ ____
ROOT
ATOM      1  N   UNL     1      -7.125  -0.093 125.363  0.00  0.00    +0.000 N 
ATOM      2  C   UNL     1      -8.182  -0.474 124.537  0.00  0.00    +0.000 A 
ATOM      3  C   UNL     1      -8.810   0.297 123.633  0.00  0.00    +0.000 A 
ATOM      4  C   UNL     1      -8.346   1.691 123.518  0.00  0.00    +0.000 A 
ATOM      5  O   UNL     1      -8.879   2.454 122.711  0.00  0.00    +0.000 OA
ATOM      6  C   UNL     1      -7.269   2.152 124.421  0.00  0.00    +0.000 A 
ATOM      7  C   UNL     1      -6.907   3.498 124.389  0.00  0.00    +0.000 A 
ATOM      8  C   UNL     1      -6.049   3.983 125.362  0.00  0.00    +0.000 A 
ATOM      9  F   UNL     1      -5.806   5.303 125.398  0.00  0.00    +0.000 F 
ATOM     10  C   UNL     1      -5.420   3.134 126.282  0.00  0.00    +0.000 A 
ATOM     11  C   UNL     1      -5.686   1.763 126.185  0.00  0.00    +0.000 A 
ATOM     12  C   UNL     1      -6.678   1.250 125.327  0.00  0.00    +0.000 A 
ENDROOT
BRANCH  10  13
ATOM     13  N   UNL     1      -4.580   3.628 127.254  0.00  0.00    +0.000 N 
ATOM     14  C   UNL     1      -5.123   4.251 128.468  0.00  0.00    +0.000 C 
ATOM     15  C   UNL     1      -4.314   5.520 128.813  0.00  0.00    +0.000 C 
ATOM     16  N   UNL     1      -2.866   5.220 128.927  0.00  0.00    +0.000 NA
ATOM     17  C   UNL     1      -2.121   6.416 129.301  0.00  0.00    +0.000 C 
ATOM     18  C   UNL     1      -2.402   4.696 127.621  0.00  0.00    +0.000 C 
ATOM     19  C   UNL     1      -3.138   3.393 127.227  0.00  0.00    +0.000 C 
ENDBRANCH  10  13
BRANCH   1  21
ATOM     20  C   UNL     1      -5.797  -2.154 125.757  0.00  0.00    +0.000 C 
ATOM     21  C   UNL     1      -6.570  -1.000 126.388  0.00  0.00    +0.000 C 
ENDBRANCH   1  21
BRANCH   3  22
ATOM     22  C   UNL     1      -9.913  -0.258 122.814  0.00  0.00    +0.000 C 
ATOM     23  O   UNL     1      -9.946  -1.415 122.432  0.00  0.00    +0.000 OA
BRANCH  22  24
ATOM     24  O   UNL     1     -10.897   0.624 122.512  0.00  0.00    +0.000 OA
ATOM     25  H   UNL     1     -11.666   0.611 123.132  0.00  0.00    +0.000 HD
ENDBRANCH  22  24
ENDBRANCH   3  22
TORSDOF 4
ENDMDL
MODEL 7
REMARK VINA RESULT:      -6.3      1.958      2.207
REMARK  Name = Pefloxacin
REMARK  6 active torsions:
REMARK  status: ('A' for Active; 'I' for Inactive)
REMARK    1  A    between atoms: C_1  and  C_2
REMARK    2  A    between atoms: C_2  and  N_3
REMARK    3  A    between atoms: C_5  and  C_6
REMARK    4  A    between atoms: C_6  and  O_7
REMARK    5  A    between atoms: C_15  and  N_18
REMARK    6  A    between atoms: N_21  and  C_22
REMARK                            x       y       z     vdW  Elec       q    Type
REMARK                         _______ _______ _______ _____ _____    ______ ____
ROOT
ATOM      1  N   UNL     1      -6.767  -0.607 124.087  0.00  0.00    +0.000 N 
ATOM      2  C   UNL     1      -7.091   0.547 123.374  0.00  0.00    +0.000 A 
ATOM      3  C   UNL     1      -6.910   1.815 123.778  0.00  0.00    +0.000 A 
ATOM      4  C   UNL     1      -6.328   2.005 125.119  0.00  0.00    +0.000 A 
ATOM      5  O   UNL     1      -6.137   3.141 125.554  0.00  0.00    +0.000 OA
ATOM      6  C   UNL     1      -6.028   0.806 125.933  0.00  0.00    +0.000 A 
ATOM      7  C   UNL     1      -5.581   0.986 127.241  0.00  0.00    +0.000 A 
ATOM      8  C   UNL     1      -5.491  -0.116 128.075  0.00  0.00    +0.000 A 
ATOM      9  F   UNL     1      -5.182   0.084 129.366  0.00  0.00    +0.000 F 
ATOM     10  C   UNL     1      -5.690  -1.419 127.601  0.00  0.00    +0.000 A 
ATOM     11  C   UNL     1      -5.985  -1.576 126.241  0.00  0.00    +0.000 A 
ATOM     12  C   UNL     1      -6.254  -0.478 125.400  0.00  0.00    +0.000 A 
ENDROOT
BRANCH  10  13
ATOM     13  N   UNL     1      -5.612  -2.506 128.441  0.00  0.00    +0.000 N 
ATOM     14  C   UNL     1      -6.829  -3.192 128.896  0.00  0.00    +0.000 C 
ATOM     15  C   UNL     1      -6.709  -3.532 130.396  0.00  0.00    +0.000 C 
ATOM     16  N   UNL     1      -5.479  -4.315 130.674  0.00  0.00    +0.000 NA
ATOM     17  C   UNL     1      -5.404  -4.672 132.085  0.00  0.00    +0.000 C 
ATOM     18  C   UNL     1      -4.313  -3.492 130.273  0.00  0.00    +0.000 C 
ATOM     19  C   UNL     1      -4.339  -3.146 128.765  0.00  0.00    +0.000 C 
ENDBRANCH  10  13
BRANCH   1  21
ATOM     20  C   UNL     1      -8.576  -2.081 123.238  0.00  0.00    +0.000 C 
ATOM     21  C   UNL     1      -7.095  -1.955 123.581  0.00  0.00    +0.000 C 
ENDBRANCH   1  21
BRANCH   3  22
ATOM     22  C   UNL     1      -7.294   2.944 122.898  0.00  0.00    +0.000 C 
ATOM     23  O   UNL     1      -6.796   3.135 121.801  0.00  0.00    +0.000 OA
BRANCH  22  24
ATOM     24  O   UNL     1      -8.247   3.762 123.404  0.00  0.00    +0.000 OA
ATOM     25  H   UNL     1      -9.175   3.480 123.216  0.00  0.00    +0.000 HD
ENDBRANCH  22  24
ENDBRANCH   3  22
TORSDOF 4
ENDMDL
MODEL 8
REMARK VINA RESULT:      -6.2      6.339      8.949
REMARK  Name = Pefloxacin
REMARK  6 active torsions:
REMARK  status: ('A' for Active; 'I' for Inactive)
REMARK    1  A    between atoms: C_1  and  C_2
REMARK    2  A    between atoms: C_2  and  N_3
REMARK    3  A    between atoms: C_5  and  C_6
REMARK    4  A    between atoms: C_6  and  O_7
REMARK    5  A    between atoms: C_15  and  N_18
REMARK    6  A    between atoms: N_21  and  C_22
REMARK                            x       y       z     vdW  Elec       q    Type
REMARK                         _______ _______ _______ _____ _____    ______ ____
ROOT
ATOM      1  N   UNL     1      -8.323   1.158 129.382  0.00  0.00    +0.000 N 
ATOM      2  C   UNL     1      -7.572   0.036 129.728  0.00  0.00    +0.000 A 
ATOM      3  C   UNL     1      -7.266  -0.371 130.971  0.00  0.00    +0.000 A 
ATOM      4  C   UNL     1      -7.759   0.466 132.080  0.00  0.00    +0.000 A 
ATOM      5  O   UNL     1      -7.513   0.153 133.246  0.00  0.00    +0.000 OA
ATOM      6  C   UNL     1      -8.508   1.700 131.753  0.00  0.00    +0.000 A 
ATOM      7  C   UNL     1      -8.878   2.548 132.796  0.00  0.00    +0.000 A 
ATOM      8  C   UNL     1      -9.396   3.795 132.491  0.00  0.00    +0.000 A 
ATOM      9  F   UNL     1      -9.632   4.651 133.498  0.00  0.00    +0.000 F 
ATOM     10  C   UNL     1      -9.697   4.169 131.175  0.00  0.00    +0.000 A 
ATOM     11  C   UNL     1      -9.458   3.230 130.164  0.00  0.00    +0.000 A 
ATOM     12  C   UNL     1      -8.776   2.022 130.409  0.00  0.00    +0.000 A 
ENDROOT
BRANCH  10  13
ATOM     13  N   UNL     1     -10.199   5.416 130.882  0.00  0.00    +0.000 N 
ATOM     14  C   UNL     1     -11.648   5.645 130.818  0.00  0.00    +0.000 C 
ATOM     15  C   UNL     1     -11.984   6.541 129.607  0.00  0.00    +0.000 C 
ATOM     16  N   UNL     1     -11.211   7.806 129.642  0.00  0.00    +0.000 NA
ATOM     17  C   UNL     1     -11.575   8.662 128.520  0.00  0.00    +0.000 C 
ATOM     18  C   UNL     1      -9.770   7.463 129.600  0.00  0.00    +0.000 C 
ATOM     19  C   UNL     1      -9.345   6.600 130.812  0.00  0.00    +0.000 C 
ENDBRANCH  10  13
BRANCH   1  21
ATOM     20  C   UNL     1      -7.193   1.693 127.237  0.00  0.00    +0.000 C 
ATOM     21  C   UNL     1      -8.521   1.561 127.975  0.00  0.00    +0.000 C 
ENDBRANCH   1  21
BRANCH   3  22
ATOM     22  C   UNL     1      -6.465  -1.599 131.182  0.00  0.00    +0.000 C 
ATOM     23  O   UNL     1      -6.749  -2.676 130.682  0.00  0.00    +0.000 OA
BRANCH  22  24
ATOM     24  O   UNL     1      -5.383  -1.445 131.981  0.00  0.00    +0.000 OA
ATOM     25  H   UNL     1      -4.561  -1.882 131.650  0.00  0.00    +0.000 HD
ENDBRANCH  22  24
ENDBRANCH   3  22
TORSDOF 4
ENDMDL
MODEL 9
REMARK VINA RESULT:      -6.2      1.917      2.729
REMARK  Name = Pefloxacin
REMARK  6 active torsions:
REMARK  status: ('A' for Active; 'I' for Inactive)
REMARK    1  A    between atoms: C_1  and  C_2
REMARK    2  A    between atoms: C_2  and  N_3
REMARK    3  A    between atoms: C_5  and  C_6
REMARK    4  A    between atoms: C_6  and  O_7
REMARK    5  A    between atoms: C_15  and  N_18
REMARK    6  A    between atoms: N_21  and  C_22
REMARK                            x       y       z     vdW  Elec       q    Type
REMARK                         _______ _______ _______ _____ _____    ______ ____
ROOT
ATOM      1  N   UNL     1      -7.243   0.679 126.516  0.00  0.00    +0.000 N 
ATOM      2  C   UNL     1      -7.937   0.757 125.309  0.00  0.00    +0.000 A 
ATOM      3  C   UNL     1      -8.782  -0.161 124.810  0.00  0.00    +0.000 A 
ATOM      4  C   UNL     1      -8.980  -1.382 125.613  0.00  0.00    +0.000 A 
ATOM      5  O   UNL     1      -9.739  -2.266 125.215  0.00  0.00    +0.000 OA
ATOM      6  C   UNL     1      -8.213  -1.530 126.870  0.00  0.00    +0.000 A 
ATOM      7  C   UNL     1      -8.316  -2.730 127.572  0.00  0.00    +0.000 A 
ATOM      8  C   UNL     1      -7.456  -2.960 128.633  0.00  0.00    +0.000 A 
ATOM      9  F   UNL     1      -7.477  -4.167 129.221  0.00  0.00    +0.000 F 
ATOM     10  C   UNL     1      -6.593  -1.967 129.113  0.00  0.00    +0.000 A 
ATOM     11  C   UNL     1      -6.628  -0.717 128.481  0.00  0.00    +0.000 A 
ATOM     12  C   UNL     1      -7.359  -0.496 127.297  0.00  0.00    +0.000 A 
ENDROOT
BRANCH  10  13
ATOM     13  N   UNL     1      -5.733  -2.210 130.159  0.00  0.00    +0.000 N 
ATOM     14  C   UNL     1      -4.293  -2.380 129.921  0.00  0.00    +0.000 C 
ATOM     15  C   UNL     1      -3.756  -3.547 130.776  0.00  0.00    +0.000 C 
ATOM     16  N   UNL     1      -4.075  -3.355 132.212  0.00  0.00    +0.000 NA
ATOM     17  C   UNL     1      -3.519  -4.439 133.012  0.00  0.00    +0.000 C 
ATOM     18  C   UNL     1      -5.550  -3.299 132.349  0.00  0.00    +0.000 C 
ATOM     19  C   UNL     1      -6.161  -2.122 131.553  0.00  0.00    +0.000 C 
ENDBRANCH  10  13
BRANCH   1  21
ATOM     20  C   UNL     1      -4.944   1.555 126.178  0.00  0.00    +0.000 C 
ATOM     21  C   UNL     1      -6.266   1.710 126.922  0.00  0.00    +0.000 C 
ENDBRANCH   1  21
BRANCH   3  22
ATOM     22  C   UNL     1      -9.460   0.071 123.514  0.00  0.00    +0.000 C 
ATOM     23  O   UNL     1      -9.779   1.179 123.114  0.00  0.00    +0.000 OA
BRANCH  22  24
ATOM     24  O   UNL     1      -9.707  -1.048 122.792  0.00  0.00    +0.000 OA
ATOM     25  H   UNL     1      -8.954  -1.686 122.749  0.00  0.00    +0.000 HD
ENDBRANCH  22  24
ENDBRANCH   3  22
TORSDOF 4
ENDMDL
