MODEL 1
REMARK VINA RESULT:      -8.1      0.000      0.000
REMARK  Name = Pemigatinib
REMARK  9 active torsions:
REMARK  status: ('A' for Active; 'I' for Inactive)
REMARK    1  A    between atoms: C_1  and  C_2
REMARK    2  A    between atoms: C_2  and  N_3
REMARK    3  A    between atoms: N_6  and  C_24
REMARK    4  A    between atoms: C_13  and  C_14
REMARK    5  A    between atoms: C_14  and  N_15
REMARK    6  A    between atoms: C_27  and  O_28
REMARK    7  A    between atoms: O_28  and  C_29
REMARK    8  A    between atoms: C_31  and  O_32
REMARK    9  A    between atoms: O_32  and  C_33
REMARK                            x       y       z     vdW  Elec       q    Type
REMARK                         _______ _______ _______ _____ _____    ______ ____
ROOT
ATOM      1  N   UNL     1      -7.166   2.179 129.766  0.00  0.00    +0.000 N 
ATOM      2  C   UNL     1      -5.968   1.502 129.930  0.00  0.00    +0.000 C 
ATOM      3  O   UNL     1      -5.002   1.628 129.164  0.00  0.00    +0.000 OA
ATOM      4  N   UNL     1      -5.982   0.586 130.978  0.00  0.00    +0.000 N 
ATOM      5  C   UNL     1      -6.375   1.064 132.270  0.00  0.00    +0.000 C 
ATOM      6  C   UNL     1      -7.486   2.033 132.182  0.00  0.00    +0.000 A 
ATOM      7  C   UNL     1      -8.079   2.473 133.352  0.00  0.00    +0.000 A 
ATOM      8  N   UNL     1      -9.052   3.368 133.356  0.00  0.00    +0.000 NA
ATOM      9  C   UNL     1      -9.371   3.770 132.123  0.00  0.00    +0.000 A 
ATOM     10  N   UNL     1     -10.327   4.656 131.926  0.00  0.00    +0.000 N 
ATOM     11  C   UNL     1     -10.582   5.041 130.649  0.00  0.00    +0.000 A 
ATOM     12  C   UNL     1      -9.666   4.282 129.950  0.00  0.00    +0.000 A 
ATOM     13  C   UNL     1      -8.915   3.464 130.879  0.00  0.00    +0.000 A 
ATOM     14  C   UNL     1      -7.883   2.538 130.917  0.00  0.00    +0.000 A 
ATOM     15  H   UNL     1     -10.754   4.911 132.786  0.00  0.00    +0.000 HD
ENDROOT
BRANCH   4  16
ATOM     16  C   UNL     1      -6.079  -0.792 130.638  0.00  0.00    +0.000 A 
ATOM     17  C   UNL     1      -7.278  -1.431 130.284  0.00  0.00    +0.000 A 
ATOM     18  F   UNL     1      -8.427  -0.733 130.265  0.00  0.00    +0.000 F 
ATOM     19  C   UNL     1      -7.293  -2.785 129.895  0.00  0.00    +0.000 A 
ATOM     20  C   UNL     1      -6.092  -3.498 129.899  0.00  0.00    +0.000 A 
ATOM     21  C   UNL     1      -4.893  -2.884 130.276  0.00  0.00    +0.000 A 
ATOM     22  C   UNL     1      -4.899  -1.535 130.630  0.00  0.00    +0.000 A 
ATOM     23  F   UNL     1      -3.775  -0.934 131.050  0.00  0.00    +0.000 F 
BRANCH  19  24
ATOM     24  O   UNL     1      -8.504  -3.316 129.525  0.00  0.00    +0.000 OA
ATOM     25  C   UNL     1      -8.659  -3.694 128.156  0.00  0.00    +0.000 C 
ENDBRANCH  19  24
BRANCH  21  26
ATOM     26  O   UNL     1      -3.807  -3.718 130.261  0.00  0.00    +0.000 OA
ATOM     27  C   UNL     1      -3.013  -3.706 129.080  0.00  0.00    +0.000 C 
ENDBRANCH  21  26
ENDBRANCH   4  16
BRANCH   1  29
ATOM     28  C   UNL     1      -8.293   1.330 127.675  0.00  0.00    +0.000 C 
ATOM     29  C   UNL     1      -7.746   2.489 128.457  0.00  0.00    +0.000 C 
ENDBRANCH   1  29
BRANCH  11  30
ATOM     30  C   UNL     1     -11.624   6.037 130.176  0.00  0.00    +0.000 C 
BRANCH  30  31
ATOM     31  N   UNL     1     -11.332   7.487 130.110  0.00  0.00    +0.000 NA
ATOM     32  C   UNL     1     -12.505   8.346 129.889  0.00  0.00    +0.000 C 
ATOM     33  C   UNL     1     -13.062   8.215 128.492  0.00  0.00    +0.000 C 
ATOM     34  O   UNL     1     -12.001   8.217 127.456  0.00  0.00    +0.000 OA
ATOM     35  C   UNL     1     -10.650   7.677 127.740  0.00  0.00    +0.000 C 
ATOM     36  C   UNL     1     -10.252   7.860 129.184  0.00  0.00    +0.000 C 
ENDBRANCH  30  31
ENDBRANCH  11  30
TORSDOF 6
ENDMDL
MODEL 2
REMARK VINA RESULT:      -7.9      2.741      3.336
REMARK  Name = Pemigatinib
REMARK  9 active torsions:
REMARK  status: ('A' for Active; 'I' for Inactive)
REMARK    1  A    between atoms: C_1  and  C_2
REMARK    2  A    between atoms: C_2  and  N_3
REMARK    3  A    between atoms: N_6  and  C_24
REMARK    4  A    between atoms: C_13  and  C_14
REMARK    5  A    between atoms: C_14  and  N_15
REMARK    6  A    between atoms: C_27  and  O_28
REMARK    7  A    between atoms: O_28  and  C_29
REMARK    8  A    between atoms: C_31  and  O_32
REMARK    9  A    between atoms: O_32  and  C_33
REMARK                            x       y       z     vdW  Elec       q    Type
REMARK                         _______ _______ _______ _____ _____    ______ ____
ROOT
ATOM      1  N   UNL     1      -7.343   2.785 128.280  0.00  0.00    +0.000 N 
ATOM      2  C   UNL     1      -6.371   1.820 128.070  0.00  0.00    +0.000 C 
ATOM      3  O   UNL     1      -5.232   2.078 127.657  0.00  0.00    +0.000 OA
ATOM      4  N   UNL     1      -6.824   0.518 128.269  0.00  0.00    +0.000 N 
ATOM      5  C   UNL     1      -7.450   0.218 129.521  0.00  0.00    +0.000 C 
ATOM      6  C   UNL     1      -8.307   1.327 129.985  0.00  0.00    +0.000 A 
ATOM      7  C   UNL     1      -9.098   1.133 131.104  0.00  0.00    +0.000 A 
ATOM      8  N   UNL     1      -9.862   2.091 131.601  0.00  0.00    +0.000 NA
ATOM      9  C   UNL     1      -9.769   3.224 130.901  0.00  0.00    +0.000 A 
ATOM     10  N   UNL     1     -10.466   4.290 131.243  0.00  0.00    +0.000 N 
ATOM     11  C   UNL     1     -10.303   5.417 130.504  0.00  0.00    +0.000 A 
ATOM     12  C   UNL     1      -9.387   4.995 129.564  0.00  0.00    +0.000 A 
ATOM     13  C   UNL     1      -9.065   3.603 129.802  0.00  0.00    +0.000 A 
ATOM     14  C   UNL     1      -8.261   2.580 129.321  0.00  0.00    +0.000 A 
ATOM     15  H   UNL     1     -11.050   4.094 132.021  0.00  0.00    +0.000 HD
ENDROOT
BRANCH   4  16
ATOM     16  C   UNL     1      -7.072  -0.269 127.110  0.00  0.00    +0.000 A 
ATOM     17  C   UNL     1      -8.224  -0.155 126.315  0.00  0.00    +0.000 A 
ATOM     18  F   UNL     1      -9.178   0.733 126.645  0.00  0.00    +0.000 F 
ATOM     19  C   UNL     1      -8.378  -0.921 125.143  0.00  0.00    +0.000 A 
ATOM     20  C   UNL     1      -7.373  -1.827 124.797  0.00  0.00    +0.000 A 
ATOM     21  C   UNL     1      -6.231  -1.973 125.592  0.00  0.00    +0.000 A 
ATOM     22  C   UNL     1      -6.089  -1.184 126.733  0.00  0.00    +0.000 A 
ATOM     23  F   UNL     1      -5.033  -1.342 127.545  0.00  0.00    +0.000 F 
BRANCH  19  24
ATOM     24  O   UNL     1      -9.518  -0.714 124.406  0.00  0.00    +0.000 OA
ATOM     25  C   UNL     1      -9.439   0.231 123.337  0.00  0.00    +0.000 C 
ENDBRANCH  19  24
BRANCH  21  26
ATOM     26  O   UNL     1      -5.352  -2.922 125.142  0.00  0.00    +0.000 OA
ATOM     27  C   UNL     1      -5.181  -3.011 123.732  0.00  0.00    +0.000 C 
ENDBRANCH  21  26
ENDBRANCH   4  16
BRANCH   1  29
ATOM     28  C   UNL     1      -7.823   3.738 125.995  0.00  0.00    +0.000 C 
ATOM     29  C   UNL     1      -7.495   3.975 127.440  0.00  0.00    +0.000 C 
ENDBRANCH   1  29
BRANCH  11  30
ATOM     30  C   UNL     1     -10.989   6.756 130.700  0.00  0.00    +0.000 C 
BRANCH  30  31
ATOM     31  N   UNL     1     -12.420   6.947 130.370  0.00  0.00    +0.000 NA
ATOM     32  C   UNL     1     -12.840   6.374 129.082  0.00  0.00    +0.000 C 
ATOM     33  C   UNL     1     -12.284   7.134 127.902  0.00  0.00    +0.000 C 
ATOM     34  O   UNL     1     -12.392   8.603 128.071  0.00  0.00    +0.000 OA
ATOM     35  C   UNL     1     -12.335   9.227 129.415  0.00  0.00    +0.000 C 
ATOM     36  C   UNL     1     -12.903   8.331 130.488  0.00  0.00    +0.000 C 
ENDBRANCH  30  31
ENDBRANCH  11  30
TORSDOF 6
ENDMDL
MODEL 3
REMARK VINA RESULT:      -7.7      0.549      2.484
REMARK  Name = Pemigatinib
REMARK  9 active torsions:
REMARK  status: ('A' for Active; 'I' for Inactive)
REMARK    1  A    between atoms: C_1  and  C_2
REMARK    2  A    between atoms: C_2  and  N_3
REMARK    3  A    between atoms: N_6  and  C_24
REMARK    4  A    between atoms: C_13  and  C_14
REMARK    5  A    between atoms: C_14  and  N_15
REMARK    6  A    between atoms: C_27  and  O_28
REMARK    7  A    between atoms: O_28  and  C_29
REMARK    8  A    between atoms: C_31  and  O_32
REMARK    9  A    between atoms: O_32  and  C_33
REMARK                            x       y       z     vdW  Elec       q    Type
REMARK                         _______ _______ _______ _____ _____    ______ ____
ROOT
ATOM      1  N   UNL     1      -6.961   2.236 129.829  0.00  0.00    +0.000 N 
ATOM      2  C   UNL     1      -5.774   1.558 130.061  0.00  0.00    +0.000 C 
ATOM      3  O   UNL     1      -4.751   1.722 129.382  0.00  0.00    +0.000 OA
ATOM      4  N   UNL     1      -5.866   0.598 131.065  0.00  0.00    +0.000 N 
ATOM      5  C   UNL     1      -6.366   1.018 132.339  0.00  0.00    +0.000 C 
ATOM      6  C   UNL     1      -7.474   1.985 132.203  0.00  0.00    +0.000 A 
ATOM      7  C   UNL     1      -8.163   2.372 133.339  0.00  0.00    +0.000 A 
ATOM      8  N   UNL     1      -9.141   3.261 133.301  0.00  0.00    +0.000 NA
ATOM      9  C   UNL     1      -9.362   3.714 132.064  0.00  0.00    +0.000 A 
ATOM     10  N   UNL     1     -10.306   4.603 131.828  0.00  0.00    +0.000 N 
ATOM     11  C   UNL     1     -10.460   5.041 130.552  0.00  0.00    +0.000 A 
ATOM     12  C   UNL     1      -9.485   4.318 129.898  0.00  0.00    +0.000 A 
ATOM     13  C   UNL     1      -8.805   3.463 130.850  0.00  0.00    +0.000 A 
ATOM     14  C   UNL     1      -7.772   2.542 130.932  0.00  0.00    +0.000 A 
ATOM     15  H   UNL     1     -10.803   4.819 132.660  0.00  0.00    +0.000 HD
ENDROOT
BRANCH   4  16
ATOM     16  C   UNL     1      -5.923  -0.765 130.661  0.00  0.00    +0.000 A 
ATOM     17  C   UNL     1      -4.806  -1.613 130.599  0.00  0.00    +0.000 A 
ATOM     18  F   UNL     1      -3.590  -1.141 130.922  0.00  0.00    +0.000 F 
ATOM     19  C   UNL     1      -4.943  -2.971 130.252  0.00  0.00    +0.000 A 
ATOM     20  C   UNL     1      -6.213  -3.458 129.936  0.00  0.00    +0.000 A 
ATOM     21  C   UNL     1      -7.333  -2.620 129.966  0.00  0.00    +0.000 A 
ATOM     22  C   UNL     1      -7.176  -1.285 130.340  0.00  0.00    +0.000 A 
ATOM     23  F   UNL     1      -8.222  -0.445 130.323  0.00  0.00    +0.000 F 
BRANCH  19  24
ATOM     24  O   UNL     1      -3.803  -3.736 130.257  0.00  0.00    +0.000 OA
ATOM     25  C   UNL     1      -3.091  -3.852 129.023  0.00  0.00    +0.000 C 
ENDBRANCH  19  24
BRANCH  21  26
ATOM     26  O   UNL     1      -8.502  -3.233 129.601  0.00  0.00    +0.000 OA
ATOM     27  C   UNL     1      -8.646  -3.553 128.222  0.00  0.00    +0.000 C 
ENDBRANCH  21  26
ENDBRANCH   4  16
BRANCH   1  29
ATOM     28  C   UNL     1      -8.127   1.520 127.711  0.00  0.00    +0.000 C 
ATOM     29  C   UNL     1      -7.436   2.598 128.492  0.00  0.00    +0.000 C 
ENDBRANCH   1  29
BRANCH  11  30
ATOM     30  C   UNL     1     -11.468   6.051 130.038  0.00  0.00    +0.000 C 
BRANCH  30  31
ATOM     31  N   UNL     1     -11.670   6.271 128.587  0.00  0.00    +0.000 NA
ATOM     32  C   UNL     1     -10.653   7.114 127.941  0.00  0.00    +0.000 C 
ATOM     33  C   UNL     1     -10.755   8.562 128.354  0.00  0.00    +0.000 C 
ATOM     34  O   UNL     1     -12.154   9.053 128.362  0.00  0.00    +0.000 OA
ATOM     35  C   UNL     1     -13.285   8.143 128.662  0.00  0.00    +0.000 C 
ATOM     36  C   UNL     1     -13.017   6.728 128.212  0.00  0.00    +0.000 C 
ENDBRANCH  30  31
ENDBRANCH  11  30
TORSDOF 6
ENDMDL
MODEL 4
REMARK VINA RESULT:      -7.3      4.784      6.299
REMARK  Name = Pemigatinib
REMARK  9 active torsions:
REMARK  status: ('A' for Active; 'I' for Inactive)
REMARK    1  A    between atoms: C_1  and  C_2
REMARK    2  A    between atoms: C_2  and  N_3
REMARK    3  A    between atoms: N_6  and  C_24
REMARK    4  A    between atoms: C_13  and  C_14
REMARK    5  A    between atoms: C_14  and  N_15
REMARK    6  A    between atoms: C_27  and  O_28
REMARK    7  A    between atoms: O_28  and  C_29
REMARK    8  A    between atoms: C_31  and  O_32
REMARK    9  A    between atoms: O_32  and  C_33
REMARK                            x       y       z     vdW  Elec       q    Type
REMARK                         _______ _______ _______ _____ _____    ______ ____
ROOT
ATOM      1  N   UNL     1      -7.519  -0.532 128.769  0.00  0.00    +0.000 N 
ATOM      2  C   UNL     1      -7.918  -1.066 129.985  0.00  0.00    +0.000 C 
ATOM      3  O   UNL     1      -8.310  -0.377 130.936  0.00  0.00    +0.000 OA
ATOM      4  N   UNL     1      -7.740  -2.444 130.075  0.00  0.00    +0.000 N 
ATOM      5  C   UNL     1      -8.322  -3.255 129.049  0.00  0.00    +0.000 C 
ATOM      6  C   UNL     1      -8.200  -2.628 127.717  0.00  0.00    +0.000 A 
ATOM      7  C   UNL     1      -8.579  -3.354 126.602  0.00  0.00    +0.000 A 
ATOM      8  N   UNL     1      -8.534  -2.846 125.382  0.00  0.00    +0.000 NA
ATOM      9  C   UNL     1      -8.089  -1.587 125.377  0.00  0.00    +0.000 A 
ATOM     10  N   UNL     1      -7.968  -0.917 124.248  0.00  0.00    +0.000 N 
ATOM     11  C   UNL     1      -7.535   0.368 124.316  0.00  0.00    +0.000 A 
ATOM     12  C   UNL     1      -7.348   0.518 125.675  0.00  0.00    +0.000 A 
ATOM     13  C   UNL     1      -7.679  -0.724 126.343  0.00  0.00    +0.000 A 
ATOM     14  C   UNL     1      -7.758  -1.284 127.609  0.00  0.00    +0.000 A 
ATOM     15  H   UNL     1      -8.208  -1.488 123.472  0.00  0.00    +0.000 HD
ENDROOT
BRANCH   4  16
ATOM     16  C   UNL     1      -6.646  -2.911 130.856  0.00  0.00    +0.000 A 
ATOM     17  C   UNL     1      -6.755  -3.319 132.194  0.00  0.00    +0.000 A 
ATOM     18  F   UNL     1      -7.947  -3.269 132.814  0.00  0.00    +0.000 F 
ATOM     19  C   UNL     1      -5.643  -3.832 132.891  0.00  0.00    +0.000 A 
ATOM     20  C   UNL     1      -4.412  -3.899 132.234  0.00  0.00    +0.000 A 
ATOM     21  C   UNL     1      -4.280  -3.471 130.908  0.00  0.00    +0.000 A 
ATOM     22  C   UNL     1      -5.402  -2.992 130.231  0.00  0.00    +0.000 A 
ATOM     23  F   UNL     1      -5.294  -2.522 128.979  0.00  0.00    +0.000 F 
BRANCH  19  24
ATOM     24  O   UNL     1      -5.851  -4.245 134.184  0.00  0.00    +0.000 OA
ATOM     25  C   UNL     1      -6.090  -5.639 134.391  0.00  0.00    +0.000 C 
ENDBRANCH  19  24
BRANCH  21  26
ATOM     26  O   UNL     1      -3.008  -3.567 130.412  0.00  0.00    +0.000 OA
ATOM     27  C   UNL     1      -2.886  -3.945 129.046  0.00  0.00    +0.000 C 
ENDBRANCH  21  26
ENDBRANCH   4  16
BRANCH   1  29
ATOM     28  C   UNL     1      -5.368   0.757 129.041  0.00  0.00    +0.000 C 
ATOM     29  C   UNL     1      -6.814   0.745 128.640  0.00  0.00    +0.000 C 
ENDBRANCH   1  29
BRANCH  11  30
ATOM     30  C   UNL     1      -7.318   1.332 123.165  0.00  0.00    +0.000 C 
BRANCH  30  31
ATOM     31  N   UNL     1      -7.913   2.688 123.171  0.00  0.00    +0.000 NA
ATOM     32  C   UNL     1      -8.085   3.294 121.841  0.00  0.00    +0.000 C 
ATOM     33  C   UNL     1      -6.770   3.681 121.209  0.00  0.00    +0.000 C 
ATOM     34  O   UNL     1      -5.858   4.357 122.162  0.00  0.00    +0.000 OA
ATOM     35  C   UNL     1      -5.888   4.038 123.610  0.00  0.00    +0.000 C 
ATOM     36  C   UNL     1      -7.266   3.644 124.082  0.00  0.00    +0.000 C 
ENDBRANCH  30  31
ENDBRANCH  11  30
TORSDOF 6
ENDMDL
MODEL 5
REMARK VINA RESULT:      -7.2      2.668      2.963
REMARK  Name = Pemigatinib
REMARK  9 active torsions:
REMARK  status: ('A' for Active; 'I' for Inactive)
REMARK    1  A    between atoms: C_1  and  C_2
REMARK    2  A    between atoms: C_2  and  N_3
REMARK    3  A    between atoms: N_6  and  C_24
REMARK    4  A    between atoms: C_13  and  C_14
REMARK    5  A    between atoms: C_14  and  N_15
REMARK    6  A    between atoms: C_27  and  O_28
REMARK    7  A    between atoms: O_28  and  C_29
REMARK    8  A    between atoms: C_31  and  O_32
REMARK    9  A    between atoms: O_32  and  C_33
REMARK                            x       y       z     vdW  Elec       q    Type
REMARK                         _______ _______ _______ _____ _____    ______ ____
ROOT
ATOM      1  N   UNL     1      -7.230   3.490 130.658  0.00  0.00    +0.000 N 
ATOM      2  C   UNL     1      -5.909   3.193 130.952  0.00  0.00    +0.000 C 
ATOM      3  O   UNL     1      -5.045   2.998 130.085  0.00  0.00    +0.000 OA
ATOM      4  N   UNL     1      -5.661   3.031 132.312  0.00  0.00    +0.000 N 
ATOM      5  C   UNL     1      -6.057   4.092 133.188  0.00  0.00    +0.000 C 
ATOM      6  C   UNL     1      -7.349   4.683 132.786  0.00  0.00    +0.000 A 
ATOM      7  C   UNL     1      -7.941   5.618 133.616  0.00  0.00    +0.000 A 
ATOM      8  N   UNL     1      -9.077   6.218 133.305  0.00  0.00    +0.000 NA
ATOM      9  C   UNL     1      -9.555   5.811 132.127  0.00  0.00    +0.000 A 
ATOM     10  N   UNL     1     -10.687   6.293 131.652  0.00  0.00    +0.000 N 
ATOM     11  C   UNL     1     -11.101   5.857 130.435  0.00  0.00    +0.000 A 
ATOM     12  C   UNL     1     -10.097   4.970 130.109  0.00  0.00    +0.000 A 
ATOM     13  C   UNL     1      -9.130   4.926 131.187  0.00  0.00    +0.000 A 
ATOM     14  C   UNL     1      -7.928   4.331 131.538  0.00  0.00    +0.000 A 
ATOM     15  H   UNL     1     -11.098   6.926 132.298  0.00  0.00    +0.000 HD
ENDROOT
BRANCH   4  16
ATOM     16  C   UNL     1      -5.490   1.702 132.790  0.00  0.00    +0.000 A 
ATOM     17  C   UNL     1      -6.551   0.841 133.112  0.00  0.00    +0.000 A 
ATOM     18  F   UNL     1      -7.820   1.268 132.986  0.00  0.00    +0.000 F 
ATOM     19  C   UNL     1      -6.313  -0.487 133.519  0.00  0.00    +0.000 A 
ATOM     20  C   UNL     1      -4.993  -0.928 133.629  0.00  0.00    +0.000 A 
ATOM     21  C   UNL     1      -3.922  -0.075 133.338  0.00  0.00    +0.000 A 
ATOM     22  C   UNL     1      -4.185   1.227 132.911  0.00  0.00    +0.000 A 
ATOM     23  F   UNL     1      -3.179   2.084 132.679  0.00  0.00    +0.000 F 
BRANCH  19  24
ATOM     24  O   UNL     1      -7.412  -1.269 133.774  0.00  0.00    +0.000 OA
ATOM     25  C   UNL     1      -7.391  -2.606 133.270  0.00  0.00    +0.000 C 
ENDBRANCH  19  24
BRANCH  21  26
ATOM     26  O   UNL     1      -2.689  -0.640 133.523  0.00  0.00    +0.000 OA
ATOM     27  C   UNL     1      -2.657  -2.051 133.700  0.00  0.00    +0.000 C 
ENDBRANCH  21  26
ENDBRANCH   4  16
BRANCH   1  29
ATOM     28  C   UNL     1      -8.299   1.473 129.587  0.00  0.00    +0.000 C 
ATOM     29  C   UNL     1      -7.949   2.930 129.512  0.00  0.00    +0.000 C 
ENDBRANCH   1  29
BRANCH  11  30
ATOM     30  C   UNL     1     -12.358   6.263 129.688  0.00  0.00    +0.000 C 
BRANCH  30  31
ATOM     31  N   UNL     1     -12.517   7.624 129.126  0.00  0.00    +0.000 NA
ATOM     32  C   UNL     1     -13.457   7.723 127.999  0.00  0.00    +0.000 C 
ATOM     33  C   UNL     1     -12.925   7.075 126.744  0.00  0.00    +0.000 C 
ATOM     34  O   UNL     1     -11.505   7.414 126.488  0.00  0.00    +0.000 OA
ATOM     35  C   UNL     1     -10.568   7.685 127.604  0.00  0.00    +0.000 C 
ATOM     36  C   UNL     1     -11.257   8.307 128.794  0.00  0.00    +0.000 C 
ENDBRANCH  30  31
ENDBRANCH  11  30
TORSDOF 6
ENDMDL
MODEL 6
REMARK VINA RESULT:      -7.2      1.955      2.134
REMARK  Name = Pemigatinib
REMARK  9 active torsions:
REMARK  status: ('A' for Active; 'I' for Inactive)
REMARK    1  A    between atoms: C_1  and  C_2
REMARK    2  A    between atoms: C_2  and  N_3
REMARK    3  A    between atoms: N_6  and  C_24
REMARK    4  A    between atoms: C_13  and  C_14
REMARK    5  A    between atoms: C_14  and  N_15
REMARK    6  A    between atoms: C_27  and  O_28
REMARK    7  A    between atoms: O_28  and  C_29
REMARK    8  A    between atoms: C_31  and  O_32
REMARK    9  A    between atoms: O_32  and  C_33
REMARK                            x       y       z     vdW  Elec       q    Type
REMARK                         _______ _______ _______ _____ _____    ______ ____
ROOT
ATOM      1  N   UNL     1      -6.863   1.929 130.850  0.00  0.00    +0.000 N 
ATOM      2  C   UNL     1      -5.610   1.442 131.187  0.00  0.00    +0.000 C 
ATOM      3  O   UNL     1      -4.680   1.332 130.376  0.00  0.00    +0.000 OA
ATOM      4  N   UNL     1      -5.522   0.989 132.501  0.00  0.00    +0.000 N 
ATOM      5  C   UNL     1      -5.916   1.892 133.540  0.00  0.00    +0.000 C 
ATOM      6  C   UNL     1      -7.102   2.684 133.160  0.00  0.00    +0.000 A 
ATOM      7  C   UNL     1      -7.695   3.493 134.112  0.00  0.00    +0.000 A 
ATOM      8  N   UNL     1      -8.737   4.260 133.836  0.00  0.00    +0.000 NA
ATOM      9  C   UNL     1      -9.121   4.147 132.562  0.00  0.00    +0.000 A 
ATOM     10  N   UNL     1     -10.151   4.830 132.103  0.00  0.00    +0.000 N 
ATOM     11  C   UNL     1     -10.471   4.690 130.791  0.00  0.00    +0.000 A 
ATOM     12  C   UNL     1      -9.518   3.784 130.375  0.00  0.00    +0.000 A 
ATOM     13  C   UNL     1      -8.678   3.425 131.499  0.00  0.00    +0.000 A 
ATOM     14  C   UNL     1      -7.574   2.649 131.822  0.00  0.00    +0.000 A 
ATOM     15  H   UNL     1     -10.572   5.363 132.828  0.00  0.00    +0.000 HD
ENDROOT
BRANCH   4  16
ATOM     16  C   UNL     1      -5.518  -0.419 132.706  0.00  0.00    +0.000 A 
ATOM     17  C   UNL     1      -6.679  -1.199 132.819  0.00  0.00    +0.000 A 
ATOM     18  F   UNL     1      -7.888  -0.614 132.747  0.00  0.00    +0.000 F 
ATOM     19  C   UNL     1      -6.604  -2.599 132.957  0.00  0.00    +0.000 A 
ATOM     20  C   UNL     1      -5.345  -3.201 133.013  0.00  0.00    +0.000 A 
ATOM     21  C   UNL     1      -4.177  -2.436 132.929  0.00  0.00    +0.000 A 
ATOM     22  C   UNL     1      -4.278  -1.054 132.765  0.00  0.00    +0.000 A 
ATOM     23  F   UNL     1      -3.177  -0.288 132.738  0.00  0.00    +0.000 F 
BRANCH  19  24
ATOM     24  O   UNL     1      -7.792  -3.286 133.020  0.00  0.00    +0.000 OA
ATOM     25  C   UNL     1      -8.288  -3.611 134.319  0.00  0.00    +0.000 C 
ENDBRANCH  19  24
BRANCH  21  26
ATOM     26  O   UNL     1      -3.022  -3.163 133.031  0.00  0.00    +0.000 OA
ATOM     27  C   UNL     1      -3.169  -4.566 133.220  0.00  0.00    +0.000 C 
ENDBRANCH  21  26
ENDBRANCH   4  16
BRANCH   1  29
ATOM     28  C   UNL     1      -7.891   0.268 129.255  0.00  0.00    +0.000 C 
ATOM     29  C   UNL     1      -7.503   1.686 129.555  0.00  0.00    +0.000 C 
ENDBRANCH   1  29
BRANCH  11  30
ATOM     30  C   UNL     1     -11.602   5.366 130.039  0.00  0.00    +0.000 C 
BRANCH  30  31
ATOM     31  N   UNL     1     -11.784   6.835 130.075  0.00  0.00    +0.000 NA
ATOM     32  C   UNL     1     -13.095   7.308 129.606  0.00  0.00    +0.000 C 
ATOM     33  C   UNL     1     -13.269   7.146 128.116  0.00  0.00    +0.000 C 
ATOM     34  O   UNL     1     -12.069   7.572 127.355  0.00  0.00    +0.000 OA
ATOM     35  C   UNL     1     -10.710   7.449 127.934  0.00  0.00    +0.000 C 
ATOM     36  C   UNL     1     -10.710   7.608 129.434  0.00  0.00    +0.000 C 
ENDBRANCH  30  31
ENDBRANCH  11  30
TORSDOF 6
ENDMDL
MODEL 7
REMARK VINA RESULT:      -7.2      4.587      6.950
REMARK  Name = Pemigatinib
REMARK  9 active torsions:
REMARK  status: ('A' for Active; 'I' for Inactive)
REMARK    1  A    between atoms: C_1  and  C_2
REMARK    2  A    between atoms: C_2  and  N_3
REMARK    3  A    between atoms: N_6  and  C_24
REMARK    4  A    between atoms: C_13  and  C_14
REMARK    5  A    between atoms: C_14  and  N_15
REMARK    6  A    between atoms: C_27  and  O_28
REMARK    7  A    between atoms: O_28  and  C_29
REMARK    8  A    between atoms: C_31  and  O_32
REMARK    9  A    between atoms: O_32  and  C_33
REMARK                            x       y       z     vdW  Elec       q    Type
REMARK                         _______ _______ _______ _____ _____    ______ ____
ROOT
ATOM      1  N   UNL     1      -7.002   3.271 127.560  0.00  0.00    +0.000 N 
ATOM      2  C   UNL     1      -7.594   2.806 126.396  0.00  0.00    +0.000 C 
ATOM      3  O   UNL     1      -8.672   3.235 125.961  0.00  0.00    +0.000 OA
ATOM      4  N   UNL     1      -6.918   1.737 125.814  0.00  0.00    +0.000 N 
ATOM      5  C   UNL     1      -5.524   1.908 125.536  0.00  0.00    +0.000 C 
ATOM      6  C   UNL     1      -4.839   2.659 126.607  0.00  0.00    +0.000 A 
ATOM      7  C   UNL     1      -3.461   2.777 126.560  0.00  0.00    +0.000 A 
ATOM      8  N   UNL     1      -2.782   3.466 127.462  0.00  0.00    +0.000 NA
ATOM      9  C   UNL     1      -3.578   4.007 128.387  0.00  0.00    +0.000 A 
ATOM     10  N   UNL     1      -3.079   4.725 129.374  0.00  0.00    +0.000 N 
ATOM     11  C   UNL     1      -3.947   5.269 130.264  0.00  0.00    +0.000 A 
ATOM     12  C   UNL     1      -5.156   4.821 129.773  0.00  0.00    +0.000 A 
ATOM     13  C   UNL     1      -4.921   4.006 128.598  0.00  0.00    +0.000 A 
ATOM     14  C   UNL     1      -5.601   3.291 127.624  0.00  0.00    +0.000 A 
ATOM     15  H   UNL     1      -2.087   4.747 129.326  0.00  0.00    +0.000 HD
ENDROOT
BRANCH   4  16
ATOM     16  C   UNL     1      -7.489   0.443 125.967  0.00  0.00    +0.000 A 
ATOM     17  C   UNL     1      -7.350  -0.345 127.121  0.00  0.00    +0.000 A 
ATOM     18  F   UNL     1      -6.629   0.114 128.160  0.00  0.00    +0.000 F 
ATOM     19  C   UNL     1      -7.995  -1.592 127.233  0.00  0.00    +0.000 A 
ATOM     20  C   UNL     1      -8.757  -2.052 126.157  0.00  0.00    +0.000 A 
ATOM     21  C   UNL     1      -8.884  -1.292 124.989  0.00  0.00    +0.000 A 
ATOM     22  C   UNL     1      -8.258  -0.048 124.913  0.00  0.00    +0.000 A 
ATOM     23  F   UNL     1      -8.315   0.677 123.785  0.00  0.00    +0.000 F 
BRANCH  19  24
ATOM     24  O   UNL     1      -7.836  -2.275 128.414  0.00  0.00    +0.000 OA
ATOM     25  C   UNL     1      -8.571  -3.491 128.567  0.00  0.00    +0.000 C 
ENDBRANCH  19  24
BRANCH  21  26
ATOM     26  O   UNL     1      -9.634  -1.889 124.011  0.00  0.00    +0.000 OA
ATOM     27  C   UNL     1      -9.260  -3.212 123.643  0.00  0.00    +0.000 C 
ENDBRANCH  21  26
ENDBRANCH   4  16
BRANCH   1  29
ATOM     28  C   UNL     1      -8.557   2.624 129.437  0.00  0.00    +0.000 C 
ATOM     29  C   UNL     1      -7.760   3.688 128.741  0.00  0.00    +0.000 C 
ENDBRANCH   1  29
BRANCH  11  30
ATOM     30  C   UNL     1      -3.615   6.125 131.473  0.00  0.00    +0.000 C 
BRANCH  30  31
ATOM     31  N   UNL     1      -2.525   7.126 131.434  0.00  0.00    +0.000 NA
ATOM     32  C   UNL     1      -1.173   6.577 131.625  0.00  0.00    +0.000 C 
ATOM     33  C   UNL     1      -0.934   6.111 133.040  0.00  0.00    +0.000 C 
ATOM     34  O   UNL     1      -1.435   7.075 134.048  0.00  0.00    +0.000 OA
ATOM     35  C   UNL     1      -2.609   7.937 133.769  0.00  0.00    +0.000 C 
ATOM     36  C   UNL     1      -2.724   8.292 132.307  0.00  0.00    +0.000 C 
ENDBRANCH  30  31
ENDBRANCH  11  30
TORSDOF 6
ENDMDL
MODEL 8
REMARK VINA RESULT:      -7.1      4.764      8.664
REMARK  Name = Pemigatinib
REMARK  9 active torsions:
REMARK  status: ('A' for Active; 'I' for Inactive)
REMARK    1  A    between atoms: C_1  and  C_2
REMARK    2  A    between atoms: C_2  and  N_3
REMARK    3  A    between atoms: N_6  and  C_24
REMARK    4  A    between atoms: C_13  and  C_14
REMARK    5  A    between atoms: C_14  and  N_15
REMARK    6  A    between atoms: C_27  and  O_28
REMARK    7  A    between atoms: O_28  and  C_29
REMARK    8  A    between atoms: C_31  and  O_32
REMARK    9  A    between atoms: O_32  and  C_33
REMARK                            x       y       z     vdW  Elec       q    Type
REMARK                         _______ _______ _______ _____ _____    ______ ____
ROOT
ATOM      1  N   UNL     1      -4.704   2.480 127.440  0.00  0.00    +0.000 N 
ATOM      2  C   UNL     1      -3.638   3.314 127.739  0.00  0.00    +0.000 C 
ATOM      3  O   UNL     1      -2.511   2.899 128.042  0.00  0.00    +0.000 OA
ATOM      4  N   UNL     1      -3.977   4.664 127.770  0.00  0.00    +0.000 N 
ATOM      5  C   UNL     1      -4.626   5.210 126.617  0.00  0.00    +0.000 C 
ATOM      6  C   UNL     1      -5.602   4.265 126.037  0.00  0.00    +0.000 A 
ATOM      7  C   UNL     1      -6.419   4.701 125.009  0.00  0.00    +0.000 A 
ATOM      8  N   UNL     1      -7.289   3.902 124.415  0.00  0.00    +0.000 NA
ATOM      9  C   UNL     1      -7.271   2.668 124.926  0.00  0.00    +0.000 A 
ATOM     10  N   UNL     1      -8.078   1.733 124.465  0.00  0.00    +0.000 N 
ATOM     11  C   UNL     1      -7.989   0.493 125.011  0.00  0.00    +0.000 A 
ATOM     12  C   UNL     1      -6.997   0.682 125.951  0.00  0.00    +0.000 A 
ATOM     13  C   UNL     1      -6.558   2.062 125.911  0.00  0.00    +0.000 A 
ATOM     14  C   UNL     1      -5.644   2.924 126.497  0.00  0.00    +0.000 A 
ATOM     15  H   UNL     1      -8.675   2.098 123.761  0.00  0.00    +0.000 HD
ENDROOT
BRANCH   4  16
ATOM     16  C   UNL     1      -4.101   5.276 129.048  0.00  0.00    +0.000 A 
ATOM     17  C   UNL     1      -5.259   5.214 129.840  0.00  0.00    +0.000 A 
ATOM     18  F   UNL     1      -6.341   4.554 129.390  0.00  0.00    +0.000 F 
ATOM     19  C   UNL     1      -5.293   5.788 131.126  0.00  0.00    +0.000 A 
ATOM     20  C   UNL     1      -4.158   6.454 131.593  0.00  0.00    +0.000 A 
ATOM     21  C   UNL     1      -3.004   6.549 130.807  0.00  0.00    +0.000 A 
ATOM     22  C   UNL     1      -2.986   5.949 129.548  0.00  0.00    +0.000 A 
ATOM     23  F   UNL     1      -1.915   6.072 128.749  0.00  0.00    +0.000 F 
BRANCH  19  24
ATOM     24  O   UNL     1      -6.453   5.642 131.845  0.00  0.00    +0.000 OA
ATOM     25  C   UNL     1      -7.509   6.566 131.571  0.00  0.00    +0.000 C 
ENDBRANCH  19  24
BRANCH  21  26
ATOM     26  O   UNL     1      -1.988   7.260 131.387  0.00  0.00    +0.000 OA
ATOM     27  C   UNL     1      -0.977   6.502 132.042  0.00  0.00    +0.000 C 
ENDBRANCH  21  26
ENDBRANCH   4  16
BRANCH   1  29
ATOM     28  C   UNL     1      -5.245   1.226 129.560  0.00  0.00    +0.000 C 
ATOM     29  C   UNL     1      -4.928   1.189 128.094  0.00  0.00    +0.000 C 
ENDBRANCH   1  29
BRANCH  11  30
ATOM     30  C   UNL     1      -8.803  -0.735 124.651  0.00  0.00    +0.000 C 
BRANCH  30  31
ATOM     31  N   UNL     1      -8.522  -1.516 123.424  0.00  0.00    +0.000 NA
ATOM     32  C   UNL     1      -9.175  -2.833 123.365  0.00  0.00    +0.000 C 
ATOM     33  C   UNL     1      -8.577  -3.817 124.340  0.00  0.00    +0.000 C 
ATOM     34  O   UNL     1      -7.095  -3.782 124.347  0.00  0.00    +0.000 OA
ATOM     35  C   UNL     1      -6.356  -2.531 124.052  0.00  0.00    +0.000 C 
ATOM     36  C   UNL     1      -7.097  -1.643 123.083  0.00  0.00    +0.000 C 
ENDBRANCH  30  31
ENDBRANCH  11  30
TORSDOF 6
ENDMDL
MODEL 9
REMARK VINA RESULT:      -7.0      4.859      7.309
REMARK  Name = Pemigatinib
REMARK  9 active torsions:
REMARK  status: ('A' for Active; 'I' for Inactive)
REMARK    1  A    between atoms: C_1  and  C_2
REMARK    2  A    between atoms: C_2  and  N_3
REMARK    3  A    between atoms: N_6  and  C_24
REMARK    4  A    between atoms: C_13  and  C_14
REMARK    5  A    between atoms: C_14  and  N_15
REMARK    6  A    between atoms: C_27  and  O_28
REMARK    7  A    between atoms: O_28  and  C_29
REMARK    8  A    between atoms: C_31  and  O_32
REMARK    9  A    between atoms: O_32  and  C_33
REMARK                            x       y       z     vdW  Elec       q    Type
REMARK                         _______ _______ _______ _____ _____    ______ ____
ROOT
ATOM      1  N   UNL     1      -6.849   2.147 128.010  0.00  0.00    +0.000 N 
ATOM      2  C   UNL     1      -7.973   1.789 127.282  0.00  0.00    +0.000 C 
ATOM      3  O   UNL     1      -9.013   1.358 127.800  0.00  0.00    +0.000 OA
ATOM      4  N   UNL     1      -7.792   1.860 125.904  0.00  0.00    +0.000 N 
ATOM      5  C   UNL     1      -7.317   3.097 125.361  0.00  0.00    +0.000 C 
ATOM      6  C   UNL     1      -6.295   3.720 126.226  0.00  0.00    +0.000 A 
ATOM      7  C   UNL     1      -5.630   4.843 125.767  0.00  0.00    +0.000 A 
ATOM      8  N   UNL     1      -4.730   5.477 126.500  0.00  0.00    +0.000 NA
ATOM      9  C   UNL     1      -4.559   4.905 127.694  0.00  0.00    +0.000 A 
ATOM     10  N   UNL     1      -3.694   5.393 128.561  0.00  0.00    +0.000 N 
ATOM     11  C   UNL     1      -3.590   4.779 129.768  0.00  0.00    +0.000 A 
ATOM     12  C   UNL     1      -4.507   3.759 129.632  0.00  0.00    +0.000 A 
ATOM     13  C   UNL     1      -5.105   3.825 128.314  0.00  0.00    +0.000 A 
ATOM     14  C   UNL     1      -6.057   3.198 127.524  0.00  0.00    +0.000 A 
ATOM     15  H   UNL     1      -3.209   6.170 128.176  0.00  0.00    +0.000 HD
ENDROOT
BRANCH   4  16
ATOM     16  C   UNL     1      -7.624   0.632 125.204  0.00  0.00    +0.000 A 
ATOM     17  C   UNL     1      -6.400  -0.046 125.090  0.00  0.00    +0.000 A 
ATOM     18  F   UNL     1      -5.294   0.473 125.653  0.00  0.00    +0.000 F 
ATOM     19  C   UNL     1      -6.317  -1.292 124.438  0.00  0.00    +0.000 A 
ATOM     20  C   UNL     1      -7.474  -1.832 123.874  0.00  0.00    +0.000 A 
ATOM     21  C   UNL     1      -8.697  -1.157 123.954  0.00  0.00    +0.000 A 
ATOM     22  C   UNL     1      -8.760   0.062 124.629  0.00  0.00    +0.000 A 
ATOM     23  F   UNL     1      -9.905   0.759 124.674  0.00  0.00    +0.000 F 
BRANCH  19  24
ATOM     24  O   UNL     1      -5.087  -1.902 124.410  0.00  0.00    +0.000 OA
ATOM     25  C   UNL     1      -4.954  -3.060 123.584  0.00  0.00    +0.000 C 
ENDBRANCH  19  24
BRANCH  21  26
ATOM     26  O   UNL     1      -9.733  -1.795 123.326  0.00  0.00    +0.000 OA
ATOM     27  C   UNL     1      -9.696  -3.218 123.329  0.00  0.00    +0.000 C 
ENDBRANCH  21  26
ENDBRANCH   4  16
BRANCH   1  29
ATOM     28  C   UNL     1      -5.764   0.117 129.039  0.00  0.00    +0.000 C 
ATOM     29  C   UNL     1      -6.419   1.453 129.226  0.00  0.00    +0.000 C 
ENDBRANCH   1  29
BRANCH  11  30
ATOM     30  C   UNL     1      -2.675   5.154 130.918  0.00  0.00    +0.000 C 
BRANCH  30  31
ATOM     31  N   UNL     1      -2.339   6.566 131.210  0.00  0.00    +0.000 NA
ATOM     32  C   UNL     1      -1.058   6.768 131.904  0.00  0.00    +0.000 C 
ATOM     33  C   UNL     1      -1.097   6.297 133.337  0.00  0.00    +0.000 C 
ATOM     34  O   UNL     1      -2.334   6.714 134.039  0.00  0.00    +0.000 OA
ATOM     35  C   UNL     1      -3.612   6.881 133.307  0.00  0.00    +0.000 C 
ATOM     36  C   UNL     1      -3.402   7.329 131.882  0.00  0.00    +0.000 C 
ENDBRANCH  30  31
ENDBRANCH  11  30
TORSDOF 6
ENDMDL
