MODEL 1
REMARK VINA RESULT:      -7.1      0.000      0.000
REMARK  Name = Pemirolast
REMARK  2 active torsions:
REMARK  status: ('A' for Active; 'I' for Inactive)
REMARK    1  A    between atoms: C_1  and  C_2
REMARK    2  A    between atoms: C_9  and  C_13
REMARK                            x       y       z     vdW  Elec       q    Type
REMARK                         _______ _______ _______ _____ _____    ______ ____
ROOT
ATOM      1  C   UNL     1      -9.001   4.266 134.053  0.00  0.00    +0.000 C 
ATOM      2  C   UNL     1      -8.501   5.277 133.077  0.00  0.00    +0.000 A 
ATOM      3  C   UNL     1      -7.206   5.609 132.961  0.00  0.00    +0.000 A 
ATOM      4  C   UNL     1      -6.754   6.468 131.905  0.00  0.00    +0.000 A 
ATOM      5  C   UNL     1      -7.600   6.810 130.931  0.00  0.00    +0.000 A 
ATOM      6  N   UNL     1      -8.969   6.600 131.055  0.00  0.00    +0.000 N 
ATOM      7  C   UNL     1      -9.812   7.258 130.166  0.00  0.00    +0.000 A 
ATOM      8  O   UNL     1      -9.402   7.958 129.232  0.00  0.00    +0.000 OA
ATOM      9  C   UNL     1     -11.261   7.160 130.457  0.00  0.00    +0.000 A 
ATOM     10  C   UNL     1     -11.618   6.475 131.552  0.00  0.00    +0.000 A 
ATOM     11  N   UNL     1     -10.765   5.840 132.409  0.00  0.00    +0.000 NA
ATOM     12  C   UNL     1      -9.494   5.925 132.156  0.00  0.00    +0.000 A 
ENDROOT
BRANCH   9  13
ATOM     13  C   UNL     1     -12.170   7.795 129.578  0.00  0.00    +0.000 A 
ATOM     14  N   UNL     1     -12.552   9.081 129.615  0.00  0.00    +0.000 NA
ATOM     15  N   UNL     1     -13.414   9.097 128.594  0.00  0.00    +0.000 N 
ATOM     16  N   UNL     1     -13.539   7.952 127.911  0.00  0.00    +0.000 NA
ATOM     17  N   UNL     1     -12.733   7.102 128.535  0.00  0.00    +0.000 NA
ATOM     18  H   UNL     1     -13.931   9.935 128.342  0.00  0.00    +0.000 HD
ENDBRANCH   9  13
TORSDOF 1
ENDMDL
MODEL 2
REMARK VINA RESULT:      -6.8      1.219      2.471
REMARK  Name = Pemirolast
REMARK  2 active torsions:
REMARK  status: ('A' for Active; 'I' for Inactive)
REMARK    1  A    between atoms: C_1  and  C_2
REMARK    2  A    between atoms: C_9  and  C_13
REMARK                            x       y       z     vdW  Elec       q    Type
REMARK                         _______ _______ _______ _____ _____    ______ ____
ROOT
ATOM      1  C   UNL     1      -6.158   6.736 131.593  0.00  0.00    +0.000 C 
ATOM      2  C   UNL     1      -7.491   6.167 131.946  0.00  0.00    +0.000 A 
ATOM      3  C   UNL     1      -7.669   5.270 132.928  0.00  0.00    +0.000 A 
ATOM      4  C   UNL     1      -8.986   4.870 133.334  0.00  0.00    +0.000 A 
ATOM      5  C   UNL     1     -10.047   5.515 132.844  0.00  0.00    +0.000 A 
ATOM      6  N   UNL     1      -9.936   6.362 131.747  0.00  0.00    +0.000 N 
ATOM      7  C   UNL     1     -11.105   6.743 131.097  0.00  0.00    +0.000 A 
ATOM      8  O   UNL     1     -12.234   6.426 131.489  0.00  0.00    +0.000 OA
ATOM      9  C   UNL     1     -10.926   7.481 129.825  0.00  0.00    +0.000 A 
ATOM     10  C   UNL     1      -9.668   7.687 129.411  0.00  0.00    +0.000 A 
ATOM     11  N   UNL     1      -8.537   7.299 130.072  0.00  0.00    +0.000 NA
ATOM     12  C   UNL     1      -8.692   6.651 131.187  0.00  0.00    +0.000 A 
ENDROOT
BRANCH   9  13
ATOM     13  C   UNL     1     -12.079   7.910 129.126  0.00  0.00    +0.000 A 
ATOM     14  N   UNL     1     -12.840   7.168 128.308  0.00  0.00    +0.000 NA
ATOM     15  N   UNL     1     -13.738   8.083 127.930  0.00  0.00    +0.000 N 
ATOM     16  N   UNL     1     -13.618   9.293 128.495  0.00  0.00    +0.000 NA
ATOM     17  N   UNL     1     -12.551   9.191 129.277  0.00  0.00    +0.000 NA
ATOM     18  H   UNL     1     -14.476   7.868 127.267  0.00  0.00    +0.000 HD
ENDBRANCH   9  13
TORSDOF 1
ENDMDL
MODEL 3
REMARK VINA RESULT:      -6.8      2.219      5.802
REMARK  Name = Pemirolast
REMARK  2 active torsions:
REMARK  status: ('A' for Active; 'I' for Inactive)
REMARK    1  A    between atoms: C_1  and  C_2
REMARK    2  A    between atoms: C_9  and  C_13
REMARK                            x       y       z     vdW  Elec       q    Type
REMARK                         _______ _______ _______ _____ _____    ______ ____
ROOT
ATOM      1  C   UNL     1     -10.514   7.414 126.475  0.00  0.00    +0.000 C 
ATOM      2  C   UNL     1     -11.267   7.664 127.739  0.00  0.00    +0.000 A 
ATOM      3  C   UNL     1     -12.403   8.376 127.788  0.00  0.00    +0.000 A 
ATOM      4  C   UNL     1     -13.172   8.458 128.997  0.00  0.00    +0.000 A 
ATOM      5  C   UNL     1     -12.844   7.688 130.036  0.00  0.00    +0.000 A 
ATOM      6  N   UNL     1     -11.621   7.027 130.089  0.00  0.00    +0.000 N 
ATOM      7  C   UNL     1     -11.211   6.513 131.315  0.00  0.00    +0.000 A 
ATOM      8  O   UNL     1     -11.909   6.553 132.335  0.00  0.00    +0.000 OA
ATOM      9  C   UNL     1      -9.825   5.994 131.366  0.00  0.00    +0.000 A 
ATOM     10  C   UNL     1      -9.096   6.090 130.246  0.00  0.00    +0.000 A 
ATOM     11  N   UNL     1      -9.527   6.601 129.055  0.00  0.00    +0.000 NA
ATOM     12  C   UNL     1     -10.742   7.058 129.008  0.00  0.00    +0.000 A 
ENDROOT
BRANCH   9  13
ATOM     13  C   UNL     1      -9.356   5.443 132.582  0.00  0.00    +0.000 A 
ATOM     14  N   UNL     1      -8.788   6.113 133.596  0.00  0.00    +0.000 NA
ATOM     15  N   UNL     1      -8.534   5.100 134.432  0.00  0.00    +0.000 N 
ATOM     16  N   UNL     1      -8.953   3.891 134.034  0.00  0.00    +0.000 NA
ATOM     17  N   UNL     1      -9.493   4.101 132.840  0.00  0.00    +0.000 NA
ATOM     18  H   UNL     1      -8.065   5.243 135.321  0.00  0.00    +0.000 HD
ENDBRANCH   9  13
TORSDOF 1
ENDMDL
MODEL 4
REMARK VINA RESULT:      -6.7      2.071      2.773
REMARK  Name = Pemirolast
REMARK  2 active torsions:
REMARK  status: ('A' for Active; 'I' for Inactive)
REMARK    1  A    between atoms: C_1  and  C_2
REMARK    2  A    between atoms: C_9  and  C_13
REMARK                            x       y       z     vdW  Elec       q    Type
REMARK                         _______ _______ _______ _____ _____    ______ ____
ROOT
ATOM      1  C   UNL     1      -7.636   4.406 134.325  0.00  0.00    +0.000 C 
ATOM      2  C   UNL     1      -8.481   3.866 133.220  0.00  0.00    +0.000 A 
ATOM      3  C   UNL     1      -8.798   2.567 133.106  0.00  0.00    +0.000 A 
ATOM      4  C   UNL     1      -9.739   2.120 132.119  0.00  0.00    +0.000 A 
ATOM      5  C   UNL     1     -10.429   3.020 131.415  0.00  0.00    +0.000 A 
ATOM      6  N   UNL     1     -10.064   4.362 131.402  0.00  0.00    +0.000 N 
ATOM      7  C   UNL     1     -10.612   5.176 130.417  0.00  0.00    +0.000 A 
ATOM      8  O   UNL     1     -11.457   4.783 129.603  0.00  0.00    +0.000 OA
ATOM      9  C   UNL     1     -10.048   6.542 130.320  0.00  0.00    +0.000 A 
ATOM     10  C   UNL     1      -9.056   6.854 131.166  0.00  0.00    +0.000 A 
ATOM     11  N   UNL     1      -8.537   6.031 132.125  0.00  0.00    +0.000 NA
ATOM     12  C   UNL     1      -9.030   4.832 132.210  0.00  0.00    +0.000 A 
ENDROOT
BRANCH   9  13
ATOM     13  C   UNL     1     -10.577   7.423 129.348  0.00  0.00    +0.000 A 
ATOM     14  N   UNL     1     -11.588   8.289 129.519  0.00  0.00    +0.000 NA
ATOM     15  N   UNL     1     -11.659   8.810 128.290  0.00  0.00    +0.000 N 
ATOM     16  N   UNL     1     -10.743   8.377 127.414  0.00  0.00    +0.000 NA
ATOM     17  N   UNL     1     -10.032   7.484 128.089  0.00  0.00    +0.000 NA
ATOM     18  H   UNL     1     -12.357   9.505 128.042  0.00  0.00    +0.000 HD
ENDBRANCH   9  13
TORSDOF 1
ENDMDL
MODEL 5
REMARK VINA RESULT:      -6.7      9.135      9.649
REMARK  Name = Pemirolast
REMARK  2 active torsions:
REMARK  status: ('A' for Active; 'I' for Inactive)
REMARK    1  A    between atoms: C_1  and  C_2
REMARK    2  A    between atoms: C_9  and  C_13
REMARK                            x       y       z     vdW  Elec       q    Type
REMARK                         _______ _______ _______ _____ _____    ______ ____
ROOT
ATOM      1  C   UNL     1      -9.510  -3.274 123.584  0.00  0.00    +0.000 C 
ATOM      2  C   UNL     1      -8.268  -2.669 124.148  0.00  0.00    +0.000 A 
ATOM      3  C   UNL     1      -7.134  -3.361 124.337  0.00  0.00    +0.000 A 
ATOM      4  C   UNL     1      -5.923  -2.702 124.734  0.00  0.00    +0.000 A 
ATOM      5  C   UNL     1      -5.880  -1.368 124.758  0.00  0.00    +0.000 A 
ATOM      6  N   UNL     1      -7.042  -0.605 124.690  0.00  0.00    +0.000 N 
ATOM      7  C   UNL     1      -6.959   0.739 125.039  0.00  0.00    +0.000 A 
ATOM      8  O   UNL     1      -5.897   1.300 125.333  0.00  0.00    +0.000 OA
ATOM      9  C   UNL     1      -8.249   1.459 125.140  0.00  0.00    +0.000 A 
ATOM     10  C   UNL     1      -9.364   0.750 124.914  0.00  0.00    +0.000 A 
ATOM     11  N   UNL     1      -9.413  -0.572 124.574  0.00  0.00    +0.000 NA
ATOM     12  C   UNL     1      -8.283  -1.206 124.486  0.00  0.00    +0.000 A 
ENDROOT
BRANCH   9  13
ATOM     13  C   UNL     1      -8.229   2.834 125.474  0.00  0.00    +0.000 A 
ATOM     14  N   UNL     1      -8.239   3.865 124.616  0.00  0.00    +0.000 NA
ATOM     15  N   UNL     1      -8.183   4.886 125.478  0.00  0.00    +0.000 N 
ATOM     16  N   UNL     1      -8.199   4.560 126.777  0.00  0.00    +0.000 NA
ATOM     17  N   UNL     1      -8.237   3.234 126.788  0.00  0.00    +0.000 NA
ATOM     18  H   UNL     1      -8.145   5.851 125.163  0.00  0.00    +0.000 HD
ENDBRANCH   9  13
TORSDOF 1
ENDMDL
MODEL 6
REMARK VINA RESULT:      -6.5      9.132      9.646
REMARK  Name = Pemirolast
REMARK  2 active torsions:
REMARK  status: ('A' for Active; 'I' for Inactive)
REMARK    1  A    between atoms: C_1  and  C_2
REMARK    2  A    between atoms: C_9  and  C_13
REMARK                            x       y       z     vdW  Elec       q    Type
REMARK                         _______ _______ _______ _____ _____    ______ ____
ROOT
ATOM      1  C   UNL     1      -9.019  -3.343 126.763  0.00  0.00    +0.000 C 
ATOM      2  C   UNL     1      -8.904  -2.690 125.427  0.00  0.00    +0.000 A 
ATOM      3  C   UNL     1      -9.057  -3.351 124.270  0.00  0.00    +0.000 A 
ATOM      4  C   UNL     1      -9.092  -2.653 123.017  0.00  0.00    +0.000 A 
ATOM      5  C   UNL     1      -9.137  -1.319 123.012  0.00  0.00    +0.000 A 
ATOM      6  N   UNL     1      -8.863  -0.581 124.159  0.00  0.00    +0.000 N 
ATOM      7  C   UNL     1      -8.612   0.779 124.013  0.00  0.00    +0.000 A 
ATOM      8  O   UNL     1      -8.693   1.373 122.931  0.00  0.00    +0.000 OA
ATOM      9  C   UNL     1      -8.135   1.481 125.227  0.00  0.00    +0.000 A 
ATOM     10  C   UNL     1      -7.967   0.743 126.333  0.00  0.00    +0.000 A 
ATOM     11  N   UNL     1      -8.220  -0.595 126.445  0.00  0.00    +0.000 NA
ATOM     12  C   UNL     1      -8.638  -1.213 125.381  0.00  0.00    +0.000 A 
ENDROOT
BRANCH   9  13
ATOM     13  C   UNL     1      -7.880   2.871 125.146  0.00  0.00    +0.000 A 
ATOM     14  N   UNL     1      -6.731   3.451 124.766  0.00  0.00    +0.000 NA
ATOM     15  N   UNL     1      -7.062   4.739 124.909  0.00  0.00    +0.000 N 
ATOM     16  N   UNL     1      -8.325   4.983 125.284  0.00  0.00    +0.000 NA
ATOM     17  N   UNL     1      -8.867   3.781 125.434  0.00  0.00    +0.000 NA
ATOM     18  H   UNL     1      -6.399   5.486 124.729  0.00  0.00    +0.000 HD
ENDBRANCH   9  13
TORSDOF 1
ENDMDL
MODEL 7
REMARK VINA RESULT:      -6.4      2.587      6.102
REMARK  Name = Pemirolast
REMARK  2 active torsions:
REMARK  status: ('A' for Active; 'I' for Inactive)
REMARK    1  A    between atoms: C_1  and  C_2
REMARK    2  A    between atoms: C_9  and  C_13
REMARK                            x       y       z     vdW  Elec       q    Type
REMARK                         _______ _______ _______ _____ _____    ______ ____
ROOT
ATOM      1  C   UNL     1     -10.640   8.508 128.119  0.00  0.00    +0.000 C 
ATOM      2  C   UNL     1     -11.038   7.919 129.430  0.00  0.00    +0.000 A 
ATOM      3  C   UNL     1     -12.302   7.920 129.882  0.00  0.00    +0.000 A 
ATOM      4  C   UNL     1     -12.662   7.206 131.073  0.00  0.00    +0.000 A 
ATOM      5  C   UNL     1     -11.769   6.398 131.648  0.00  0.00    +0.000 A 
ATOM      6  N   UNL     1     -10.423   6.445 131.302  0.00  0.00    +0.000 N 
ATOM      7  C   UNL     1      -9.511   5.821 132.148  0.00  0.00    +0.000 A 
ATOM      8  O   UNL     1      -9.845   5.171 133.145  0.00  0.00    +0.000 OA
ATOM      9  C   UNL     1      -8.081   6.063 131.847  0.00  0.00    +0.000 A 
ATOM     10  C   UNL     1      -7.804   6.872 130.815  0.00  0.00    +0.000 A 
ATOM     11  N   UNL     1      -8.723   7.472 130.002  0.00  0.00    +0.000 NA
ATOM     12  C   UNL     1      -9.977   7.262 130.265  0.00  0.00    +0.000 A 
ENDROOT
BRANCH   9  13
ATOM     13  C   UNL     1      -7.106   5.441 132.661  0.00  0.00    +0.000 A 
ATOM     14  N   UNL     1      -6.635   5.897 133.833  0.00  0.00    +0.000 NA
ATOM     15  N   UNL     1      -5.746   4.939 134.115  0.00  0.00    +0.000 N 
ATOM     16  N   UNL     1      -5.684   3.920 133.247  0.00  0.00    +0.000 NA
ATOM     17  N   UNL     1      -6.566   4.230 132.304  0.00  0.00    +0.000 NA
ATOM     18  H   UNL     1      -5.164   4.975 134.946  0.00  0.00    +0.000 HD
ENDBRANCH   9  13
TORSDOF 1
ENDMDL
MODEL 8
REMARK VINA RESULT:      -6.2     10.459     11.752
REMARK  Name = Pemirolast
REMARK  2 active torsions:
REMARK  status: ('A' for Active; 'I' for Inactive)
REMARK    1  A    between atoms: C_1  and  C_2
REMARK    2  A    between atoms: C_9  and  C_13
REMARK                            x       y       z     vdW  Elec       q    Type
REMARK                         _______ _______ _______ _____ _____    ______ ____
ROOT
ATOM      1  C   UNL     1      -9.390  -3.287 123.588  0.00  0.00    +0.000 C 
ATOM      2  C   UNL     1      -8.048  -2.971 124.157  0.00  0.00    +0.000 A 
ATOM      3  C   UNL     1      -6.979  -2.678 123.401  0.00  0.00    +0.000 A 
ATOM      4  C   UNL     1      -5.753  -2.228 123.995  0.00  0.00    +0.000 A 
ATOM      5  C   UNL     1      -5.723  -1.941 125.298  0.00  0.00    +0.000 A 
ATOM      6  N   UNL     1      -6.751  -2.332 126.149  0.00  0.00    +0.000 N 
ATOM      7  C   UNL     1      -6.515  -2.289 127.519  0.00  0.00    +0.000 A 
ATOM      8  O   UNL     1      -5.468  -1.854 128.014  0.00  0.00    +0.000 OA
ATOM      9  C   UNL     1      -7.560  -2.896 128.375  0.00  0.00    +0.000 A 
ATOM     10  C   UNL     1      -8.612  -3.447 127.754  0.00  0.00    +0.000 A 
ATOM     11  N   UNL     1      -8.817  -3.475 126.403  0.00  0.00    +0.000 NA
ATOM     12  C   UNL     1      -7.901  -2.944 125.651  0.00  0.00    +0.000 A 
ENDROOT
BRANCH   9  13
ATOM     13  C   UNL     1      -7.384  -2.868 129.778  0.00  0.00    +0.000 A 
ATOM     14  N   UNL     1      -6.749  -3.786 130.522  0.00  0.00    +0.000 NA
ATOM     15  N   UNL     1      -6.920  -3.259 131.739  0.00  0.00    +0.000 N 
ATOM     16  N   UNL     1      -7.549  -2.077 131.784  0.00  0.00    +0.000 NA
ATOM     17  N   UNL     1      -7.849  -1.810 130.520  0.00  0.00    +0.000 NA
ATOM     18  H   UNL     1      -6.579  -3.721 132.576  0.00  0.00    +0.000 HD
ENDBRANCH   9  13
TORSDOF 1
ENDMDL
MODEL 9
REMARK VINA RESULT:      -6.1      2.082      2.595
REMARK  Name = Pemirolast
REMARK  2 active torsions:
REMARK  status: ('A' for Active; 'I' for Inactive)
REMARK    1  A    between atoms: C_1  and  C_2
REMARK    2  A    between atoms: C_9  and  C_13
REMARK                            x       y       z     vdW  Elec       q    Type
REMARK                         _______ _______ _______ _____ _____    ______ ____
ROOT
ATOM      1  C   UNL     1      -8.622   0.942 132.178  0.00  0.00    +0.000 C 
ATOM      2  C   UNL     1      -8.672   2.359 132.640  0.00  0.00    +0.000 A 
ATOM      3  C   UNL     1      -7.989   2.810 133.704  0.00  0.00    +0.000 A 
ATOM      4  C   UNL     1      -7.946   4.210 134.016  0.00  0.00    +0.000 A 
ATOM      5  C   UNL     1      -8.453   5.090 133.151  0.00  0.00    +0.000 A 
ATOM      6  N   UNL     1      -9.270   4.685 132.102  0.00  0.00    +0.000 N 
ATOM      7  C   UNL     1     -10.014   5.658 131.442  0.00  0.00    +0.000 A 
ATOM      8  O   UNL     1      -9.928   6.866 131.695  0.00  0.00    +0.000 OA
ATOM      9  C   UNL     1     -11.012   5.159 130.468  0.00  0.00    +0.000 A 
ATOM     10  C   UNL     1     -11.121   3.830 130.334  0.00  0.00    +0.000 A 
ATOM     11  N   UNL     1     -10.376   2.897 130.998  0.00  0.00    +0.000 NA
ATOM     12  C   UNL     1      -9.501   3.333 131.853  0.00  0.00    +0.000 A 
ENDROOT
BRANCH   9  13
ATOM     13  C   UNL     1     -11.788   6.102 129.754  0.00  0.00    +0.000 A 
ATOM     14  N   UNL     1     -12.826   6.807 130.229  0.00  0.00    +0.000 NA
ATOM     15  N   UNL     1     -13.167   7.489 129.130  0.00  0.00    +0.000 N 
ATOM     16  N   UNL     1     -12.389   7.299 128.056  0.00  0.00    +0.000 NA
ATOM     17  N   UNL     1     -11.488   6.408 128.449  0.00  0.00    +0.000 NA
ATOM     18  H   UNL     1     -13.959   8.123 129.118  0.00  0.00    +0.000 HD
ENDBRANCH   9  13
TORSDOF 1
ENDMDL
