MODEL 1
REMARK VINA RESULT:      -6.4      0.000      0.000
REMARK  Name = Pemoline
REMARK  1 active torsions:
REMARK  status: ('A' for Active; 'I' for Inactive)
REMARK    1  A    between atoms: C_6  and  C_8
REMARK                            x       y       z     vdW  Elec       q    Type
REMARK                         _______ _______ _______ _____ _____    ______ ____
ROOT
ATOM      1  N   UNL     1     -13.071  10.436 129.455  0.00  0.00    +0.000 N 
ATOM      2  C   UNL     1     -12.791   9.155 129.156  0.00  0.00    +0.000 C 
ATOM      3  N   UNL     1     -12.296   8.717 128.056  0.00  0.00    +0.000 NA
ATOM      4  C   UNL     1     -12.148   7.369 128.250  0.00  0.00    +0.000 C 
ATOM      5  O   UNL     1     -11.861   6.555 127.377  0.00  0.00    +0.000 OA
ATOM      6  C   UNL     1     -12.365   7.038 129.713  0.00  0.00    +0.000 C 
ATOM      7  O   UNL     1     -13.022   8.257 130.144  0.00  0.00    +0.000 OA
ATOM      8  H   UNL     1     -12.772  11.157 128.809  0.00  0.00    +0.000 HD
ATOM      9  H   UNL     1     -13.443  10.716 130.350  0.00  0.00    +0.000 HD
ENDROOT
BRANCH   6  10
ATOM     10  C   UNL     1     -11.075   6.860 130.489  0.00  0.00    +0.000 A 
ATOM     11  C   UNL     1      -9.827   7.256 129.984  0.00  0.00    +0.000 A 
ATOM     12  C   UNL     1      -8.656   6.958 130.695  0.00  0.00    +0.000 A 
ATOM     13  C   UNL     1      -8.726   6.351 131.949  0.00  0.00    +0.000 A 
ATOM     14  C   UNL     1      -9.959   5.999 132.481  0.00  0.00    +0.000 A 
ATOM     15  C   UNL     1     -11.115   6.249 131.755  0.00  0.00    +0.000 A 
ENDBRANCH   6  10
TORSDOF 1
ENDMDL
MODEL 2
REMARK VINA RESULT:      -6.3      2.802      4.689
REMARK  Name = Pemoline
REMARK  1 active torsions:
REMARK  status: ('A' for Active; 'I' for Inactive)
REMARK    1  A    between atoms: C_6  and  C_8
REMARK                            x       y       z     vdW  Elec       q    Type
REMARK                         _______ _______ _______ _____ _____    ______ ____
ROOT
ATOM      1  N   UNL     1     -10.901   3.534 130.821  0.00  0.00    +0.000 N 
ATOM      2  C   UNL     1     -10.615   4.845 130.732  0.00  0.00    +0.000 C 
ATOM      3  N   UNL     1      -9.613   5.369 130.125  0.00  0.00    +0.000 NA
ATOM      4  C   UNL     1      -9.783   6.721 130.270  0.00  0.00    +0.000 C 
ATOM      5  O   UNL     1      -8.952   7.575 129.978  0.00  0.00    +0.000 OA
ATOM      6  C   UNL     1     -11.166   7.003 130.822  0.00  0.00    +0.000 C 
ATOM      7  O   UNL     1     -11.508   5.682 131.312  0.00  0.00    +0.000 OA
ATOM      8  H   UNL     1     -10.350   2.883 130.275  0.00  0.00    +0.000 HD
ATOM      9  H   UNL     1     -11.719   3.188 131.299  0.00  0.00    +0.000 HD
ENDROOT
BRANCH   6  10
ATOM     10  C   UNL     1     -12.165   7.423 129.762  0.00  0.00    +0.000 A 
ATOM     11  C   UNL     1     -12.852   6.497 128.961  0.00  0.00    +0.000 A 
ATOM     12  C   UNL     1     -13.673   6.946 127.918  0.00  0.00    +0.000 A 
ATOM     13  C   UNL     1     -13.887   8.312 127.724  0.00  0.00    +0.000 A 
ATOM     14  C   UNL     1     -13.251   9.235 128.542  0.00  0.00    +0.000 A 
ATOM     15  C   UNL     1     -12.399   8.792 129.544  0.00  0.00    +0.000 A 
ENDBRANCH   6  10
TORSDOF 1
ENDMDL
MODEL 3
REMARK VINA RESULT:      -6.2      1.255      2.671
REMARK  Name = Pemoline
REMARK  1 active torsions:
REMARK  status: ('A' for Active; 'I' for Inactive)
REMARK    1  A    between atoms: C_6  and  C_8
REMARK                            x       y       z     vdW  Elec       q    Type
REMARK                         _______ _______ _______ _____ _____    ______ ____
ROOT
ATOM      1  N   UNL     1     -12.630   6.663 126.245  0.00  0.00    +0.000 N 
ATOM      2  C   UNL     1     -12.404   7.567 127.214  0.00  0.00    +0.000 C 
ATOM      3  N   UNL     1     -13.291   8.199 127.892  0.00  0.00    +0.000 NA
ATOM      4  C   UNL     1     -12.577   8.958 128.783  0.00  0.00    +0.000 C 
ATOM      5  O   UNL     1     -13.046   9.835 129.501  0.00  0.00    +0.000 OA
ATOM      6  C   UNL     1     -11.123   8.530 128.764  0.00  0.00    +0.000 C 
ATOM      7  O   UNL     1     -11.102   7.787 127.519  0.00  0.00    +0.000 OA
ATOM      8  H   UNL     1     -13.582   6.353 126.090  0.00  0.00    +0.000 HD
ATOM      9  H   UNL     1     -11.883   6.186 125.762  0.00  0.00    +0.000 HD
ENDROOT
BRANCH   6  10
ATOM     10  C   UNL     1     -10.752   7.607 129.908  0.00  0.00    +0.000 A 
ATOM     11  C   UNL     1     -11.708   7.053 130.775  0.00  0.00    +0.000 A 
ATOM     12  C   UNL     1     -11.297   6.303 131.885  0.00  0.00    +0.000 A 
ATOM     13  C   UNL     1      -9.944   6.022 132.087  0.00  0.00    +0.000 A 
ATOM     14  C   UNL     1      -8.994   6.524 131.208  0.00  0.00    +0.000 A 
ATOM     15  C   UNL     1      -9.397   7.309 130.137  0.00  0.00    +0.000 A 
ENDBRANCH   6  10
TORSDOF 1
ENDMDL
MODEL 4
REMARK VINA RESULT:      -6.2      2.805      4.735
REMARK  Name = Pemoline
REMARK  1 active torsions:
REMARK  status: ('A' for Active; 'I' for Inactive)
REMARK    1  A    between atoms: C_6  and  C_8
REMARK                            x       y       z     vdW  Elec       q    Type
REMARK                         _______ _______ _______ _____ _____    ______ ____
ROOT
ATOM      1  N   UNL     1      -8.552   4.783 129.040  0.00  0.00    +0.000 N 
ATOM      2  C   UNL     1      -9.492   5.198 129.906  0.00  0.00    +0.000 C 
ATOM      3  N   UNL     1      -9.304   5.912 130.956  0.00  0.00    +0.000 NA
ATOM      4  C   UNL     1     -10.557   6.113 131.473  0.00  0.00    +0.000 C 
ATOM      5  O   UNL     1     -10.799   6.606 132.570  0.00  0.00    +0.000 OA
ATOM      6  C   UNL     1     -11.600   5.657 130.472  0.00  0.00    +0.000 C 
ATOM      7  O   UNL     1     -10.766   4.852 129.600  0.00  0.00    +0.000 OA
ATOM      8  H   UNL     1      -7.611   5.145 129.142  0.00  0.00    +0.000 HD
ATOM      9  H   UNL     1      -8.772   4.237 128.220  0.00  0.00    +0.000 HD
ENDROOT
BRANCH   6  10
ATOM     10  C   UNL     1     -12.211   6.794 129.677  0.00  0.00    +0.000 A 
ATOM     11  C   UNL     1     -11.948   8.143 129.962  0.00  0.00    +0.000 A 
ATOM     12  C   UNL     1     -12.632   9.152 129.271  0.00  0.00    +0.000 A 
ATOM     13  C   UNL     1     -13.509   8.829 128.234  0.00  0.00    +0.000 A 
ATOM     14  C   UNL     1     -13.739   7.499 127.911  0.00  0.00    +0.000 A 
ATOM     15  C   UNL     1     -13.099   6.498 128.629  0.00  0.00    +0.000 A 
ENDBRANCH   6  10
TORSDOF 1
ENDMDL
MODEL 5
REMARK VINA RESULT:      -6.0      3.318      4.579
REMARK  Name = Pemoline
REMARK  1 active torsions:
REMARK  status: ('A' for Active; 'I' for Inactive)
REMARK    1  A    between atoms: C_6  and  C_8
REMARK                            x       y       z     vdW  Elec       q    Type
REMARK                         _______ _______ _______ _____ _____    ______ ____
ROOT
ATOM      1  N   UNL     1      -9.930   4.631 133.363  0.00  0.00    +0.000 N 
ATOM      2  C   UNL     1      -9.407   5.160 132.244  0.00  0.00    +0.000 C 
ATOM      3  N   UNL     1      -8.986   4.514 131.217  0.00  0.00    +0.000 NA
ATOM      4  C   UNL     1      -8.600   5.483 130.328  0.00  0.00    +0.000 C 
ATOM      5  O   UNL     1      -7.983   5.282 129.287  0.00  0.00    +0.000 OA
ATOM      6  C   UNL     1      -9.074   6.838 130.814  0.00  0.00    +0.000 C 
ATOM      7  O   UNL     1      -9.368   6.513 132.196  0.00  0.00    +0.000 OA
ATOM      8  H   UNL     1     -10.122   3.636 133.382  0.00  0.00    +0.000 HD
ATOM      9  H   UNL     1     -10.261   5.199 134.129  0.00  0.00    +0.000 HD
ENDROOT
BRANCH   6  10
ATOM     10  C   UNL     1     -10.339   7.315 130.128  0.00  0.00    +0.000 A 
ATOM     11  C   UNL     1     -10.325   7.998 128.902  0.00  0.00    +0.000 A 
ATOM     12  C   UNL     1     -11.515   8.518 128.375  0.00  0.00    +0.000 A 
ATOM     13  C   UNL     1     -12.733   8.283 129.014  0.00  0.00    +0.000 A 
ATOM     14  C   UNL     1     -12.765   7.566 130.202  0.00  0.00    +0.000 A 
ATOM     15  C   UNL     1     -11.581   7.093 130.750  0.00  0.00    +0.000 A 
ENDBRANCH   6  10
TORSDOF 1
ENDMDL
MODEL 6
REMARK VINA RESULT:      -5.9      1.772      2.148
REMARK  Name = Pemoline
REMARK  1 active torsions:
REMARK  status: ('A' for Active; 'I' for Inactive)
REMARK    1  A    between atoms: C_6  and  C_8
REMARK                            x       y       z     vdW  Elec       q    Type
REMARK                         _______ _______ _______ _____ _____    ______ ____
ROOT
ATOM      1  N   UNL     1     -10.539   7.814 125.868  0.00  0.00    +0.000 N 
ATOM      2  C   UNL     1     -11.391   7.706 126.902  0.00  0.00    +0.000 C 
ATOM      3  N   UNL     1     -12.304   6.816 127.051  0.00  0.00    +0.000 NA
ATOM      4  C   UNL     1     -12.865   7.090 128.272  0.00  0.00    +0.000 C 
ATOM      5  O   UNL     1     -13.886   6.573 128.713  0.00  0.00    +0.000 OA
ATOM      6  C   UNL     1     -12.016   8.109 129.005  0.00  0.00    +0.000 C 
ATOM      7  O   UNL     1     -11.225   8.611 127.897  0.00  0.00    +0.000 OA
ATOM      8  H   UNL     1     -10.523   7.073 125.179  0.00  0.00    +0.000 HD
ATOM      9  H   UNL     1      -9.829   8.530 125.822  0.00  0.00    +0.000 HD
ENDROOT
BRANCH   6  10
ATOM     10  C   UNL     1     -11.097   7.494 130.042  0.00  0.00    +0.000 A 
ATOM     11  C   UNL     1      -9.700   7.501 129.915  0.00  0.00    +0.000 A 
ATOM     12  C   UNL     1      -8.908   6.814 130.846  0.00  0.00    +0.000 A 
ATOM     13  C   UNL     1      -9.492   6.198 131.953  0.00  0.00    +0.000 A 
ATOM     14  C   UNL     1     -10.871   6.227 132.115  0.00  0.00    +0.000 A 
ATOM     15  C   UNL     1     -11.659   6.865 131.167  0.00  0.00    +0.000 A 
ENDBRANCH   6  10
TORSDOF 1
ENDMDL
MODEL 7
REMARK VINA RESULT:      -5.9      1.716      2.134
REMARK  Name = Pemoline
REMARK  1 active torsions:
REMARK  status: ('A' for Active; 'I' for Inactive)
REMARK    1  A    between atoms: C_6  and  C_8
REMARK                            x       y       z     vdW  Elec       q    Type
REMARK                         _______ _______ _______ _____ _____    ______ ____
ROOT
ATOM      1  N   UNL     1     -11.004   8.590 127.862  0.00  0.00    +0.000 N 
ATOM      2  C   UNL     1     -11.207   7.597 128.745  0.00  0.00    +0.000 C 
ATOM      3  N   UNL     1     -11.328   6.348 128.477  0.00  0.00    +0.000 NA
ATOM      4  C   UNL     1     -11.464   5.739 129.697  0.00  0.00    +0.000 C 
ATOM      5  O   UNL     1     -11.773   4.564 129.870  0.00  0.00    +0.000 OA
ATOM      6  C   UNL     1     -11.149   6.730 130.799  0.00  0.00    +0.000 C 
ATOM      7  O   UNL     1     -11.240   7.967 130.048  0.00  0.00    +0.000 OA
ATOM      8  H   UNL     1     -10.818   8.346 126.898  0.00  0.00    +0.000 HD
ATOM      9  H   UNL     1     -10.898   9.554 128.144  0.00  0.00    +0.000 HD
ENDROOT
BRANCH   6  10
ATOM     10  C   UNL     1      -9.748   6.582 131.359  0.00  0.00    +0.000 A 
ATOM     11  C   UNL     1      -8.608   7.034 130.676  0.00  0.00    +0.000 A 
ATOM     12  C   UNL     1      -7.331   6.765 131.188  0.00  0.00    +0.000 A 
ATOM     13  C   UNL     1      -7.183   6.129 132.422  0.00  0.00    +0.000 A 
ATOM     14  C   UNL     1      -8.306   5.721 133.129  0.00  0.00    +0.000 A 
ATOM     15  C   UNL     1      -9.569   5.944 132.599  0.00  0.00    +0.000 A 
ENDBRANCH   6  10
TORSDOF 1
ENDMDL
MODEL 8
REMARK VINA RESULT:      -5.8      8.999     10.388
REMARK  Name = Pemoline
REMARK  1 active torsions:
REMARK  status: ('A' for Active; 'I' for Inactive)
REMARK    1  A    between atoms: C_6  and  C_8
REMARK                            x       y       z     vdW  Elec       q    Type
REMARK                         _______ _______ _______ _____ _____    ______ ____
ROOT
ATOM      1  N   UNL     1     -11.040   1.581 123.984  0.00  0.00    +0.000 N 
ATOM      2  C   UNL     1      -9.705   1.502 123.843  0.00  0.00    +0.000 C 
ATOM      3  N   UNL     1      -9.032   0.466 123.495  0.00  0.00    +0.000 NA
ATOM      4  C   UNL     1      -7.732   0.894 123.442  0.00  0.00    +0.000 C 
ATOM      5  O   UNL     1      -6.752   0.167 123.311  0.00  0.00    +0.000 OA
ATOM      6  C   UNL     1      -7.688   2.405 123.543  0.00  0.00    +0.000 C 
ATOM      7  O   UNL     1      -9.024   2.655 124.051  0.00  0.00    +0.000 OA
ATOM      8  H   UNL     1     -11.602   0.791 123.690  0.00  0.00    +0.000 HD
ATOM      9  H   UNL     1     -11.509   2.436 124.243  0.00  0.00    +0.000 HD
ENDROOT
BRANCH   6  10
ATOM     10  C   UNL     1      -7.522   3.095 122.203  0.00  0.00    +0.000 A 
ATOM     11  C   UNL     1      -8.613   3.466 121.402  0.00  0.00    +0.000 A 
ATOM     12  C   UNL     1      -8.395   3.993 120.121  0.00  0.00    +0.000 A 
ATOM     13  C   UNL     1      -7.098   4.237 119.669  0.00  0.00    +0.000 A 
ATOM     14  C   UNL     1      -6.012   3.919 120.473  0.00  0.00    +0.000 A 
ATOM     15  C   UNL     1      -6.226   3.352 121.721  0.00  0.00    +0.000 A 
ENDBRANCH   6  10
TORSDOF 1
ENDMDL
MODEL 9
REMARK VINA RESULT:      -5.5      8.584      9.798
REMARK  Name = Pemoline
REMARK  1 active torsions:
REMARK  status: ('A' for Active; 'I' for Inactive)
REMARK    1  A    between atoms: C_6  and  C_8
REMARK                            x       y       z     vdW  Elec       q    Type
REMARK                         _______ _______ _______ _____ _____    ______ ____
ROOT
ATOM      1  N   UNL     1     -10.196   1.849 124.008  0.00  0.00    +0.000 N 
ATOM      2  C   UNL     1      -8.930   2.125 124.367  0.00  0.00    +0.000 C 
ATOM      3  N   UNL     1      -8.019   1.275 124.672  0.00  0.00    +0.000 NA
ATOM      4  C   UNL     1      -6.900   2.030 124.911  0.00  0.00    +0.000 C 
ATOM      5  O   UNL     1      -5.854   1.610 125.395  0.00  0.00    +0.000 OA
ATOM      6  C   UNL     1      -7.143   3.456 124.461  0.00  0.00    +0.000 C 
ATOM      7  O   UNL     1      -8.589   3.437 124.357  0.00  0.00    +0.000 OA
ATOM      8  H   UNL     1     -10.451   0.882 123.851  0.00  0.00    +0.000 HD
ATOM      9  H   UNL     1     -10.859   2.569 123.760  0.00  0.00    +0.000 HD
ENDROOT
BRANCH   6  10
ATOM     10  C   UNL     1      -6.545   3.770 123.104  0.00  0.00    +0.000 A 
ATOM     11  C   UNL     1      -7.171   3.415 121.899  0.00  0.00    +0.000 A 
ATOM     12  C   UNL     1      -6.515   3.625 120.679  0.00  0.00    +0.000 A 
ATOM     13  C   UNL     1      -5.278   4.271 120.643  0.00  0.00    +0.000 A 
ATOM     14  C   UNL     1      -4.671   4.671 121.826  0.00  0.00    +0.000 A 
ATOM     15  C   UNL     1      -5.299   4.418 123.038  0.00  0.00    +0.000 A 
ENDBRANCH   6  10
TORSDOF 1
ENDMDL
