MODEL 1
REMARK VINA RESULT:      -6.8      0.000      0.000
REMARK  Name = Penbutolol
REMARK  11 active torsions:
REMARK  status: ('A' for Active; 'I' for Inactive)
REMARK    1  A    between atoms: C_1  and  C_2
REMARK    2  A    between atoms: C_2  and  C_3
REMARK    3  A    between atoms: C_2  and  C_4
REMARK    4  A    between atoms: C_2  and  N_5
REMARK    5  A    between atoms: N_5  and  C_6
REMARK    6  A    between atoms: C_6  and  C_7
REMARK    7  A    between atoms: C_7  and  O_8
REMARK    8  A    between atoms: C_7  and  C_9
REMARK    9  A    between atoms: C_9  and  O_10
REMARK   10  A    between atoms: O_10  and  C_11
REMARK   11  A    between atoms: C_16  and  C_17
REMARK                            x       y       z     vdW  Elec       q    Type
REMARK                         _______ _______ _______ _____ _____    ______ ____
ROOT
ATOM      1  O   UNL     1      -9.392  -0.891 123.954  0.00  0.00    +0.000 OA
ENDROOT
BRANCH   1   2
ATOM      2  C   UNL     1      -8.119  -1.386 124.093  0.00  0.00    +0.000 A 
ATOM      3  C   UNL     1      -7.381  -1.345 122.903  0.00  0.00    +0.000 A 
ATOM      4  C   UNL     1      -6.157  -1.992 122.775  0.00  0.00    +0.000 A 
ATOM      5  C   UNL     1      -5.634  -2.680 123.870  0.00  0.00    +0.000 A 
ATOM      6  C   UNL     1      -6.341  -2.700 125.068  0.00  0.00    +0.000 A 
ATOM      7  C   UNL     1      -7.588  -2.058 125.220  0.00  0.00    +0.000 A 
BRANCH   7   8
ATOM      8  C   UNL     1      -8.269  -2.217 126.563  0.00  0.00    +0.000 C 
ATOM      9  C   UNL     1      -9.059  -3.531 126.724  0.00  0.00    +0.000 C 
ATOM     10  C   UNL     1      -8.910  -3.911 128.201  0.00  0.00    +0.000 C 
ATOM     11  C   UNL     1      -7.829  -3.012 128.830  0.00  0.00    +0.000 C 
ATOM     12  C   UNL     1      -7.293  -2.081 127.745  0.00  0.00    +0.000 C 
ENDBRANCH   7   8
ENDBRANCH   1   2
BRANCH   1  13
ATOM     13  C   UNL     1      -9.691  -0.131 122.790  0.00  0.00    +0.000 C 
BRANCH  13  14
ATOM     14  C   UNL     1     -10.259   1.266 122.980  0.00  0.00    +0.000 C 
BRANCH  14  15
ATOM     15  O   UNL     1     -11.188   1.270 124.080  0.00  0.00    +0.000 OA
ATOM     16  H   UNL     1     -10.684   1.165 124.907  0.00  0.00    +0.000 HD
ENDBRANCH  14  15
BRANCH  14  17
ATOM     17  C   UNL     1      -9.109   2.175 123.303  0.00  0.00    +0.000 C 
BRANCH  17  18
ATOM     18  N   UNL     1      -9.248   2.643 124.675  0.00  0.00    +0.000 NA
ATOM     19  H   UNL     1      -9.489   3.640 124.704  0.00  0.00    +0.000 HD
BRANCH  18  21
ATOM     20  C   UNL     1      -7.767   3.767 126.174  0.00  0.00    +0.000 C 
ATOM     21  C   UNL     1      -8.113   2.413 125.533  0.00  0.00    +0.000 C 
ATOM     22  C   UNL     1      -6.905   1.914 124.731  0.00  0.00    +0.000 C 
ATOM     23  C   UNL     1      -8.611   1.431 126.585  0.00  0.00    +0.000 C 
ENDBRANCH  18  21
ENDBRANCH  17  18
ENDBRANCH  14  17
ENDBRANCH  13  14
ENDBRANCH   1  13
TORSDOF 8
ENDMDL
MODEL 2
REMARK VINA RESULT:      -6.7      2.956      6.813
REMARK  Name = Penbutolol
REMARK  11 active torsions:
REMARK  status: ('A' for Active; 'I' for Inactive)
REMARK    1  A    between atoms: C_1  and  C_2
REMARK    2  A    between atoms: C_2  and  C_3
REMARK    3  A    between atoms: C_2  and  C_4
REMARK    4  A    between atoms: C_2  and  N_5
REMARK    5  A    between atoms: N_5  and  C_6
REMARK    6  A    between atoms: C_6  and  C_7
REMARK    7  A    between atoms: C_7  and  O_8
REMARK    8  A    between atoms: C_7  and  C_9
REMARK    9  A    between atoms: C_9  and  O_10
REMARK   10  A    between atoms: O_10  and  C_11
REMARK   11  A    between atoms: C_16  and  C_17
REMARK                            x       y       z     vdW  Elec       q    Type
REMARK                         _______ _______ _______ _____ _____    ______ ____
ROOT
ATOM      1  O   UNL     1      -7.591   1.402 123.034  0.00  0.00    +0.000 OA
ENDROOT
BRANCH   1   2
ATOM      2  C   UNL     1      -6.810   2.385 123.588  0.00  0.00    +0.000 A 
ATOM      3  C   UNL     1      -6.898   2.433 124.986  0.00  0.00    +0.000 A 
ATOM      4  C   UNL     1      -6.361   3.485 125.720  0.00  0.00    +0.000 A 
ATOM      5  C   UNL     1      -5.693   4.511 125.050  0.00  0.00    +0.000 A 
ATOM      6  C   UNL     1      -5.570   4.458 123.665  0.00  0.00    +0.000 A 
ATOM      7  C   UNL     1      -6.112   3.405 122.898  0.00  0.00    +0.000 A 
BRANCH   7   8
ATOM      8  C   UNL     1      -5.953   3.513 121.397  0.00  0.00    +0.000 C 
ATOM      9  C   UNL     1      -7.270   3.754 120.633  0.00  0.00    +0.000 C 
ATOM     10  C   UNL     1      -6.888   4.643 119.444  0.00  0.00    +0.000 C 
ATOM     11  C   UNL     1      -5.450   5.152 119.657  0.00  0.00    +0.000 C 
ATOM     12  C   UNL     1      -4.939   4.594 120.982  0.00  0.00    +0.000 C 
ENDBRANCH   7   8
ENDBRANCH   1   2
BRANCH   1  13
ATOM     13  C   UNL     1      -9.004   1.555 123.094  0.00  0.00    +0.000 C 
BRANCH  13  14
ATOM     14  C   UNL     1      -9.841   0.319 123.379  0.00  0.00    +0.000 C 
BRANCH  14  15
ATOM     15  O   UNL     1     -11.057   0.367 122.610  0.00  0.00    +0.000 OA
ATOM     16  H   UNL     1     -11.705  -0.233 123.022  0.00  0.00    +0.000 HD
ENDBRANCH  14  15
BRANCH  14  17
ATOM     17  C   UNL     1      -9.036  -0.874 122.953  0.00  0.00    +0.000 C 
BRANCH  17  18
ATOM     18  N   UNL     1      -8.314  -1.392 124.106  0.00  0.00    +0.000 NA
ATOM     19  H   UNL     1      -7.300  -1.321 123.972  0.00  0.00    +0.000 HD
BRANCH  18  21
ATOM     20  C   UNL     1      -9.566  -3.300 123.402  0.00  0.00    +0.000 C 
ATOM     21  C   UNL     1      -8.639  -2.743 124.493  0.00  0.00    +0.000 C 
ATOM     22  C   UNL     1      -9.374  -2.770 125.839  0.00  0.00    +0.000 C 
ATOM     23  C   UNL     1      -7.306  -3.480 124.496  0.00  0.00    +0.000 C 
ENDBRANCH  18  21
ENDBRANCH  17  18
ENDBRANCH  14  17
ENDBRANCH  13  14
ENDBRANCH   1  13
TORSDOF 8
ENDMDL
MODEL 3
REMARK VINA RESULT:      -6.2      2.500      5.729
REMARK  Name = Penbutolol
REMARK  11 active torsions:
REMARK  status: ('A' for Active; 'I' for Inactive)
REMARK    1  A    between atoms: C_1  and  C_2
REMARK    2  A    between atoms: C_2  and  C_3
REMARK    3  A    between atoms: C_2  and  C_4
REMARK    4  A    between atoms: C_2  and  N_5
REMARK    5  A    between atoms: N_5  and  C_6
REMARK    6  A    between atoms: C_6  and  C_7
REMARK    7  A    between atoms: C_7  and  O_8
REMARK    8  A    between atoms: C_7  and  C_9
REMARK    9  A    between atoms: C_9  and  O_10
REMARK   10  A    between atoms: O_10  and  C_11
REMARK   11  A    between atoms: C_16  and  C_17
REMARK                            x       y       z     vdW  Elec       q    Type
REMARK                         _______ _______ _______ _____ _____    ______ ____
ROOT
ATOM      1  O   UNL     1      -8.582   2.893 123.103  0.00  0.00    +0.000 OA
ENDROOT
BRANCH   1   2
ATOM      2  C   UNL     1      -7.581   3.487 122.374  0.00  0.00    +0.000 A 
ATOM      3  C   UNL     1      -7.881   3.587 121.009  0.00  0.00    +0.000 A 
ATOM      4  C   UNL     1      -6.922   3.955 120.072  0.00  0.00    +0.000 A 
ATOM      5  C   UNL     1      -5.630   4.257 120.503  0.00  0.00    +0.000 A 
ATOM      6  C   UNL     1      -5.328   4.194 121.860  0.00  0.00    +0.000 A 
ATOM      7  C   UNL     1      -6.281   3.817 122.829  0.00  0.00    +0.000 A 
BRANCH   7   8
ATOM      8  C   UNL     1      -5.793   3.733 124.259  0.00  0.00    +0.000 C 
ATOM      9  C   UNL     1      -6.358   4.824 125.190  0.00  0.00    +0.000 C 
ATOM     10  C   UNL     1      -6.506   4.149 126.557  0.00  0.00    +0.000 C 
ATOM     11  C   UNL     1      -6.311   2.631 126.377  0.00  0.00    +0.000 C 
ATOM     12  C   UNL     1      -6.056   2.357 124.897  0.00  0.00    +0.000 C 
ENDBRANCH   7   8
ENDBRANCH   1   2
BRANCH   1  13
ATOM     13  C   UNL     1      -9.415   1.944 122.447  0.00  0.00    +0.000 C 
BRANCH  13  14
ATOM     14  C   UNL     1     -10.077   0.872 123.297  0.00  0.00    +0.000 C 
BRANCH  14  15
ATOM     15  O   UNL     1     -11.367   0.544 122.749  0.00  0.00    +0.000 OA
ATOM     16  H   UNL     1     -11.822  -0.053 123.371  0.00  0.00    +0.000 HD
ENDBRANCH  14  15
BRANCH  14  17
ATOM     17  C   UNL     1      -9.198  -0.343 123.247  0.00  0.00    +0.000 C 
BRANCH  17  18
ATOM     18  N   UNL     1      -9.179  -0.967 124.562  0.00  0.00    +0.000 NA
ATOM     19  H   UNL     1      -8.539  -0.477 125.197  0.00  0.00    +0.000 HD
BRANCH  18  21
ATOM     20  C   UNL     1      -7.334  -2.483 124.608  0.00  0.00    +0.000 C 
ATOM     21  C   UNL     1      -8.867  -2.375 124.583  0.00  0.00    +0.000 C 
ATOM     22  C   UNL     1      -9.400  -3.078 123.329  0.00  0.00    +0.000 C 
ATOM     23  C   UNL     1      -9.465  -2.888 125.886  0.00  0.00    +0.000 C 
ENDBRANCH  18  21
ENDBRANCH  17  18
ENDBRANCH  14  17
ENDBRANCH  13  14
ENDBRANCH   1  13
TORSDOF 8
ENDMDL
MODEL 4
REMARK VINA RESULT:      -6.0      3.446      5.305
REMARK  Name = Penbutolol
REMARK  11 active torsions:
REMARK  status: ('A' for Active; 'I' for Inactive)
REMARK    1  A    between atoms: C_1  and  C_2
REMARK    2  A    between atoms: C_2  and  C_3
REMARK    3  A    between atoms: C_2  and  C_4
REMARK    4  A    between atoms: C_2  and  N_5
REMARK    5  A    between atoms: N_5  and  C_6
REMARK    6  A    between atoms: C_6  and  C_7
REMARK    7  A    between atoms: C_7  and  O_8
REMARK    8  A    between atoms: C_7  and  C_9
REMARK    9  A    between atoms: C_9  and  O_10
REMARK   10  A    between atoms: O_10  and  C_11
REMARK   11  A    between atoms: C_16  and  C_17
REMARK                            x       y       z     vdW  Elec       q    Type
REMARK                         _______ _______ _______ _____ _____    ______ ____
ROOT
ATOM      1  O   UNL     1      -5.659  -1.772 127.187  0.00  0.00    +0.000 OA
ENDROOT
BRANCH   1   2
ATOM      2  C   UNL     1      -6.867  -2.335 127.518  0.00  0.00    +0.000 A 
ATOM      3  C   UNL     1      -6.992  -2.602 128.888  0.00  0.00    +0.000 A 
ATOM      4  C   UNL     1      -8.039  -3.363 129.395  0.00  0.00    +0.000 A 
ATOM      5  C   UNL     1      -9.009  -3.854 128.520  0.00  0.00    +0.000 A 
ATOM      6  C   UNL     1      -8.914  -3.568 127.162  0.00  0.00    +0.000 A 
ATOM      7  C   UNL     1      -7.858  -2.804 126.623  0.00  0.00    +0.000 A 
BRANCH   7   8
ATOM      8  C   UNL     1      -7.854  -2.626 125.119  0.00  0.00    +0.000 C 
ATOM      9  C   UNL     1      -8.606  -3.727 124.345  0.00  0.00    +0.000 C 
ATOM     10  C   UNL     1      -9.226  -3.017 123.137  0.00  0.00    +0.000 C 
ATOM     11  C   UNL     1      -9.092  -1.497 123.342  0.00  0.00    +0.000 C 
ATOM     12  C   UNL     1      -8.402  -1.256 124.682  0.00  0.00    +0.000 C 
ENDBRANCH   7   8
ENDBRANCH   1   2
BRANCH   1  13
ATOM     13  C   UNL     1      -5.631  -0.386 126.868  0.00  0.00    +0.000 C 
BRANCH  13  14
ATOM     14  C   UNL     1      -5.515   0.605 128.015  0.00  0.00    +0.000 C 
BRANCH  14  15
ATOM     15  O   UNL     1      -4.493   0.172 128.932  0.00  0.00    +0.000 OA
ATOM     16  H   UNL     1      -3.665   0.635 128.710  0.00  0.00    +0.000 HD
ENDBRANCH  14  15
BRANCH  14  17
ATOM     17  C   UNL     1      -5.118   1.926 127.424  0.00  0.00    +0.000 C 
BRANCH  17  18
ATOM     18  N   UNL     1      -3.697   1.897 127.113  0.00  0.00    +0.000 NA
ATOM     19  H   UNL     1      -3.180   1.322 127.787  0.00  0.00    +0.000 HD
BRANCH  18  21
ATOM     20  C   UNL     1      -3.857   3.995 125.983  0.00  0.00    +0.000 C 
ATOM     21  C   UNL     1      -3.052   3.183 127.009  0.00  0.00    +0.000 C 
ATOM     22  C   UNL     1      -1.607   3.038 126.514  0.00  0.00    +0.000 C 
ATOM     23  C   UNL     1      -3.175   3.796 128.398  0.00  0.00    +0.000 C 
ENDBRANCH  18  21
ENDBRANCH  17  18
ENDBRANCH  14  17
ENDBRANCH  13  14
ENDBRANCH   1  13
TORSDOF 8
ENDMDL
MODEL 5
REMARK VINA RESULT:      -6.0      2.040      4.288
REMARK  Name = Penbutolol
REMARK  11 active torsions:
REMARK  status: ('A' for Active; 'I' for Inactive)
REMARK    1  A    between atoms: C_1  and  C_2
REMARK    2  A    between atoms: C_2  and  C_3
REMARK    3  A    between atoms: C_2  and  C_4
REMARK    4  A    between atoms: C_2  and  N_5
REMARK    5  A    between atoms: N_5  and  C_6
REMARK    6  A    between atoms: C_6  and  C_7
REMARK    7  A    between atoms: C_7  and  O_8
REMARK    8  A    between atoms: C_7  and  C_9
REMARK    9  A    between atoms: C_9  and  O_10
REMARK   10  A    between atoms: O_10  and  C_11
REMARK   11  A    between atoms: C_16  and  C_17
REMARK                            x       y       z     vdW  Elec       q    Type
REMARK                         _______ _______ _______ _____ _____    ______ ____
ROOT
ATOM      1  O   UNL     1      -8.000  -2.122 125.430  0.00  0.00    +0.000 OA
ENDROOT
BRANCH   1   2
ATOM      2  C   UNL     1      -7.970  -2.551 126.734  0.00  0.00    +0.000 A 
ATOM      3  C   UNL     1      -8.823  -3.636 126.975  0.00  0.00    +0.000 A 
ATOM      4  C   UNL     1      -9.103  -4.079 128.262  0.00  0.00    +0.000 A 
ATOM      5  C   UNL     1      -8.499  -3.442 129.347  0.00  0.00    +0.000 A 
ATOM      6  C   UNL     1      -7.624  -2.384 129.119  0.00  0.00    +0.000 A 
ATOM      7  C   UNL     1      -7.330  -1.913 127.823  0.00  0.00    +0.000 A 
BRANCH   7   8
ATOM      8  C   UNL     1      -6.407  -0.716 127.734  0.00  0.00    +0.000 C 
ATOM      9  C   UNL     1      -5.383  -0.785 126.584  0.00  0.00    +0.000 C 
ATOM     10  C   UNL     1      -5.204   0.663 126.116  0.00  0.00    +0.000 C 
ATOM     11  C   UNL     1      -6.300   1.526 126.770  0.00  0.00    +0.000 C 
ATOM     12  C   UNL     1      -7.171   0.617 127.633  0.00  0.00    +0.000 C 
ENDBRANCH   7   8
ENDBRANCH   1   2
BRANCH   1  13
ATOM     13  C   UNL     1      -7.821  -3.089 124.403  0.00  0.00    +0.000 C 
BRANCH  13  14
ATOM     14  C   UNL     1      -8.739  -3.020 123.194  0.00  0.00    +0.000 C 
BRANCH  14  15
ATOM     15  O   UNL     1     -10.087  -3.341 123.586  0.00  0.00    +0.000 OA
ATOM     16  H   UNL     1     -10.194  -3.116 124.529  0.00  0.00    +0.000 HD
ENDBRANCH  14  15
BRANCH  14  17
ATOM     17  C   UNL     1      -8.699  -1.610 122.681  0.00  0.00    +0.000 C 
BRANCH  17  18
ATOM     18  N   UNL     1      -9.674  -0.814 123.412  0.00  0.00    +0.000 NA
ATOM     19  H   UNL     1     -10.596  -0.851 122.962  0.00  0.00    +0.000 HD
BRANCH  18  21
ATOM     20  C   UNL     1      -7.796   0.660 123.454  0.00  0.00    +0.000 C 
ATOM     21  C   UNL     1      -9.320   0.567 123.630  0.00  0.00    +0.000 C 
ATOM     22  C   UNL     1      -9.690   1.014 125.050  0.00  0.00    +0.000 C 
ATOM     23  C   UNL     1     -10.038   1.334 122.528  0.00  0.00    +0.000 C 
ENDBRANCH  18  21
ENDBRANCH  17  18
ENDBRANCH  14  17
ENDBRANCH  13  14
ENDBRANCH   1  13
TORSDOF 8
ENDMDL
MODEL 6
REMARK VINA RESULT:      -5.9      2.778      5.264
REMARK  Name = Penbutolol
REMARK  11 active torsions:
REMARK  status: ('A' for Active; 'I' for Inactive)
REMARK    1  A    between atoms: C_1  and  C_2
REMARK    2  A    between atoms: C_2  and  C_3
REMARK    3  A    between atoms: C_2  and  C_4
REMARK    4  A    between atoms: C_2  and  N_5
REMARK    5  A    between atoms: N_5  and  C_6
REMARK    6  A    between atoms: C_6  and  C_7
REMARK    7  A    between atoms: C_7  and  O_8
REMARK    8  A    between atoms: C_7  and  C_9
REMARK    9  A    between atoms: C_9  and  O_10
REMARK   10  A    between atoms: O_10  and  C_11
REMARK   11  A    between atoms: C_16  and  C_17
REMARK                            x       y       z     vdW  Elec       q    Type
REMARK                         _______ _______ _______ _____ _____    ______ ____
ROOT
ATOM      1  O   UNL     1      -8.540  -1.893 126.043  0.00  0.00    +0.000 OA
ENDROOT
BRANCH   1   2
ATOM      2  C   UNL     1      -8.090  -2.001 127.336  0.00  0.00    +0.000 A 
ATOM      3  C   UNL     1      -8.352  -3.254 127.906  0.00  0.00    +0.000 A 
ATOM      4  C   UNL     1      -8.175  -3.495 129.264  0.00  0.00    +0.000 A 
ATOM      5  C   UNL     1      -7.700  -2.468 130.080  0.00  0.00    +0.000 A 
ATOM      6  C   UNL     1      -7.404  -1.229 129.520  0.00  0.00    +0.000 A 
ATOM      7  C   UNL     1      -7.582  -0.958 128.148  0.00  0.00    +0.000 A 
BRANCH   7   8
ATOM      8  C   UNL     1      -7.277   0.453 127.693  0.00  0.00    +0.000 C 
ATOM      9  C   UNL     1      -8.502   1.388 127.653  0.00  0.00    +0.000 C 
ATOM     10  C   UNL     1      -7.965   2.771 128.037  0.00  0.00    +0.000 C 
ATOM     11  C   UNL     1      -6.530   2.607 128.570  0.00  0.00    +0.000 C 
ATOM     12  C   UNL     1      -6.174   1.122 128.532  0.00  0.00    +0.000 C 
ENDBRANCH   7   8
ENDBRANCH   1   2
BRANCH   1  13
ATOM     13  C   UNL     1      -9.490  -2.847 125.583  0.00  0.00    +0.000 C 
BRANCH  13  14
ATOM     14  C   UNL     1      -9.194  -3.574 124.282  0.00  0.00    +0.000 C 
BRANCH  14  15
ATOM     15  O   UNL     1     -10.338  -3.499 123.411  0.00  0.00    +0.000 OA
ATOM     16  H   UNL     1     -10.368  -4.312 122.873  0.00  0.00    +0.000 HD
ENDBRANCH  14  15
BRANCH  14  17
ATOM     17  C   UNL     1      -8.036  -2.874 123.633  0.00  0.00    +0.000 C 
BRANCH  17  18
ATOM     18  N   UNL     1      -6.796  -3.415 124.169  0.00  0.00    +0.000 NA
ATOM     19  H   UNL     1      -6.812  -3.435 125.195  0.00  0.00    +0.000 HD
BRANCH  18  21
ATOM     20  C   UNL     1      -5.229  -1.737 124.825  0.00  0.00    +0.000 C 
ATOM     21  C   UNL     1      -5.586  -2.760 123.736  0.00  0.00    +0.000 C 
ATOM     22  C   UNL     1      -5.802  -2.026 122.407  0.00  0.00    +0.000 C 
ATOM     23  C   UNL     1      -4.543  -3.868 123.673  0.00  0.00    +0.000 C 
ENDBRANCH  18  21
ENDBRANCH  17  18
ENDBRANCH  14  17
ENDBRANCH  13  14
ENDBRANCH   1  13
TORSDOF 8
ENDMDL
MODEL 7
REMARK VINA RESULT:      -5.9      4.276      7.632
REMARK  Name = Penbutolol
REMARK  11 active torsions:
REMARK  status: ('A' for Active; 'I' for Inactive)
REMARK    1  A    between atoms: C_1  and  C_2
REMARK    2  A    between atoms: C_2  and  C_3
REMARK    3  A    between atoms: C_2  and  C_4
REMARK    4  A    between atoms: C_2  and  N_5
REMARK    5  A    between atoms: N_5  and  C_6
REMARK    6  A    between atoms: C_6  and  C_7
REMARK    7  A    between atoms: C_7  and  O_8
REMARK    8  A    between atoms: C_7  and  C_9
REMARK    9  A    between atoms: C_9  and  O_10
REMARK   10  A    between atoms: O_10  and  C_11
REMARK   11  A    between atoms: C_16  and  C_17
REMARK                            x       y       z     vdW  Elec       q    Type
REMARK                         _______ _______ _______ _____ _____    ______ ____
ROOT
ATOM      1  O   UNL     1      -5.233  -2.071 128.374  0.00  0.00    +0.000 OA
ENDROOT
BRANCH   1   2
ATOM      2  C   UNL     1      -6.485  -2.403 127.919  0.00  0.00    +0.000 A 
ATOM      3  C   UNL     1      -7.329  -2.882 128.931  0.00  0.00    +0.000 A 
ATOM      4  C   UNL     1      -8.555  -3.472 128.646  0.00  0.00    +0.000 A 
ATOM      5  C   UNL     1      -8.971  -3.570 127.318  0.00  0.00    +0.000 A 
ATOM      6  C   UNL     1      -8.158  -3.069 126.307  0.00  0.00    +0.000 A 
ATOM      7  C   UNL     1      -6.907  -2.472 126.569  0.00  0.00    +0.000 A 
BRANCH   7   8
ATOM      8  C   UNL     1      -6.105  -2.028 125.364  0.00  0.00    +0.000 C 
ATOM      9  C   UNL     1      -5.249  -3.140 124.725  0.00  0.00    +0.000 C 
ATOM     10  C   UNL     1      -5.253  -2.836 123.223  0.00  0.00    +0.000 C 
ATOM     11  C   UNL     1      -6.313  -1.754 122.946  0.00  0.00    +0.000 C 
ATOM     12  C   UNL     1      -6.979  -1.390 124.271  0.00  0.00    +0.000 C 
ENDBRANCH   7   8
ENDBRANCH   1   2
BRANCH   1  13
ATOM     13  C   UNL     1      -4.267  -3.107 128.494  0.00  0.00    +0.000 C 
BRANCH  13  14
ATOM     14  C   UNL     1      -3.380  -3.113 129.728  0.00  0.00    +0.000 C 
BRANCH  14  15
ATOM     15  O   UNL     1      -2.345  -2.122 129.590  0.00  0.00    +0.000 OA
ATOM     16  H   UNL     1      -2.017  -1.894 130.479  0.00  0.00    +0.000 HD
ENDBRANCH  14  15
BRANCH  14  17
ATOM     17  C   UNL     1      -4.246  -2.761 130.902  0.00  0.00    +0.000 C 
BRANCH  17  18
ATOM     18  N   UNL     1      -4.111  -3.796 131.916  0.00  0.00    +0.000 NA
ATOM     19  H   UNL     1      -3.380  -4.470 131.665  0.00  0.00    +0.000 HD
BRANCH  18  21
ATOM     20  C   UNL     1      -5.624  -5.419 131.034  0.00  0.00    +0.000 C 
ATOM     21  C   UNL     1      -5.317  -4.518 132.240  0.00  0.00    +0.000 C 
ATOM     22  C   UNL     1      -6.492  -3.558 132.462  0.00  0.00    +0.000 C 
ATOM     23  C   UNL     1      -4.957  -5.354 133.460  0.00  0.00    +0.000 C 
ENDBRANCH  18  21
ENDBRANCH  17  18
ENDBRANCH  14  17
ENDBRANCH  13  14
ENDBRANCH   1  13
TORSDOF 8
ENDMDL
MODEL 8
REMARK VINA RESULT:      -5.9      3.890      6.350
REMARK  Name = Penbutolol
REMARK  11 active torsions:
REMARK  status: ('A' for Active; 'I' for Inactive)
REMARK    1  A    between atoms: C_1  and  C_2
REMARK    2  A    between atoms: C_2  and  C_3
REMARK    3  A    between atoms: C_2  and  C_4
REMARK    4  A    between atoms: C_2  and  N_5
REMARK    5  A    between atoms: N_5  and  C_6
REMARK    6  A    between atoms: C_6  and  C_7
REMARK    7  A    between atoms: C_7  and  O_8
REMARK    8  A    between atoms: C_7  and  C_9
REMARK    9  A    between atoms: C_9  and  O_10
REMARK   10  A    between atoms: O_10  and  C_11
REMARK   11  A    between atoms: C_16  and  C_17
REMARK                            x       y       z     vdW  Elec       q    Type
REMARK                         _______ _______ _______ _____ _____    ______ ____
ROOT
ATOM      1  O   UNL     1      -5.033  -2.354 128.285  0.00  0.00    +0.000 OA
ENDROOT
BRANCH   1   2
ATOM      2  C   UNL     1      -6.331  -2.548 127.884  0.00  0.00    +0.000 A 
ATOM      3  C   UNL     1      -7.160  -3.021 128.911  0.00  0.00    +0.000 A 
ATOM      4  C   UNL     1      -8.446  -3.485 128.661  0.00  0.00    +0.000 A 
ATOM      5  C   UNL     1      -8.938  -3.457 127.356  0.00  0.00    +0.000 A 
ATOM      6  C   UNL     1      -8.138  -2.959 126.333  0.00  0.00    +0.000 A 
ATOM      7  C   UNL     1      -6.828  -2.489 126.559  0.00  0.00    +0.000 A 
BRANCH   7   8
ATOM      8  C   UNL     1      -6.054  -2.034 125.340  0.00  0.00    +0.000 C 
ATOM      9  C   UNL     1      -5.376  -3.174 124.554  0.00  0.00    +0.000 C 
ATOM     10  C   UNL     1      -5.436  -2.740 123.085  0.00  0.00    +0.000 C 
ATOM     11  C   UNL     1      -6.375  -1.524 122.973  0.00  0.00    +0.000 C 
ATOM     12  C   UNL     1      -6.912  -1.207 124.366  0.00  0.00    +0.000 C 
ENDBRANCH   7   8
ENDBRANCH   1   2
BRANCH   1  13
ATOM     13  C   UNL     1      -4.582  -3.041 129.446  0.00  0.00    +0.000 C 
BRANCH  13  14
ATOM     14  C   UNL     1      -3.609  -2.321 130.366  0.00  0.00    +0.000 C 
BRANCH  14  15
ATOM     15  O   UNL     1      -2.351  -2.132 129.692  0.00  0.00    +0.000 OA
ATOM     16  H   UNL     1      -2.235  -2.855 129.049  0.00  0.00    +0.000 HD
ENDBRANCH  14  15
BRANCH  14  17
ATOM     17  C   UNL     1      -4.204  -0.980 130.683  0.00  0.00    +0.000 C 
BRANCH  17  18
ATOM     18  N   UNL     1      -3.920  -0.066 129.586  0.00  0.00    +0.000 NA
ATOM     19  H   UNL     1      -2.993   0.362 129.690  0.00  0.00    +0.000 HD
BRANCH  18  21
ATOM     20  C   UNL     1      -6.152   0.567 130.151  0.00  0.00    +0.000 C 
ATOM     21  C   UNL     1      -4.892   0.977 129.373  0.00  0.00    +0.000 C 
ATOM     22  C   UNL     1      -5.241   1.111 127.885  0.00  0.00    +0.000 C 
ATOM     23  C   UNL     1      -4.266   2.226 129.980  0.00  0.00    +0.000 C 
ENDBRANCH  18  21
ENDBRANCH  17  18
ENDBRANCH  14  17
ENDBRANCH  13  14
ENDBRANCH   1  13
TORSDOF 8
ENDMDL
MODEL 9
REMARK VINA RESULT:      -5.8      1.960      4.343
REMARK  Name = Penbutolol
REMARK  11 active torsions:
REMARK  status: ('A' for Active; 'I' for Inactive)
REMARK    1  A    between atoms: C_1  and  C_2
REMARK    2  A    between atoms: C_2  and  C_3
REMARK    3  A    between atoms: C_2  and  C_4
REMARK    4  A    between atoms: C_2  and  N_5
REMARK    5  A    between atoms: N_5  and  C_6
REMARK    6  A    between atoms: C_6  and  C_7
REMARK    7  A    between atoms: C_7  and  O_8
REMARK    8  A    between atoms: C_7  and  C_9
REMARK    9  A    between atoms: C_9  and  O_10
REMARK   10  A    between atoms: O_10  and  C_11
REMARK   11  A    between atoms: C_16  and  C_17
REMARK                            x       y       z     vdW  Elec       q    Type
REMARK                         _______ _______ _______ _____ _____    ______ ____
ROOT
ATOM      1  O   UNL     1      -6.533  -0.203 127.746  0.00  0.00    +0.000 OA
ENDROOT
BRANCH   1   2
ATOM      2  C   UNL     1      -7.265  -1.271 128.204  0.00  0.00    +0.000 A 
ATOM      3  C   UNL     1      -7.109  -1.495 129.579  0.00  0.00    +0.000 A 
ATOM      4  C   UNL     1      -7.587  -2.647 130.194  0.00  0.00    +0.000 A 
ATOM      5  C   UNL     1      -8.262  -3.597 129.427  0.00  0.00    +0.000 A 
ATOM      6  C   UNL     1      -8.452  -3.371 128.068  0.00  0.00    +0.000 A 
ATOM      7  C   UNL     1      -7.972  -2.214 127.420  0.00  0.00    +0.000 A 
BRANCH   7   8
ATOM      8  C   UNL     1      -8.200  -2.134 125.925  0.00  0.00    +0.000 C 
ATOM      9  C   UNL     1      -7.057  -2.722 125.074  0.00  0.00    +0.000 C 
ATOM     10  C   UNL     1      -7.742  -3.332 123.847  0.00  0.00    +0.000 C 
ATOM     11  C   UNL     1      -9.261  -3.364 124.101  0.00  0.00    +0.000 C 
ATOM     12  C   UNL     1      -9.524  -2.787 125.490  0.00  0.00    +0.000 C 
ENDBRANCH   7   8
ENDBRANCH   1   2
BRANCH   1  13
ATOM     13  C   UNL     1      -7.069   1.102 127.927  0.00  0.00    +0.000 C 
BRANCH  13  14
ATOM     14  C   UNL     1      -8.452   1.387 127.365  0.00  0.00    +0.000 C 
BRANCH  14  15
ATOM     15  O   UNL     1      -9.094   2.413 128.145  0.00  0.00    +0.000 OA
ATOM     16  H   UNL     1      -9.870   2.022 128.587  0.00  0.00    +0.000 HD
ENDBRANCH  14  15
BRANCH  14  17
ATOM     17  C   UNL     1      -8.269   1.880 125.959  0.00  0.00    +0.000 C 
BRANCH  17  18
ATOM     18  N   UNL     1      -9.145   1.124 125.075  0.00  0.00    +0.000 NA
ATOM     19  H   UNL     1      -9.265   0.160 125.407  0.00  0.00    +0.000 HD
BRANCH  18  21
ATOM     20  C   UNL     1      -8.907   2.528 123.159  0.00  0.00    +0.000 C 
ATOM     21  C   UNL     1      -8.758   1.092 123.687  0.00  0.00    +0.000 C 
ATOM     22  C   UNL     1      -9.673   0.163 122.879  0.00  0.00    +0.000 C 
ATOM     23  C   UNL     1      -7.295   0.671 123.697  0.00  0.00    +0.000 C 
ENDBRANCH  18  21
ENDBRANCH  17  18
ENDBRANCH  14  17
ENDBRANCH  13  14
ENDBRANCH   1  13
TORSDOF 8
ENDMDL
