MODEL 1
REMARK VINA RESULT:      -6.1      0.000      0.000
REMARK  Name = Penciclovir
REMARK  7 active torsions:
REMARK  status: ('A' for Active; 'I' for Inactive)
REMARK    1  A    between atoms: N_9  and  C_10
REMARK    2  A    between atoms: C_10  and  C_11
REMARK    3  A    between atoms: C_11  and  C_12
REMARK    4  A    between atoms: C_12  and  C_13
REMARK    5  A    between atoms: C_12  and  C_15
REMARK    6  A    between atoms: C_13  and  O_14
REMARK    7  A    between atoms: C_15  and  O_16
REMARK                            x       y       z     vdW  Elec       q    Type
REMARK                         _______ _______ _______ _____ _____    ______ ____
ROOT
ATOM      1  N   UNL     1     -12.748   9.605 129.054  0.00  0.00    +0.000 N 
ATOM      2  C   UNL     1     -11.889   8.594 128.791  0.00  0.00    +0.000 A 
ATOM      3  N   UNL     1     -11.546   8.279 127.579  0.00  0.00    +0.000 NA
ATOM      4  C   UNL     1     -10.658   7.215 127.357  0.00  0.00    +0.000 A 
ATOM      5  O   UNL     1     -10.309   6.880 126.227  0.00  0.00    +0.000 OA
ATOM      6  C   UNL     1     -10.177   6.518 128.555  0.00  0.00    +0.000 A 
ATOM      7  C   UNL     1     -10.617   6.933 129.781  0.00  0.00    +0.000 A 
ATOM      8  N   UNL     1     -11.460   7.966 129.919  0.00  0.00    +0.000 N 
ATOM      9  N   UNL     1     -10.043   6.112 130.697  0.00  0.00    +0.000 N 
ATOM     10  C   UNL     1      -9.235   5.245 129.996  0.00  0.00    +0.000 A 
ATOM     11  N   UNL     1      -9.305   5.455 128.697  0.00  0.00    +0.000 NA
ATOM     12  H   UNL     1     -13.112  10.128 128.267  0.00  0.00    +0.000 HD
ATOM     13  H   UNL     1     -13.029   9.901 129.976  0.00  0.00    +0.000 HD
ATOM     14  H   UNL     1     -11.804   8.342 130.785  0.00  0.00    +0.000 HD
ENDROOT
BRANCH   9  15
ATOM     15  C   UNL     1     -10.123   6.133 132.139  0.00  0.00    +0.000 C 
BRANCH  15  16
ATOM     16  C   UNL     1      -8.848   5.670 132.829  0.00  0.00    +0.000 C 
BRANCH  16  17
ATOM     17  C   UNL     1      -8.999   4.531 133.822  0.00  0.00    +0.000 C 
BRANCH  17  18
ATOM     18  C   UNL     1      -8.841   3.171 133.140  0.00  0.00    +0.000 C 
BRANCH  18  19
ATOM     19  O   UNL     1     -10.092   2.633 132.735  0.00  0.00    +0.000 OA
ATOM     20  H   UNL     1     -10.803   3.194 133.085  0.00  0.00    +0.000 HD
ENDBRANCH  18  19
ENDBRANCH  17  18
BRANCH  17  21
ATOM     21  C   UNL     1      -7.928   4.707 134.908  0.00  0.00    +0.000 C 
BRANCH  21  22
ATOM     22  O   UNL     1      -8.226   5.835 135.711  0.00  0.00    +0.000 OA
ATOM     23  H   UNL     1      -8.041   6.632 135.185  0.00  0.00    +0.000 HD
ENDBRANCH  21  22
ENDBRANCH  17  21
ENDBRANCH  16  17
ENDBRANCH  15  16
ENDBRANCH   9  15
TORSDOF 7
ENDMDL
MODEL 2
REMARK VINA RESULT:      -6.0      8.772     10.114
REMARK  Name = Penciclovir
REMARK  7 active torsions:
REMARK  status: ('A' for Active; 'I' for Inactive)
REMARK    1  A    between atoms: N_9  and  C_10
REMARK    2  A    between atoms: C_10  and  C_11
REMARK    3  A    between atoms: C_11  and  C_12
REMARK    4  A    between atoms: C_12  and  C_13
REMARK    5  A    between atoms: C_12  and  C_15
REMARK    6  A    between atoms: C_13  and  O_14
REMARK    7  A    between atoms: C_15  and  O_16
REMARK                            x       y       z     vdW  Elec       q    Type
REMARK                         _______ _______ _______ _____ _____    ______ ____
ROOT
ATOM      1  N   UNL     1      -9.807   4.141 118.875  0.00  0.00    +0.000 N 
ATOM      2  C   UNL     1      -8.622   4.183 119.526  0.00  0.00    +0.000 A 
ATOM      3  N   UNL     1      -7.532   4.587 118.948  0.00  0.00    +0.000 NA
ATOM      4  C   UNL     1      -6.325   4.604 119.664  0.00  0.00    +0.000 A 
ATOM      5  O   UNL     1      -5.269   4.975 119.156  0.00  0.00    +0.000 OA
ATOM      6  C   UNL     1      -6.395   4.142 121.055  0.00  0.00    +0.000 A 
ATOM      7  C   UNL     1      -7.599   3.728 121.553  0.00  0.00    +0.000 A 
ATOM      8  N   UNL     1      -8.717   3.749 120.813  0.00  0.00    +0.000 N 
ATOM      9  N   UNL     1      -7.375   3.338 122.833  0.00  0.00    +0.000 N 
ATOM     10  C   UNL     1      -6.042   3.566 123.087  0.00  0.00    +0.000 A 
ATOM     11  N   UNL     1      -5.418   4.039 122.027  0.00  0.00    +0.000 NA
ATOM     12  H   UNL     1      -9.824   4.452 117.912  0.00  0.00    +0.000 HD
ATOM     13  H   UNL     1     -10.683   3.856 119.285  0.00  0.00    +0.000 HD
ATOM     14  H   UNL     1      -9.638   3.487 121.117  0.00  0.00    +0.000 HD
ENDROOT
BRANCH   9  15
ATOM     15  C   UNL     1      -8.304   2.864 123.832  0.00  0.00    +0.000 C 
BRANCH  15  16
ATOM     16  C   UNL     1      -8.032   1.440 124.294  0.00  0.00    +0.000 C 
BRANCH  16  17
ATOM     17  C   UNL     1      -8.625   0.333 123.442  0.00  0.00    +0.000 C 
BRANCH  17  18
ATOM     18  C   UNL     1      -8.837  -0.945 124.256  0.00  0.00    +0.000 C 
BRANCH  18  19
ATOM     19  O   UNL     1      -9.760  -0.750 125.318  0.00  0.00    +0.000 OA
ATOM     20  H   UNL     1      -9.432  -0.037 125.891  0.00  0.00    +0.000 HD
ENDBRANCH  18  19
ENDBRANCH  17  18
BRANCH  17  21
ATOM     21  C   UNL     1      -9.965   0.833 122.883  0.00  0.00    +0.000 C 
BRANCH  21  22
ATOM     22  O   UNL     1     -10.767  -0.261 122.481  0.00  0.00    +0.000 OA
ATOM     23  H   UNL     1     -11.652  -0.140 122.867  0.00  0.00    +0.000 HD
ENDBRANCH  21  22
ENDBRANCH  17  21
ENDBRANCH  16  17
ENDBRANCH  15  16
ENDBRANCH   9  15
TORSDOF 7
ENDMDL
MODEL 3
REMARK VINA RESULT:      -5.8      2.402      6.813
REMARK  Name = Penciclovir
REMARK  7 active torsions:
REMARK  status: ('A' for Active; 'I' for Inactive)
REMARK    1  A    between atoms: N_9  and  C_10
REMARK    2  A    between atoms: C_10  and  C_11
REMARK    3  A    between atoms: C_11  and  C_12
REMARK    4  A    between atoms: C_12  and  C_13
REMARK    5  A    between atoms: C_12  and  C_15
REMARK    6  A    between atoms: C_13  and  O_14
REMARK    7  A    between atoms: C_15  and  O_16
REMARK                            x       y       z     vdW  Elec       q    Type
REMARK                         _______ _______ _______ _____ _____    ______ ____
ROOT
ATOM      1  N   UNL     1      -9.621   0.833 131.823  0.00  0.00    +0.000 N 
ATOM      2  C   UNL     1      -9.523   2.121 132.223  0.00  0.00    +0.000 A 
ATOM      3  N   UNL     1      -8.859   2.465 133.285  0.00  0.00    +0.000 NA
ATOM      4  C   UNL     1      -8.794   3.814 133.664  0.00  0.00    +0.000 A 
ATOM      5  O   UNL     1      -8.180   4.184 134.663  0.00  0.00    +0.000 OA
ATOM      6  C   UNL     1      -9.511   4.760 132.802  0.00  0.00    +0.000 A 
ATOM      7  C   UNL     1     -10.187   4.280 131.714  0.00  0.00    +0.000 A 
ATOM      8  N   UNL     1     -10.197   2.976 131.406  0.00  0.00    +0.000 N 
ATOM      9  N   UNL     1     -10.770   5.350 131.117  0.00  0.00    +0.000 N 
ATOM     10  C   UNL     1     -10.395   6.459 131.842  0.00  0.00    +0.000 A 
ATOM     11  N   UNL     1      -9.645   6.133 132.876  0.00  0.00    +0.000 NA
ATOM     12  H   UNL     1      -9.143   0.133 132.376  0.00  0.00    +0.000 HD
ATOM     13  H   UNL     1     -10.106   0.519 130.996  0.00  0.00    +0.000 HD
ATOM     14  H   UNL     1     -10.647   2.555 130.612  0.00  0.00    +0.000 HD
ENDROOT
BRANCH   9  15
ATOM     15  C   UNL     1     -11.555   5.421 129.907  0.00  0.00    +0.000 C 
BRANCH  15  16
ATOM     16  C   UNL     1     -12.497   6.615 129.859  0.00  0.00    +0.000 C 
BRANCH  16  17
ATOM     17  C   UNL     1     -12.352   7.536 128.660  0.00  0.00    +0.000 C 
BRANCH  17  18
ATOM     18  C   UNL     1     -10.887   7.685 128.245  0.00  0.00    +0.000 C 
BRANCH  18  19
ATOM     19  O   UNL     1     -10.690   8.804 127.391  0.00  0.00    +0.000 OA
ATOM     20  H   UNL     1     -11.496   8.945 126.869  0.00  0.00    +0.000 HD
ENDBRANCH  18  19
ENDBRANCH  17  18
BRANCH  17  21
ATOM     21  C   UNL     1     -13.173   6.942 127.506  0.00  0.00    +0.000 C 
BRANCH  21  22
ATOM     22  O   UNL     1     -12.322   6.582 126.435  0.00  0.00    +0.000 OA
ATOM     23  H   UNL     1     -11.582   7.213 126.417  0.00  0.00    +0.000 HD
ENDBRANCH  21  22
ENDBRANCH  17  21
ENDBRANCH  16  17
ENDBRANCH  15  16
ENDBRANCH   9  15
TORSDOF 7
ENDMDL
MODEL 4
REMARK VINA RESULT:      -5.8      9.590     11.523
REMARK  Name = Penciclovir
REMARK  7 active torsions:
REMARK  status: ('A' for Active; 'I' for Inactive)
REMARK    1  A    between atoms: N_9  and  C_10
REMARK    2  A    between atoms: C_10  and  C_11
REMARK    3  A    between atoms: C_11  and  C_12
REMARK    4  A    between atoms: C_12  and  C_13
REMARK    5  A    between atoms: C_12  and  C_15
REMARK    6  A    between atoms: C_13  and  O_14
REMARK    7  A    between atoms: C_15  and  O_16
REMARK                            x       y       z     vdW  Elec       q    Type
REMARK                         _______ _______ _______ _____ _____    ______ ____
ROOT
ATOM      1  N   UNL     1      -5.401  -3.110 124.317  0.00  0.00    +0.000 N 
ATOM      2  C   UNL     1      -6.584  -2.505 124.066  0.00  0.00    +0.000 A 
ATOM      3  N   UNL     1      -7.676  -3.180 123.871  0.00  0.00    +0.000 NA
ATOM      4  C   UNL     1      -8.878  -2.506 123.605  0.00  0.00    +0.000 A 
ATOM      5  O   UNL     1      -9.934  -3.104 123.411  0.00  0.00    +0.000 OA
ATOM      6  C   UNL     1      -8.799  -1.042 123.563  0.00  0.00    +0.000 A 
ATOM      7  C   UNL     1      -7.589  -0.440 123.773  0.00  0.00    +0.000 A 
ATOM      8  N   UNL     1      -6.481  -1.148 124.032  0.00  0.00    +0.000 N 
ATOM      9  N   UNL     1      -7.796   0.896 123.656  0.00  0.00    +0.000 N 
ATOM     10  C   UNL     1      -9.141   1.067 123.417  0.00  0.00    +0.000 A 
ATOM     11  N   UNL     1      -9.773  -0.087 123.341  0.00  0.00    +0.000 NA
ATOM     12  H   UNL     1      -5.392  -4.121 124.362  0.00  0.00    +0.000 HD
ATOM     13  H   UNL     1      -4.532  -2.630 124.495  0.00  0.00    +0.000 HD
ATOM     14  H   UNL     1      -5.567  -0.776 124.222  0.00  0.00    +0.000 HD
ENDROOT
BRANCH   9  15
ATOM     15  C   UNL     1      -6.875   1.995 123.832  0.00  0.00    +0.000 C 
BRANCH  15  16
ATOM     16  C   UNL     1      -7.222   3.223 123.004  0.00  0.00    +0.000 C 
BRANCH  16  17
ATOM     17  C   UNL     1      -6.524   3.346 121.661  0.00  0.00    +0.000 C 
BRANCH  17  18
ATOM     18  C   UNL     1      -7.480   3.854 120.580  0.00  0.00    +0.000 C 
BRANCH  18  19
ATOM     19  O   UNL     1      -8.789   4.069 121.089  0.00  0.00    +0.000 OA
ATOM     20  H   UNL     1      -8.741   4.711 121.817  0.00  0.00    +0.000 HD
ENDBRANCH  18  19
ENDBRANCH  17  18
BRANCH  17  21
ATOM     21  C   UNL     1      -5.347   4.319 121.828  0.00  0.00    +0.000 C 
BRANCH  21  22
ATOM     22  O   UNL     1      -5.202   5.116 120.668  0.00  0.00    +0.000 OA
ATOM     23  H   UNL     1      -4.966   6.016 120.953  0.00  0.00    +0.000 HD
ENDBRANCH  21  22
ENDBRANCH  17  21
ENDBRANCH  16  17
ENDBRANCH  15  16
ENDBRANCH   9  15
TORSDOF 7
ENDMDL
MODEL 5
REMARK VINA RESULT:      -5.8      2.604      6.503
REMARK  Name = Penciclovir
REMARK  7 active torsions:
REMARK  status: ('A' for Active; 'I' for Inactive)
REMARK    1  A    between atoms: N_9  and  C_10
REMARK    2  A    between atoms: C_10  and  C_11
REMARK    3  A    between atoms: C_11  and  C_12
REMARK    4  A    between atoms: C_12  and  C_13
REMARK    5  A    between atoms: C_12  and  C_15
REMARK    6  A    between atoms: C_13  and  O_14
REMARK    7  A    between atoms: C_15  and  O_16
REMARK                            x       y       z     vdW  Elec       q    Type
REMARK                         _______ _______ _______ _____ _____    ______ ____
ROOT
ATOM      1  N   UNL     1      -8.218   5.750 135.229  0.00  0.00    +0.000 N 
ATOM      2  C   UNL     1      -8.567   4.895 134.241  0.00  0.00    +0.000 A 
ATOM      3  N   UNL     1      -8.173   3.657 134.229  0.00  0.00    +0.000 NA
ATOM      4  C   UNL     1      -8.555   2.812 133.177  0.00  0.00    +0.000 A 
ATOM      5  O   UNL     1      -8.203   1.635 133.124  0.00  0.00    +0.000 OA
ATOM      6  C   UNL     1      -9.392   3.416 132.135  0.00  0.00    +0.000 A 
ATOM      7  C   UNL     1      -9.734   4.736 132.248  0.00  0.00    +0.000 A 
ATOM      8  N   UNL     1      -9.342   5.483 133.289  0.00  0.00    +0.000 N 
ATOM      9  N   UNL     1     -10.479   5.037 131.154  0.00  0.00    +0.000 N 
ATOM     10  C   UNL     1     -10.600   3.874 130.427  0.00  0.00    +0.000 A 
ATOM     11  N   UNL     1      -9.941   2.879 130.987  0.00  0.00    +0.000 NA
ATOM     12  H   UNL     1      -7.643   5.390 135.980  0.00  0.00    +0.000 HD
ATOM     13  H   UNL     1      -8.514   6.712 135.293  0.00  0.00    +0.000 HD
ATOM     14  H   UNL     1      -9.575   6.447 133.452  0.00  0.00    +0.000 HD
ENDROOT
BRANCH   9  15
ATOM     15  C   UNL     1     -11.138   6.270 130.794  0.00  0.00    +0.000 C 
BRANCH  15  16
ATOM     16  C   UNL     1     -11.995   6.163 129.541  0.00  0.00    +0.000 C 
BRANCH  16  17
ATOM     17  C   UNL     1     -11.920   7.330 128.574  0.00  0.00    +0.000 C 
BRANCH  17  18
ATOM     18  C   UNL     1     -10.486   7.566 128.095  0.00  0.00    +0.000 C 
BRANCH  18  19
ATOM     19  O   UNL     1      -9.833   6.350 127.760  0.00  0.00    +0.000 OA
ATOM     20  H   UNL     1      -9.931   6.193 126.807  0.00  0.00    +0.000 HD
ENDBRANCH  18  19
ENDBRANCH  17  18
BRANCH  17  21
ATOM     21  C   UNL     1     -12.832   7.014 127.380  0.00  0.00    +0.000 C 
BRANCH  21  22
ATOM     22  O   UNL     1     -12.057   6.647 126.254  0.00  0.00    +0.000 OA
ATOM     23  H   UNL     1     -12.273   7.261 125.531  0.00  0.00    +0.000 HD
ENDBRANCH  21  22
ENDBRANCH  17  21
ENDBRANCH  16  17
ENDBRANCH  15  16
ENDBRANCH   9  15
TORSDOF 7
ENDMDL
MODEL 6
REMARK VINA RESULT:      -5.7      8.021     10.548
REMARK  Name = Penciclovir
REMARK  7 active torsions:
REMARK  status: ('A' for Active; 'I' for Inactive)
REMARK    1  A    between atoms: N_9  and  C_10
REMARK    2  A    between atoms: C_10  and  C_11
REMARK    3  A    between atoms: C_11  and  C_12
REMARK    4  A    between atoms: C_12  and  C_13
REMARK    5  A    between atoms: C_12  and  C_15
REMARK    6  A    between atoms: C_13  and  O_14
REMARK    7  A    between atoms: C_15  and  O_16
REMARK                            x       y       z     vdW  Elec       q    Type
REMARK                         _______ _______ _______ _____ _____    ______ ____
ROOT
ATOM      1  N   UNL     1      -5.300  -3.076 124.242  0.00  0.00    +0.000 N 
ATOM      2  C   UNL     1      -6.526  -2.557 124.008  0.00  0.00    +0.000 A 
ATOM      3  N   UNL     1      -7.597  -3.292 124.003  0.00  0.00    +0.000 NA
ATOM      4  C   UNL     1      -8.846  -2.707 123.746  0.00  0.00    +0.000 A 
ATOM      5  O   UNL     1      -9.885  -3.364 123.727  0.00  0.00    +0.000 OA
ATOM      6  C   UNL     1      -8.841  -1.262 123.490  0.00  0.00    +0.000 A 
ATOM      7  C   UNL     1      -7.648  -0.593 123.511  0.00  0.00    +0.000 A 
ATOM      8  N   UNL     1      -6.491  -1.216 123.774  0.00  0.00    +0.000 N 
ATOM      9  N   UNL     1      -7.926   0.704 123.224  0.00  0.00    +0.000 N 
ATOM     10  C   UNL     1      -9.292   0.790 123.076  0.00  0.00    +0.000 A 
ATOM     11  N   UNL     1      -9.873  -0.385 123.217  0.00  0.00    +0.000 NA
ATOM     12  H   UNL     1      -5.239  -4.069 124.430  0.00  0.00    +0.000 HD
ATOM     13  H   UNL     1      -4.444  -2.545 124.278  0.00  0.00    +0.000 HD
ATOM     14  H   UNL     1      -5.584  -0.788 123.833  0.00  0.00    +0.000 HD
ENDROOT
BRANCH   9  15
ATOM     15  C   UNL     1      -7.047   1.848 123.165  0.00  0.00    +0.000 C 
BRANCH  15  16
ATOM     16  C   UNL     1      -7.613   3.089 123.839  0.00  0.00    +0.000 C 
BRANCH  16  17
ATOM     17  C   UNL     1      -6.845   3.610 125.040  0.00  0.00    +0.000 C 
BRANCH  17  18
ATOM     18  C   UNL     1      -5.846   4.697 124.634  0.00  0.00    +0.000 C 
BRANCH  18  19
ATOM     19  O   UNL     1      -6.332   5.999 124.930  0.00  0.00    +0.000 OA
ATOM     20  H   UNL     1      -7.133   5.919 125.474  0.00  0.00    +0.000 HD
ENDBRANCH  18  19
ENDBRANCH  17  18
BRANCH  17  21
ATOM     21  C   UNL     1      -7.861   4.173 126.044  0.00  0.00    +0.000 C 
BRANCH  21  22
ATOM     22  O   UNL     1      -8.959   4.747 125.359  0.00  0.00    +0.000 OA
ATOM     23  H   UNL     1      -9.000   4.347 124.473  0.00  0.00    +0.000 HD
ENDBRANCH  21  22
ENDBRANCH  17  21
ENDBRANCH  16  17
ENDBRANCH  15  16
ENDBRANCH   9  15
TORSDOF 7
ENDMDL
MODEL 7
REMARK VINA RESULT:      -5.7      8.064      9.967
REMARK  Name = Penciclovir
REMARK  7 active torsions:
REMARK  status: ('A' for Active; 'I' for Inactive)
REMARK    1  A    between atoms: N_9  and  C_10
REMARK    2  A    between atoms: C_10  and  C_11
REMARK    3  A    between atoms: C_11  and  C_12
REMARK    4  A    between atoms: C_12  and  C_13
REMARK    5  A    between atoms: C_12  and  C_15
REMARK    6  A    between atoms: C_13  and  O_14
REMARK    7  A    between atoms: C_15  and  O_16
REMARK                            x       y       z     vdW  Elec       q    Type
REMARK                         _______ _______ _______ _____ _____    ______ ____
ROOT
ATOM      1  N   UNL     1      -5.373   0.897 126.122  0.00  0.00    +0.000 N 
ATOM      2  C   UNL     1      -6.522   1.212 125.482  0.00  0.00    +0.000 A 
ATOM      3  N   UNL     1      -7.109   2.360 125.643  0.00  0.00    +0.000 NA
ATOM      4  C   UNL     1      -8.304   2.636 124.963  0.00  0.00    +0.000 A 
ATOM      5  O   UNL     1      -8.896   3.707 125.087  0.00  0.00    +0.000 OA
ATOM      6  C   UNL     1      -8.816   1.566 124.099  0.00  0.00    +0.000 A 
ATOM      7  C   UNL     1      -8.117   0.394 124.017  0.00  0.00    +0.000 A 
ATOM      8  N   UNL     1      -6.973   0.202 124.689  0.00  0.00    +0.000 N 
ATOM      9  N   UNL     1      -8.815  -0.416 123.181  0.00  0.00    +0.000 N 
ATOM     10  C   UNL     1      -9.902   0.310 122.747  0.00  0.00    +0.000 A 
ATOM     11  N   UNL     1      -9.938   1.507 123.295  0.00  0.00    +0.000 NA
ATOM     12  H   UNL     1      -4.968   1.598 126.731  0.00  0.00    +0.000 HD
ATOM     13  H   UNL     1      -4.870   0.030 126.015  0.00  0.00    +0.000 HD
ATOM     14  H   UNL     1      -6.394  -0.618 124.657  0.00  0.00    +0.000 HD
ENDROOT
BRANCH   9  15
ATOM     15  C   UNL     1      -8.505  -1.744 122.705  0.00  0.00    +0.000 C 
BRANCH  15  16
ATOM     16  C   UNL     1      -9.348  -2.836 123.346  0.00  0.00    +0.000 C 
BRANCH  16  17
ATOM     17  C   UNL     1      -8.728  -3.554 124.531  0.00  0.00    +0.000 C 
BRANCH  17  18
ATOM     18  C   UNL     1      -7.201  -3.458 124.504  0.00  0.00    +0.000 C 
BRANCH  18  19
ATOM     19  O   UNL     1      -6.703  -2.656 125.566  0.00  0.00    +0.000 OA
ATOM     20  H   UNL     1      -6.942  -1.730 125.398  0.00  0.00    +0.000 HD
ENDBRANCH  18  19
ENDBRANCH  17  18
BRANCH  17  21
ATOM     21  C   UNL     1      -9.277  -2.913 125.813  0.00  0.00    +0.000 C 
BRANCH  21  22
ATOM     22  O   UNL     1      -8.974  -3.722 126.934  0.00  0.00    +0.000 OA
ATOM     23  H   UNL     1      -8.840  -4.631 126.617  0.00  0.00    +0.000 HD
ENDBRANCH  21  22
ENDBRANCH  17  21
ENDBRANCH  16  17
ENDBRANCH  15  16
ENDBRANCH   9  15
TORSDOF 7
ENDMDL
MODEL 8
REMARK VINA RESULT:      -5.6      6.978      7.975
REMARK  Name = Penciclovir
REMARK  7 active torsions:
REMARK  status: ('A' for Active; 'I' for Inactive)
REMARK    1  A    between atoms: N_9  and  C_10
REMARK    2  A    between atoms: C_10  and  C_11
REMARK    3  A    between atoms: C_11  and  C_12
REMARK    4  A    between atoms: C_12  and  C_13
REMARK    5  A    between atoms: C_12  and  C_15
REMARK    6  A    between atoms: C_13  and  O_14
REMARK    7  A    between atoms: C_15  and  O_16
REMARK                            x       y       z     vdW  Elec       q    Type
REMARK                         _______ _______ _______ _____ _____    ______ ____
ROOT
ATOM      1  N   UNL     1      -8.039   3.715 121.058  0.00  0.00    +0.000 N 
ATOM      2  C   UNL     1      -8.316   3.226 122.287  0.00  0.00    +0.000 A 
ATOM      3  N   UNL     1      -9.286   2.387 122.493  0.00  0.00    +0.000 NA
ATOM      4  C   UNL     1      -9.540   1.914 123.789  0.00  0.00    +0.000 A 
ATOM      5  O   UNL     1     -10.449   1.123 124.031  0.00  0.00    +0.000 OA
ATOM      6  C   UNL     1      -8.661   2.428 124.846  0.00  0.00    +0.000 A 
ATOM      7  C   UNL     1      -7.678   3.318 124.511  0.00  0.00    +0.000 A 
ATOM      8  N   UNL     1      -7.486   3.720 123.247  0.00  0.00    +0.000 N 
ATOM      9  N   UNL     1      -7.041   3.643 125.664  0.00  0.00    +0.000 N 
ATOM     10  C   UNL     1      -7.634   2.904 126.663  0.00  0.00    +0.000 A 
ATOM     11  N   UNL     1      -8.626   2.170 126.203  0.00  0.00    +0.000 NA
ATOM     12  H   UNL     1      -8.609   3.394 120.286  0.00  0.00    +0.000 HD
ATOM     13  H   UNL     1      -7.285   4.351 120.844  0.00  0.00    +0.000 HD
ATOM     14  H   UNL     1      -6.771   4.347 122.923  0.00  0.00    +0.000 HD
ENDROOT
BRANCH   9  15
ATOM     15  C   UNL     1      -5.897   4.499 125.881  0.00  0.00    +0.000 C 
BRANCH  15  16
ATOM     16  C   UNL     1      -4.566   3.765 125.828  0.00  0.00    +0.000 C 
BRANCH  16  17
ATOM     17  C   UNL     1      -3.808   3.652 127.139  0.00  0.00    +0.000 C 
BRANCH  17  18
ATOM     18  C   UNL     1      -4.121   2.336 127.852  0.00  0.00    +0.000 C 
BRANCH  18  19
ATOM     19  O   UNL     1      -4.432   1.297 126.934  0.00  0.00    +0.000 OA
ATOM     20  H   UNL     1      -5.235   0.842 127.236  0.00  0.00    +0.000 HD
ENDBRANCH  18  19
ENDBRANCH  17  18
BRANCH  17  21
ATOM     21  C   UNL     1      -2.307   3.743 126.827  0.00  0.00    +0.000 C 
BRANCH  21  22
ATOM     22  O   UNL     1      -1.795   2.462 126.509  0.00  0.00    +0.000 OA
ATOM     23  H   UNL     1      -0.891   2.580 126.169  0.00  0.00    +0.000 HD
ENDBRANCH  21  22
ENDBRANCH  17  21
ENDBRANCH  16  17
ENDBRANCH  15  16
ENDBRANCH   9  15
TORSDOF 7
ENDMDL
MODEL 9
REMARK VINA RESULT:      -5.4      9.757     11.728
REMARK  Name = Penciclovir
REMARK  7 active torsions:
REMARK  status: ('A' for Active; 'I' for Inactive)
REMARK    1  A    between atoms: N_9  and  C_10
REMARK    2  A    between atoms: C_10  and  C_11
REMARK    3  A    between atoms: C_11  and  C_12
REMARK    4  A    between atoms: C_12  and  C_13
REMARK    5  A    between atoms: C_12  and  C_15
REMARK    6  A    between atoms: C_13  and  O_14
REMARK    7  A    between atoms: C_15  and  O_16
REMARK                            x       y       z     vdW  Elec       q    Type
REMARK                         _______ _______ _______ _____ _____    ______ ____
ROOT
ATOM      1  N   UNL     1      -2.554  -2.166 129.808  0.00  0.00    +0.000 N 
ATOM      2  C   UNL     1      -3.874  -2.462 129.807  0.00  0.00    +0.000 A 
ATOM      3  N   UNL     1      -4.470  -2.957 130.850  0.00  0.00    +0.000 NA
ATOM      4  C   UNL     1      -5.839  -3.256 130.796  0.00  0.00    +0.000 A 
ATOM      5  O   UNL     1      -6.443  -3.729 131.757  0.00  0.00    +0.000 OA
ATOM      6  C   UNL     1      -6.510  -2.981 129.521  0.00  0.00    +0.000 A 
ATOM      7  C   UNL     1      -5.776  -2.470 128.487  0.00  0.00    +0.000 A 
ATOM      8  N   UNL     1      -4.469  -2.198 128.612  0.00  0.00    +0.000 N 
ATOM      9  N   UNL     1      -6.626  -2.337 127.437  0.00  0.00    +0.000 N 
ATOM     10  C   UNL     1      -7.866  -2.737 127.881  0.00  0.00    +0.000 A 
ATOM     11  N   UNL     1      -7.826  -3.146 129.133  0.00  0.00    +0.000 NA
ATOM     12  H   UNL     1      -2.037  -2.330 130.662  0.00  0.00    +0.000 HD
ATOM     13  H   UNL     1      -2.052  -1.761 129.032  0.00  0.00    +0.000 HD
ATOM     14  H   UNL     1      -3.874  -1.798 127.908  0.00  0.00    +0.000 HD
ENDROOT
BRANCH   9  15
ATOM     15  C   UNL     1      -6.390  -1.799 126.117  0.00  0.00    +0.000 C 
BRANCH  15  16
ATOM     16  C   UNL     1      -6.680  -2.784 124.995  0.00  0.00    +0.000 C 
BRANCH  16  17
ATOM     17  C   UNL     1      -7.883  -2.472 124.122  0.00  0.00    +0.000 C 
BRANCH  17  18
ATOM     18  C   UNL     1      -8.979  -3.527 124.285  0.00  0.00    +0.000 C 
BRANCH  18  19
ATOM     19  O   UNL     1     -10.068  -3.300 123.401  0.00  0.00    +0.000 OA
ATOM     20  H   UNL     1     -10.051  -2.372 123.115  0.00  0.00    +0.000 HD
ENDBRANCH  18  19
ENDBRANCH  17  18
BRANCH  17  21
ATOM     21  C   UNL     1      -8.413  -1.089 124.526  0.00  0.00    +0.000 C 
BRANCH  21  22
ATOM     22  O   UNL     1      -9.619  -1.221 125.254  0.00  0.00    +0.000 OA
ATOM     23  H   UNL     1      -9.700  -0.447 125.839  0.00  0.00    +0.000 HD
ENDBRANCH  21  22
ENDBRANCH  17  21
ENDBRANCH  16  17
ENDBRANCH  15  16
ENDBRANCH   9  15
TORSDOF 7
ENDMDL
