MODEL 1
REMARK VINA RESULT:      -4.8      0.000      0.000
REMARK  Name = Penicillamine
REMARK  7 active torsions:
REMARK  status: ('A' for Active; 'I' for Inactive)
REMARK    1  A    between atoms: CA_2  and  N_3
REMARK    2  A    between atoms: CA_2  and  C_4
REMARK    3  A    between atoms: CA_2  and  C_7
REMARK    4  A    between atoms: C_4  and  O_5
REMARK    5  A    between atoms: C_7  and  C_8
REMARK    6  A    between atoms: C_7  and  C_9
REMARK    7  A    between atoms: C_7  and  S_10
REMARK                            x       y       z     vdW  Elec       q    Type
REMARK                         _______ _______ _______ _____ _____    ______ ____
ROOT
ATOM      1  CA  UNL     1     -11.040   8.348 127.730  0.00  0.00    +0.000 C 
ENDROOT
BRANCH   1   2
ATOM      2  N   UNL     1      -9.859   8.232 128.631  0.00  0.00    +0.000 NA
ATOM      3  H1  UNL     1     -10.081   8.570 129.566  0.00  0.00    +0.000 HD
ATOM      4  H2  UNL     1      -9.074   8.783 128.288  0.00  0.00    +0.000 HD
ENDBRANCH   1   2
BRANCH   1   5
ATOM      5  C   UNL     1     -12.371   8.019 128.473  0.00  0.00    +0.000 C 
ATOM      6  C   UNL     1     -12.944   9.260 129.187  0.00  0.00    +0.000 C 
ATOM      7  C   UNL     1     -13.447   7.530 127.474  0.00  0.00    +0.000 C 
BRANCH   5   8
ATOM      8  S   UNL     1     -12.202   6.593 129.660  0.00  0.00    +0.000 S 
ATOM      9  H   UNL     1     -10.875   6.518 129.847  0.00  0.00    +0.000 HD
ENDBRANCH   5   8
ENDBRANCH   1   5
BRANCH   1  10
ATOM     10  C   UNL     1     -10.737   7.538 126.432  0.00  0.00    +0.000 C 
ATOM     11  OXT UNL     1     -10.385   6.360 126.449  0.00  0.00    +0.000 OA
BRANCH  10  12
ATOM     12  O   UNL     1     -10.871   8.161 125.244  0.00  0.00    +0.000 OA
ATOM     13  H   UNL     1     -11.762   8.311 124.887  0.00  0.00    +0.000 HD
ENDBRANCH  10  12
ENDBRANCH   1  10
TORSDOF 5
ENDMDL
MODEL 2
REMARK VINA RESULT:      -4.5      1.065      1.721
REMARK  Name = Penicillamine
REMARK  7 active torsions:
REMARK  status: ('A' for Active; 'I' for Inactive)
REMARK    1  A    between atoms: CA_2  and  N_3
REMARK    2  A    between atoms: CA_2  and  C_4
REMARK    3  A    between atoms: CA_2  and  C_7
REMARK    4  A    between atoms: C_4  and  O_5
REMARK    5  A    between atoms: C_7  and  C_8
REMARK    6  A    between atoms: C_7  and  C_9
REMARK    7  A    between atoms: C_7  and  S_10
REMARK                            x       y       z     vdW  Elec       q    Type
REMARK                         _______ _______ _______ _____ _____    ______ ____
ROOT
ATOM      1  CA  UNL     1     -10.876   8.374 128.133  0.00  0.00    +0.000 C 
ENDROOT
BRANCH   1   2
ATOM      2  N   UNL     1      -9.761   8.074 129.075  0.00  0.00    +0.000 NA
ATOM      3  H1  UNL     1      -9.962   8.440 130.003  0.00  0.00    +0.000 HD
ATOM      4  H2  UNL     1      -8.889   8.497 128.764  0.00  0.00    +0.000 HD
ENDBRANCH   1   2
BRANCH   1   5
ATOM      5  C   UNL     1     -12.270   8.160 128.798  0.00  0.00    +0.000 C 
ATOM      6  C   UNL     1     -12.136   7.607 130.231  0.00  0.00    +0.000 C 
ATOM      7  C   UNL     1     -13.040   9.499 128.896  0.00  0.00    +0.000 C 
BRANCH   5   8
ATOM      8  S   UNL     1     -13.400   7.085 127.778  0.00  0.00    +0.000 S 
ATOM      9  H   UNL     1     -13.588   7.819 126.670  0.00  0.00    +0.000 HD
ENDBRANCH   5   8
ENDBRANCH   1   5
BRANCH   1  10
ATOM     10  C   UNL     1     -10.603   7.607 126.803  0.00  0.00    +0.000 C 
ATOM     11  OXT UNL     1     -10.943   8.037 125.703  0.00  0.00    +0.000 OA
BRANCH  10  12
ATOM     12  O   UNL     1      -9.965   6.420 126.869  0.00  0.00    +0.000 OA
ATOM     13  H   UNL     1      -9.517   6.171 127.693  0.00  0.00    +0.000 HD
ENDBRANCH  10  12
ENDBRANCH   1  10
TORSDOF 5
ENDMDL
MODEL 3
REMARK VINA RESULT:      -4.2      3.236      3.860
REMARK  Name = Penicillamine
REMARK  7 active torsions:
REMARK  status: ('A' for Active; 'I' for Inactive)
REMARK    1  A    between atoms: CA_2  and  N_3
REMARK    2  A    between atoms: CA_2  and  C_4
REMARK    3  A    between atoms: CA_2  and  C_7
REMARK    4  A    between atoms: C_4  and  O_5
REMARK    5  A    between atoms: C_7  and  C_8
REMARK    6  A    between atoms: C_7  and  C_9
REMARK    7  A    between atoms: C_7  and  S_10
REMARK                            x       y       z     vdW  Elec       q    Type
REMARK                         _______ _______ _______ _____ _____    ______ ____
ROOT
ATOM      1  CA  UNL     1     -11.306   6.291 129.618  0.00  0.00    +0.000 C 
ENDROOT
BRANCH   1   2
ATOM      2  N   UNL     1     -10.084   5.708 128.995  0.00  0.00    +0.000 NA
ATOM      3  H1  UNL     1      -9.723   6.319 128.265  0.00  0.00    +0.000 HD
ATOM      4  H2  UNL     1     -10.280   4.806 128.567  0.00  0.00    +0.000 HD
ENDBRANCH   1   2
BRANCH   1   5
ATOM      5  C   UNL     1     -11.778   7.578 128.875  0.00  0.00    +0.000 C 
ATOM      6  C   UNL     1     -12.531   8.535 129.821  0.00  0.00    +0.000 C 
ATOM      7  C   UNL     1     -10.566   8.356 128.308  0.00  0.00    +0.000 C 
BRANCH   5   8
ATOM      8  S   UNL     1     -12.799   7.206 127.361  0.00  0.00    +0.000 S 
ATOM      9  H   UNL     1     -11.867   7.007 126.416  0.00  0.00    +0.000 HD
ENDBRANCH   5   8
ENDBRANCH   1   5
BRANCH   1  10
ATOM     10  C   UNL     1     -11.053   6.414 131.151  0.00  0.00    +0.000 C 
ATOM     11  OXT UNL     1      -9.997   6.834 131.622  0.00  0.00    +0.000 OA
BRANCH  10  12
ATOM     12  O   UNL     1     -12.040   6.045 131.994  0.00  0.00    +0.000 OA
ATOM     13  H   UNL     1     -11.823   5.864 132.923  0.00  0.00    +0.000 HD
ENDBRANCH  10  12
ENDBRANCH   1  10
TORSDOF 5
ENDMDL
MODEL 4
REMARK VINA RESULT:      -4.1      2.126      2.273
REMARK  Name = Penicillamine
REMARK  7 active torsions:
REMARK  status: ('A' for Active; 'I' for Inactive)
REMARK    1  A    between atoms: CA_2  and  N_3
REMARK    2  A    between atoms: CA_2  and  C_4
REMARK    3  A    between atoms: CA_2  and  C_7
REMARK    4  A    between atoms: C_4  and  O_5
REMARK    5  A    between atoms: C_7  and  C_8
REMARK    6  A    between atoms: C_7  and  C_9
REMARK    7  A    between atoms: C_7  and  S_10
REMARK                            x       y       z     vdW  Elec       q    Type
REMARK                         _______ _______ _______ _____ _____    ______ ____
ROOT
ATOM      1  CA  UNL     1     -11.237   7.558 128.306  0.00  0.00    +0.000 C 
ENDROOT
BRANCH   1   2
ATOM      2  N   UNL     1     -10.616   8.821 127.815  0.00  0.00    +0.000 NA
ATOM      3  H1  UNL     1      -9.642   8.671 127.558  0.00  0.00    +0.000 HD
ATOM      4  H2  UNL     1     -10.633   9.545 128.530  0.00  0.00    +0.000 HD
ENDBRANCH   1   2
BRANCH   1   5
ATOM      5  C   UNL     1     -12.611   7.818 128.995  0.00  0.00    +0.000 C 
ATOM      6  C   UNL     1     -13.026   9.300 128.893  0.00  0.00    +0.000 C 
ATOM      7  C   UNL     1     -13.726   6.984 128.320  0.00  0.00    +0.000 C 
BRANCH   5   8
ATOM      8  S   UNL     1     -12.652   7.241 130.767  0.00  0.00    +0.000 S 
ATOM      9  H   UNL     1     -12.760   8.391 131.451  0.00  0.00    +0.000 HD
ENDBRANCH   5   8
ENDBRANCH   1   5
BRANCH   1  10
ATOM     10  C   UNL     1     -10.166   6.786 129.136  0.00  0.00    +0.000 C 
ATOM     11  OXT UNL     1     -10.109   5.558 129.173  0.00  0.00    +0.000 OA
BRANCH  10  12
ATOM     12  O   UNL     1      -9.265   7.501 129.841  0.00  0.00    +0.000 OA
ATOM     13  H   UNL     1      -8.325   7.433 129.609  0.00  0.00    +0.000 HD
ENDBRANCH  10  12
ENDBRANCH   1  10
TORSDOF 5
ENDMDL
MODEL 5
REMARK VINA RESULT:      -4.1      3.106      3.572
REMARK  Name = Penicillamine
REMARK  7 active torsions:
REMARK  status: ('A' for Active; 'I' for Inactive)
REMARK    1  A    between atoms: CA_2  and  N_3
REMARK    2  A    between atoms: CA_2  and  C_4
REMARK    3  A    between atoms: CA_2  and  C_7
REMARK    4  A    between atoms: C_4  and  O_5
REMARK    5  A    between atoms: C_7  and  C_8
REMARK    6  A    between atoms: C_7  and  C_9
REMARK    7  A    between atoms: C_7  and  S_10
REMARK                            x       y       z     vdW  Elec       q    Type
REMARK                         _______ _______ _______ _____ _____    ______ ____
ROOT
ATOM      1  CA  UNL     1     -11.956   7.343 130.362  0.00  0.00    +0.000 C 
ENDROOT
BRANCH   1   2
ATOM      2  N   UNL     1     -13.102   7.099 131.283  0.00  0.00    +0.000 NA
ATOM      3  H1  UNL     1     -13.965   7.478 130.898  0.00  0.00    +0.000 HD
ATOM      4  H2  UNL     1     -12.952   7.544 132.187  0.00  0.00    +0.000 HD
ENDBRANCH   1   2
BRANCH   1   5
ATOM      5  C   UNL     1     -12.420   7.981 129.017  0.00  0.00    +0.000 C 
ATOM      6  C   UNL     1     -13.603   7.207 128.400  0.00  0.00    +0.000 C 
ATOM      7  C   UNL     1     -12.894   9.438 129.239  0.00  0.00    +0.000 C 
BRANCH   5   8
ATOM      8  S   UNL     1     -11.033   8.161 127.786  0.00  0.00    +0.000 S 
ATOM      9  H   UNL     1     -10.033   8.652 128.535  0.00  0.00    +0.000 HD
ENDBRANCH   5   8
ENDBRANCH   1   5
BRANCH   1  10
ATOM     10  C   UNL     1     -11.124   6.027 130.269  0.00  0.00    +0.000 C 
ATOM     11  OXT UNL     1     -11.577   4.984 129.802  0.00  0.00    +0.000 OA
BRANCH  10  12
ATOM     12  O   UNL     1      -9.854   6.041 130.720  0.00  0.00    +0.000 OA
ATOM     13  H   UNL     1      -9.519   5.272 131.209  0.00  0.00    +0.000 HD
ENDBRANCH  10  12
ENDBRANCH   1  10
TORSDOF 5
ENDMDL
MODEL 6
REMARK VINA RESULT:      -4.1      3.167      3.765
REMARK  Name = Penicillamine
REMARK  7 active torsions:
REMARK  status: ('A' for Active; 'I' for Inactive)
REMARK    1  A    between atoms: CA_2  and  N_3
REMARK    2  A    between atoms: CA_2  and  C_4
REMARK    3  A    between atoms: CA_2  and  C_7
REMARK    4  A    between atoms: C_4  and  O_5
REMARK    5  A    between atoms: C_7  and  C_8
REMARK    6  A    between atoms: C_7  and  C_9
REMARK    7  A    between atoms: C_7  and  S_10
REMARK                            x       y       z     vdW  Elec       q    Type
REMARK                         _______ _______ _______ _____ _____    ______ ____
ROOT
ATOM      1  CA  UNL     1     -11.295   6.332 129.534  0.00  0.00    +0.000 C 
ENDROOT
BRANCH   1   2
ATOM      2  N   UNL     1     -10.074   5.718 128.942  0.00  0.00    +0.000 NA
ATOM      3  H1  UNL     1     -10.047   4.716 129.121  0.00  0.00    +0.000 HD
ATOM      4  H2  UNL     1      -9.227   6.120 129.339  0.00  0.00    +0.000 HD
ENDBRANCH   1   2
BRANCH   1   5
ATOM      5  C   UNL     1     -11.719   7.627 128.776  0.00  0.00    +0.000 C 
ATOM      6  C   UNL     1     -10.502   8.351 128.165  0.00  0.00    +0.000 C 
ATOM      7  C   UNL     1     -12.680   7.287 127.611  0.00  0.00    +0.000 C 
BRANCH   5   8
ATOM      8  S   UNL     1     -12.719   8.790 129.834  0.00  0.00    +0.000 S 
ATOM      9  H   UNL     1     -11.956   9.894 129.863  0.00  0.00    +0.000 HD
ENDBRANCH   5   8
ENDBRANCH   1   5
BRANCH   1  10
ATOM     10  C   UNL     1     -11.074   6.456 131.073  0.00  0.00    +0.000 C 
ATOM     11  OXT UNL     1     -10.034   6.893 131.564  0.00  0.00    +0.000 OA
BRANCH  10  12
ATOM     12  O   UNL     1     -12.069   6.068 131.896  0.00  0.00    +0.000 OA
ATOM     13  H   UNL     1     -12.152   6.489 132.767  0.00  0.00    +0.000 HD
ENDBRANCH  10  12
ENDBRANCH   1  10
TORSDOF 5
ENDMDL
MODEL 7
REMARK VINA RESULT:      -4.0      2.383      2.889
REMARK  Name = Penicillamine
REMARK  7 active torsions:
REMARK  status: ('A' for Active; 'I' for Inactive)
REMARK    1  A    between atoms: CA_2  and  N_3
REMARK    2  A    between atoms: CA_2  and  C_4
REMARK    3  A    between atoms: CA_2  and  C_7
REMARK    4  A    between atoms: C_4  and  O_5
REMARK    5  A    between atoms: C_7  and  C_8
REMARK    6  A    between atoms: C_7  and  C_9
REMARK    7  A    between atoms: C_7  and  S_10
REMARK                            x       y       z     vdW  Elec       q    Type
REMARK                         _______ _______ _______ _____ _____    ______ ____
ROOT
ATOM      1  CA  UNL     1     -11.380   6.786 129.667  0.00  0.00    +0.000 C 
ENDROOT
BRANCH   1   2
ATOM      2  N   UNL     1     -11.919   5.405 129.515  0.00  0.00    +0.000 NA
ATOM      3  H1  UNL     1     -12.932   5.397 129.621  0.00  0.00    +0.000 HD
ATOM      4  H2  UNL     1     -11.535   4.778 130.219  0.00  0.00    +0.000 HD
ENDBRANCH   1   2
BRANCH   1   5
ATOM      5  C   UNL     1     -12.192   7.821 128.828  0.00  0.00    +0.000 C 
ATOM      6  C   UNL     1     -12.621   9.031 129.682  0.00  0.00    +0.000 C 
ATOM      7  C   UNL     1     -11.337   8.367 127.660  0.00  0.00    +0.000 C 
BRANCH   5   8
ATOM      8  S   UNL     1     -13.662   7.062 127.970  0.00  0.00    +0.000 S 
ATOM      9  H   UNL     1     -14.274   8.128 127.431  0.00  0.00    +0.000 HD
ENDBRANCH   5   8
ENDBRANCH   1   5
BRANCH   1  10
ATOM     10  C   UNL     1      -9.841   6.732 129.422  0.00  0.00    +0.000 C 
ATOM     11  OXT UNL     1      -9.051   7.498 129.973  0.00  0.00    +0.000 OA
BRANCH  10  12
ATOM     12  O   UNL     1      -9.361   5.803 128.571  0.00  0.00    +0.000 OA
ATOM     13  H   UNL     1      -9.284   4.883 128.871  0.00  0.00    +0.000 HD
ENDBRANCH  10  12
ENDBRANCH   1  10
TORSDOF 5
ENDMDL
MODEL 8
REMARK VINA RESULT:      -3.8      2.760      3.267
REMARK  Name = Penicillamine
REMARK  7 active torsions:
REMARK  status: ('A' for Active; 'I' for Inactive)
REMARK    1  A    between atoms: CA_2  and  N_3
REMARK    2  A    between atoms: CA_2  and  C_4
REMARK    3  A    between atoms: CA_2  and  C_7
REMARK    4  A    between atoms: C_4  and  O_5
REMARK    5  A    between atoms: C_7  and  C_8
REMARK    6  A    between atoms: C_7  and  C_9
REMARK    7  A    between atoms: C_7  and  S_10
REMARK                            x       y       z     vdW  Elec       q    Type
REMARK                         _______ _______ _______ _____ _____    ______ ____
ROOT
ATOM      1  CA  UNL     1     -11.355   6.932 129.378  0.00  0.00    +0.000 C 
ENDROOT
BRANCH   1   2
ATOM      2  N   UNL     1     -12.223   8.076 129.775  0.00  0.00    +0.000 NA
ATOM      3  H1  UNL     1     -12.954   8.234 129.084  0.00  0.00    +0.000 HD
ATOM      4  H2  UNL     1     -11.688   8.938 129.854  0.00  0.00    +0.000 HD
ENDBRANCH   1   2
BRANCH   1   5
ATOM      5  C   UNL     1     -10.657   6.278 130.610  0.00  0.00    +0.000 C 
ATOM      6  C   UNL     1      -9.259   6.880 130.855  0.00  0.00    +0.000 C 
ATOM      7  C   UNL     1     -11.487   6.513 131.895  0.00  0.00    +0.000 C 
BRANCH   5   8
ATOM      8  S   UNL     1     -10.565   4.421 130.488  0.00  0.00    +0.000 S 
ATOM      9  H   UNL     1     -10.998   4.184 129.239  0.00  0.00    +0.000 HD
ENDBRANCH   5   8
ENDBRANCH   1   5
BRANCH   1  10
ATOM     10  C   UNL     1     -10.431   7.410 128.216  0.00  0.00    +0.000 C 
ATOM     11  OXT UNL     1     -10.176   8.595 128.011  0.00  0.00    +0.000 OA
BRANCH  10  12
ATOM     12  O   UNL     1      -9.892   6.478 127.403  0.00  0.00    +0.000 OA
ATOM     13  H   UNL     1      -9.099   6.000 127.696  0.00  0.00    +0.000 HD
ENDBRANCH  10  12
ENDBRANCH   1  10
TORSDOF 5
ENDMDL
MODEL 9
REMARK VINA RESULT:      -3.8      2.588      3.084
REMARK  Name = Penicillamine
REMARK  7 active torsions:
REMARK  status: ('A' for Active; 'I' for Inactive)
REMARK    1  A    between atoms: CA_2  and  N_3
REMARK    2  A    between atoms: CA_2  and  C_4
REMARK    3  A    between atoms: CA_2  and  C_7
REMARK    4  A    between atoms: C_4  and  O_5
REMARK    5  A    between atoms: C_7  and  C_8
REMARK    6  A    between atoms: C_7  and  C_9
REMARK    7  A    between atoms: C_7  and  S_10
REMARK                            x       y       z     vdW  Elec       q    Type
REMARK                         _______ _______ _______ _____ _____    ______ ____
ROOT
ATOM      1  CA  UNL     1     -11.106   7.278 128.600  0.00  0.00    +0.000 C 
ENDROOT
BRANCH   1   2
ATOM      2  N   UNL     1     -10.346   8.491 128.184  0.00  0.00    +0.000 NA
ATOM      3  H1  UNL     1      -9.616   8.250 127.516  0.00  0.00    +0.000 HD
ATOM      4  H2  UNL     1      -9.894   8.936 128.980  0.00  0.00    +0.000 HD
ENDBRANCH   1   2
BRANCH   1   5
ATOM      5  C   UNL     1     -12.556   7.630 129.051  0.00  0.00    +0.000 C 
ATOM      6  C   UNL     1     -13.610   6.918 128.178  0.00  0.00    +0.000 C 
ATOM      7  C   UNL     1     -12.797   7.182 130.513  0.00  0.00    +0.000 C 
BRANCH   5   8
ATOM      8  S   UNL     1     -12.872   9.465 129.103  0.00  0.00    +0.000 S 
ATOM      9  H   UNL     1     -13.860   9.622 128.208  0.00  0.00    +0.000 HD
ENDBRANCH   5   8
ENDBRANCH   1   5
BRANCH   1  10
ATOM     10  C   UNL     1     -10.226   6.482 129.612  0.00  0.00    +0.000 C 
ATOM     11  OXT UNL     1      -9.490   7.030 130.431  0.00  0.00    +0.000 OA
BRANCH  10  12
ATOM     12  O   UNL     1     -10.280   5.135 129.584  0.00  0.00    +0.000 OA
ATOM     13  H   UNL     1     -10.105   4.639 130.401  0.00  0.00    +0.000 HD
ENDBRANCH  10  12
ENDBRANCH   1  10
TORSDOF 5
ENDMDL
