MODEL 1
REMARK VINA RESULT:      -5.4      0.000      0.000
REMARK  Name = Pentaerythritol tetranitrate
REMARK  12 active torsions:
REMARK  status: ('A' for Active; 'I' for Inactive)
REMARK    1  A    between atoms: N_2  and  O_4
REMARK    2  A    between atoms: O_4  and  C_5
REMARK    3  A    between atoms: C_5  and  C_6
REMARK    4  A    between atoms: C_6  and  C_7
REMARK    5  A    between atoms: C_6  and  C_12
REMARK    6  A    between atoms: C_6  and  C_17
REMARK    7  A    between atoms: C_7  and  O_8
REMARK    8  A    between atoms: O_8  and  N_9
REMARK    9  A    between atoms: C_12  and  O_13
REMARK   10  A    between atoms: O_13  and  N_14
REMARK   11  A    between atoms: C_17  and  O_18
REMARK   12  A    between atoms: O_18  and  N_19
REMARK                            x       y       z     vdW  Elec       q    Type
REMARK                         _______ _______ _______ _____ _____    ______ ____
ROOT
ATOM      1  C   UNL     1     -11.379   6.630 130.303  0.00  0.00    +0.000 C 
ENDROOT
BRANCH   1   2
ATOM      2  C   UNL     1     -12.754   7.369 130.221  0.00  0.00    +0.000 C 
BRANCH   2   3
ATOM      3  O   UNL     1     -12.512   8.776 130.281  0.00  0.00    +0.000 OA
BRANCH   3   5
ATOM      4  O   UNL     1     -13.341  10.717 129.675  0.00  0.00    +0.000 OA
ATOM      5  N   UNL     1     -13.232   9.540 129.339  0.00  0.00    +0.000 N 
ATOM      6  O   UNL     1     -13.638   8.951 128.340  0.00  0.00    +0.000 OA
ENDBRANCH   3   5
ENDBRANCH   2   3
ENDBRANCH   1   2
BRANCH   1   7
ATOM      7  C   UNL     1     -11.521   5.226 129.642  0.00  0.00    +0.000 C 
BRANCH   7   8
ATOM      8  O   UNL     1     -11.311   4.237 130.652  0.00  0.00    +0.000 OA
BRANCH   8   9
ATOM      9  N   UNL     1     -10.240   3.357 130.369  0.00  0.00    +0.000 N 
ATOM     10  O   UNL     1      -9.597   3.569 129.341  0.00  0.00    +0.000 OA
ATOM     11  O   UNL     1     -10.109   2.489 131.227  0.00  0.00    +0.000 OA
ENDBRANCH   8   9
ENDBRANCH   7   8
ENDBRANCH   1   7
BRANCH   1  12
ATOM     12  C   UNL     1     -10.292   7.451 129.540  0.00  0.00    +0.000 C 
BRANCH  12  13
ATOM     13  O   UNL     1      -9.900   6.735 128.370  0.00  0.00    +0.000 OA
BRANCH  13  14
ATOM     14  N   UNL     1     -10.349   7.305 127.161  0.00  0.00    +0.000 N 
ATOM     15  O   UNL     1     -10.737   8.473 127.206  0.00  0.00    +0.000 OA
ATOM     16  O   UNL     1     -10.278   6.524 126.218  0.00  0.00    +0.000 OA
ENDBRANCH  13  14
ENDBRANCH  12  13
ENDBRANCH   1  12
BRANCH   1  17
ATOM     17  C   UNL     1     -10.948   6.457 131.789  0.00  0.00    +0.000 C 
BRANCH  17  18
ATOM     18  O   UNL     1      -9.558   6.779 131.888  0.00  0.00    +0.000 OA
BRANCH  18  19
ATOM     19  N   UNL     1      -8.805   5.850 132.650  0.00  0.00    +0.000 N 
ATOM     20  O   UNL     1      -9.437   5.007 133.284  0.00  0.00    +0.000 OA
ATOM     21  O   UNL     1      -7.596   6.041 132.561  0.00  0.00    +0.000 OA
ENDBRANCH  18  19
ENDBRANCH  17  18
ENDBRANCH   1  17
TORSDOF 12
ENDMDL
MODEL 2
REMARK VINA RESULT:      -5.3      1.981      4.104
REMARK  Name = Pentaerythritol tetranitrate
REMARK  12 active torsions:
REMARK  status: ('A' for Active; 'I' for Inactive)
REMARK    1  A    between atoms: N_2  and  O_4
REMARK    2  A    between atoms: O_4  and  C_5
REMARK    3  A    between atoms: C_5  and  C_6
REMARK    4  A    between atoms: C_6  and  C_7
REMARK    5  A    between atoms: C_6  and  C_12
REMARK    6  A    between atoms: C_6  and  C_17
REMARK    7  A    between atoms: C_7  and  O_8
REMARK    8  A    between atoms: O_8  and  N_9
REMARK    9  A    between atoms: C_12  and  O_13
REMARK   10  A    between atoms: O_13  and  N_14
REMARK   11  A    between atoms: C_17  and  O_18
REMARK   12  A    between atoms: O_18  and  N_19
REMARK                            x       y       z     vdW  Elec       q    Type
REMARK                         _______ _______ _______ _____ _____    ______ ____
ROOT
ATOM      1  C   UNL     1      -9.728   5.307 130.455  0.00  0.00    +0.000 C 
ENDROOT
BRANCH   1   2
ATOM      2  C   UNL     1     -11.282   5.249 130.610  0.00  0.00    +0.000 C 
BRANCH   2   3
ATOM      3  O   UNL     1     -11.681   6.273 131.523  0.00  0.00    +0.000 OA
BRANCH   3   5
ATOM      4  O   UNL     1     -13.196   7.797 131.972  0.00  0.00    +0.000 OA
ATOM      5  N   UNL     1     -12.756   7.072 131.082  0.00  0.00    +0.000 N 
ATOM      6  O   UNL     1     -13.097   6.946 129.908  0.00  0.00    +0.000 OA
ENDBRANCH   3   5
ENDBRANCH   2   3
ENDBRANCH   1   2
BRANCH   1   7
ATOM      7  C   UNL     1      -9.381   5.675 128.981  0.00  0.00    +0.000 C 
BRANCH   7   8
ATOM      8  O   UNL     1     -10.582   6.107 128.338  0.00  0.00    +0.000 OA
BRANCH   8   9
ATOM      9  N   UNL     1     -10.374   7.116 127.368  0.00  0.00    +0.000 N 
ATOM     10  O   UNL     1     -10.347   6.762 126.189  0.00  0.00    +0.000 OA
ATOM     11  O   UNL     1     -10.255   8.229 127.870  0.00  0.00    +0.000 OA
ENDBRANCH   8   9
ENDBRANCH   7   8
ENDBRANCH   1   7
BRANCH   1  12
ATOM     12  C   UNL     1      -9.141   6.395 131.409  0.00  0.00    +0.000 C 
BRANCH  12  13
ATOM     13  O   UNL     1      -8.198   7.187 130.691  0.00  0.00    +0.000 OA
BRANCH  13  14
ATOM     14  N   UNL     1      -6.863   7.037 131.124  0.00  0.00    +0.000 N 
ATOM     15  O   UNL     1      -6.681   6.378 132.148  0.00  0.00    +0.000 OA
ATOM     16  O   UNL     1      -6.063   7.602 130.386  0.00  0.00    +0.000 OA
ENDBRANCH  13  14
ENDBRANCH  12  13
ENDBRANCH   1  12
BRANCH   1  17
ATOM     17  C   UNL     1      -9.101   3.924 130.800  0.00  0.00    +0.000 C 
BRANCH  17  18
ATOM     18  O   UNL     1     -10.160   3.039 131.177  0.00  0.00    +0.000 OA
BRANCH  18  19
ATOM     19  N   UNL     1      -9.834   2.176 132.253  0.00  0.00    +0.000 N 
ATOM     20  O   UNL     1      -9.420   2.703 133.285  0.00  0.00    +0.000 OA
ATOM     21  O   UNL     1     -10.016   0.994 131.979  0.00  0.00    +0.000 OA
ENDBRANCH  18  19
ENDBRANCH  17  18
ENDBRANCH   1  17
TORSDOF 12
ENDMDL
MODEL 3
REMARK VINA RESULT:      -5.3      6.873      9.063
REMARK  Name = Pentaerythritol tetranitrate
REMARK  12 active torsions:
REMARK  status: ('A' for Active; 'I' for Inactive)
REMARK    1  A    between atoms: N_2  and  O_4
REMARK    2  A    between atoms: O_4  and  C_5
REMARK    3  A    between atoms: C_5  and  C_6
REMARK    4  A    between atoms: C_6  and  C_7
REMARK    5  A    between atoms: C_6  and  C_12
REMARK    6  A    between atoms: C_6  and  C_17
REMARK    7  A    between atoms: C_7  and  O_8
REMARK    8  A    between atoms: O_8  and  N_9
REMARK    9  A    between atoms: C_12  and  O_13
REMARK   10  A    between atoms: O_13  and  N_14
REMARK   11  A    between atoms: C_17  and  O_18
REMARK   12  A    between atoms: O_18  and  N_19
REMARK                            x       y       z     vdW  Elec       q    Type
REMARK                         _______ _______ _______ _____ _____    ______ ____
ROOT
ATOM      1  C   UNL     1      -7.978   1.931 124.347  0.00  0.00    +0.000 C 
ENDROOT
BRANCH   1   2
ATOM      2  C   UNL     1      -9.507   1.629 124.232  0.00  0.00    +0.000 C 
BRANCH   2   3
ATOM      3  O   UNL     1      -9.688   0.212 124.246  0.00  0.00    +0.000 OA
BRANCH   3   5
ATOM      4  O   UNL     1      -9.817  -1.528 122.913  0.00  0.00    +0.000 OA
ATOM      5  N   UNL     1     -10.118  -0.341 123.023  0.00  0.00    +0.000 N 
ATOM      6  O   UNL     1     -10.721   0.407 122.256  0.00  0.00    +0.000 OA
ENDBRANCH   3   5
ENDBRANCH   2   3
ENDBRANCH   1   2
BRANCH   1   7
ATOM      7  C   UNL     1      -7.224   0.602 124.658  0.00  0.00    +0.000 C 
BRANCH   7   8
ATOM      8  O   UNL     1      -6.693   0.096 123.432  0.00  0.00    +0.000 OA
BRANCH   8   9
ATOM      9  N   UNL     1      -6.556  -1.312 123.412  0.00  0.00    +0.000 N 
ATOM     10  O   UNL     1      -6.814  -1.915 124.454  0.00  0.00    +0.000 OA
ATOM     11  O   UNL     1      -6.193  -1.730 122.317  0.00  0.00    +0.000 OA
ENDBRANCH   8   9
ENDBRANCH   7   8
ENDBRANCH   1   7
BRANCH   1  12
ATOM     12  C   UNL     1      -7.451   2.518 123.000  0.00  0.00    +0.000 C 
BRANCH  12  13
ATOM     13  O   UNL     1      -8.557   2.974 122.224  0.00  0.00    +0.000 OA
BRANCH  13  14
ATOM     14  N   UNL     1      -8.197   3.638 121.032  0.00  0.00    +0.000 N 
ATOM     15  O   UNL     1      -7.003   3.895 120.877  0.00  0.00    +0.000 OA
ATOM     16  O   UNL     1      -9.162   3.861 120.308  0.00  0.00    +0.000 OA
ENDBRANCH  13  14
ENDBRANCH  12  13
ENDBRANCH   1  12
BRANCH   1  17
ATOM     17  C   UNL     1      -7.715   2.951 125.494  0.00  0.00    +0.000 C 
BRANCH  17  18
ATOM     18  O   UNL     1      -8.767   3.921 125.473  0.00  0.00    +0.000 OA
BRANCH  18  19
ATOM     19  N   UNL     1      -8.338   5.241 125.759  0.00  0.00    +0.000 N 
ATOM     20  O   UNL     1      -7.145   5.488 125.592  0.00  0.00    +0.000 OA
ATOM     21  O   UNL     1      -9.254   5.958 126.149  0.00  0.00    +0.000 OA
ENDBRANCH  18  19
ENDBRANCH  17  18
ENDBRANCH   1  17
TORSDOF 12
ENDMDL
MODEL 4
REMARK VINA RESULT:      -5.3      1.999      5.721
REMARK  Name = Pentaerythritol tetranitrate
REMARK  12 active torsions:
REMARK  status: ('A' for Active; 'I' for Inactive)
REMARK    1  A    between atoms: N_2  and  O_4
REMARK    2  A    between atoms: O_4  and  C_5
REMARK    3  A    between atoms: C_5  and  C_6
REMARK    4  A    between atoms: C_6  and  C_7
REMARK    5  A    between atoms: C_6  and  C_12
REMARK    6  A    between atoms: C_6  and  C_17
REMARK    7  A    between atoms: C_7  and  O_8
REMARK    8  A    between atoms: O_8  and  N_9
REMARK    9  A    between atoms: C_12  and  O_13
REMARK   10  A    between atoms: O_13  and  N_14
REMARK   11  A    between atoms: C_17  and  O_18
REMARK   12  A    between atoms: O_18  and  N_19
REMARK                            x       y       z     vdW  Elec       q    Type
REMARK                         _______ _______ _______ _____ _____    ______ ____
ROOT
ATOM      1  C   UNL     1      -9.702   5.341 130.213  0.00  0.00    +0.000 C 
ENDROOT
BRANCH   1   2
ATOM      2  C   UNL     1      -9.082   3.991 130.699  0.00  0.00    +0.000 C 
BRANCH   2   3
ATOM      3  O   UNL     1     -10.148   3.110 131.057  0.00  0.00    +0.000 OA
BRANCH   3   5
ATOM      4  O   UNL     1      -9.429   2.815 133.111  0.00  0.00    +0.000 OA
ATOM      5  N   UNL     1      -9.855   2.228 132.118  0.00  0.00    +0.000 N 
ATOM      6  O   UNL     1     -10.062   1.033 131.920  0.00  0.00    +0.000 OA
ENDBRANCH   3   5
ENDBRANCH   2   3
ENDBRANCH   1   2
BRANCH   1   7
ATOM      7  C   UNL     1     -11.255   5.239 130.291  0.00  0.00    +0.000 C 
BRANCH   7   8
ATOM      8  O   UNL     1     -11.710   6.152 131.292  0.00  0.00    +0.000 OA
BRANCH   8   9
ATOM      9  N   UNL     1     -12.798   6.955 130.875  0.00  0.00    +0.000 N 
ATOM     10  O   UNL     1     -13.073   6.946 129.675  0.00  0.00    +0.000 OA
ATOM     11  O   UNL     1     -13.322   7.554 131.809  0.00  0.00    +0.000 OA
ENDBRANCH   8   9
ENDBRANCH   7   8
ENDBRANCH   1   7
BRANCH   1  12
ATOM     12  C   UNL     1      -9.216   6.507 131.132  0.00  0.00    +0.000 C 
BRANCH  12  13
ATOM     13  O   UNL     1      -8.177   7.224 130.470  0.00  0.00    +0.000 OA
BRANCH  13  14
ATOM     14  N   UNL     1      -6.899   7.060 131.045  0.00  0.00    +0.000 N 
ATOM     15  O   UNL     1      -5.949   7.562 130.444  0.00  0.00    +0.000 OA
ATOM     16  O   UNL     1      -6.934   6.423 132.093  0.00  0.00    +0.000 OA
ENDBRANCH  13  14
ENDBRANCH  12  13
ENDBRANCH   1  12
BRANCH   1  17
ATOM     17  C   UNL     1      -9.278   5.630 128.743  0.00  0.00    +0.000 C 
BRANCH  17  18
ATOM     18  O   UNL     1     -10.331   6.369 128.116  0.00  0.00    +0.000 OA
BRANCH  18  19
ATOM     19  N   UNL     1     -10.129   6.594 126.731  0.00  0.00    +0.000 N 
ATOM     20  O   UNL     1     -10.869   7.412 126.185  0.00  0.00    +0.000 OA
ATOM     21  O   UNL     1      -9.219   5.910 126.272  0.00  0.00    +0.000 OA
ENDBRANCH  18  19
ENDBRANCH  17  18
ENDBRANCH   1  17
TORSDOF 12
ENDMDL
MODEL 5
REMARK VINA RESULT:      -5.3      6.747      9.084
REMARK  Name = Pentaerythritol tetranitrate
REMARK  12 active torsions:
REMARK  status: ('A' for Active; 'I' for Inactive)
REMARK    1  A    between atoms: N_2  and  O_4
REMARK    2  A    between atoms: O_4  and  C_5
REMARK    3  A    between atoms: C_5  and  C_6
REMARK    4  A    between atoms: C_6  and  C_7
REMARK    5  A    between atoms: C_6  and  C_12
REMARK    6  A    between atoms: C_6  and  C_17
REMARK    7  A    between atoms: C_7  and  O_8
REMARK    8  A    between atoms: O_8  and  N_9
REMARK    9  A    between atoms: C_12  and  O_13
REMARK   10  A    between atoms: O_13  and  N_14
REMARK   11  A    between atoms: C_17  and  O_18
REMARK   12  A    between atoms: O_18  and  N_19
REMARK                            x       y       z     vdW  Elec       q    Type
REMARK                         _______ _______ _______ _____ _____    ______ ____
ROOT
ATOM      1  C   UNL     1      -7.357   2.563 123.776  0.00  0.00    +0.000 C 
ENDROOT
BRANCH   1   2
ATOM      2  C   UNL     1      -7.396   2.683 125.334  0.00  0.00    +0.000 C 
BRANCH   2   3
ATOM      3  O   UNL     1      -8.497   3.519 125.693  0.00  0.00    +0.000 OA
BRANCH   3   5
ATOM      4  O   UNL     1      -6.976   4.910 126.449  0.00  0.00    +0.000 OA
ATOM      5  N   UNL     1      -8.144   4.830 126.075  0.00  0.00    +0.000 N 
ATOM      6  O   UNL     1      -9.017   5.690 125.982  0.00  0.00    +0.000 OA
ENDBRANCH   3   5
ENDBRANCH   2   3
ENDBRANCH   1   2
BRANCH   1   7
ATOM      7  C   UNL     1      -6.883   1.128 123.393  0.00  0.00    +0.000 C 
BRANCH   7   8
ATOM      8  O   UNL     1      -6.923   0.319 124.569  0.00  0.00    +0.000 OA
BRANCH   8   9
ATOM      9  N   UNL     1      -7.705  -0.852 124.425  0.00  0.00    +0.000 N 
ATOM     10  O   UNL     1      -8.526  -1.089 125.311  0.00  0.00    +0.000 OA
ATOM     11  O   UNL     1      -7.439  -1.469 123.399  0.00  0.00    +0.000 OA
ENDBRANCH   8   9
ENDBRANCH   7   8
ENDBRANCH   1   7
BRANCH   1  12
ATOM     12  C   UNL     1      -8.784   2.806 123.192  0.00  0.00    +0.000 C 
BRANCH  12  13
ATOM     13  O   UNL     1      -9.223   1.627 122.520  0.00  0.00    +0.000 OA
BRANCH  13  14
ATOM     14  N   UNL     1     -10.321   0.985 123.130  0.00  0.00    +0.000 N 
ATOM     15  O   UNL     1     -10.614   1.345 124.270  0.00  0.00    +0.000 OA
ATOM     16  O   UNL     1     -10.835   0.141 122.403  0.00  0.00    +0.000 OA
ENDBRANCH  13  14
ENDBRANCH  12  13
ENDBRANCH   1  12
BRANCH   1  17
ATOM     17  C   UNL     1      -6.368   3.608 123.180  0.00  0.00    +0.000 C 
BRANCH  17  18
ATOM     18  O   UNL     1      -5.977   3.156 121.880  0.00  0.00    +0.000 OA
BRANCH  18  19
ATOM     19  N   UNL     1      -6.129   4.130 120.862  0.00  0.00    +0.000 N 
ATOM     20  O   UNL     1      -5.296   5.034 120.827  0.00  0.00    +0.000 OA
ATOM     21  O   UNL     1      -7.107   3.918 120.152  0.00  0.00    +0.000 OA
ENDBRANCH  18  19
ENDBRANCH  17  18
ENDBRANCH   1  17
TORSDOF 12
ENDMDL
MODEL 6
REMARK VINA RESULT:      -5.3      6.369      9.017
REMARK  Name = Pentaerythritol tetranitrate
REMARK  12 active torsions:
REMARK  status: ('A' for Active; 'I' for Inactive)
REMARK    1  A    between atoms: N_2  and  O_4
REMARK    2  A    between atoms: O_4  and  C_5
REMARK    3  A    between atoms: C_5  and  C_6
REMARK    4  A    between atoms: C_6  and  C_7
REMARK    5  A    between atoms: C_6  and  C_12
REMARK    6  A    between atoms: C_6  and  C_17
REMARK    7  A    between atoms: C_7  and  O_8
REMARK    8  A    between atoms: O_8  and  N_9
REMARK    9  A    between atoms: C_12  and  O_13
REMARK   10  A    between atoms: O_13  and  N_14
REMARK   11  A    between atoms: C_17  and  O_18
REMARK   12  A    between atoms: O_18  and  N_19
REMARK                            x       y       z     vdW  Elec       q    Type
REMARK                         _______ _______ _______ _____ _____    ______ ____
ROOT
ATOM      1  C   UNL     1      -8.176   1.756 125.004  0.00  0.00    +0.000 C 
ENDROOT
BRANCH   1   2
ATOM      2  C   UNL     1      -6.867   1.547 124.176  0.00  0.00    +0.000 C 
BRANCH   2   3
ATOM      3  O   UNL     1      -6.125   2.767 124.194  0.00  0.00    +0.000 OA
BRANCH   3   5
ATOM      4  O   UNL     1      -5.617   4.569 123.046  0.00  0.00    +0.000 OA
ATOM      5  N   UNL     1      -6.015   3.411 122.944  0.00  0.00    +0.000 N 
ATOM      6  O   UNL     1      -6.317   2.752 121.951  0.00  0.00    +0.000 OA
ENDBRANCH   3   5
ENDBRANCH   2   3
ENDBRANCH   1   2
BRANCH   1   7
ATOM      7  C   UNL     1      -8.005   3.015 125.908  0.00  0.00    +0.000 C 
BRANCH   7   8
ATOM      8  O   UNL     1      -8.880   4.033 125.419  0.00  0.00    +0.000 OA
BRANCH   8   9
ATOM      9  N   UNL     1      -8.511   5.339 125.820  0.00  0.00    +0.000 N 
ATOM     10  O   UNL     1      -9.413   6.083 126.203  0.00  0.00    +0.000 OA
ATOM     11  O   UNL     1      -7.303   5.532 125.726  0.00  0.00    +0.000 OA
ENDBRANCH   8   9
ENDBRANCH   7   8
ENDBRANCH   1   7
BRANCH   1  12
ATOM     12  C   UNL     1      -9.383   1.975 124.039  0.00  0.00    +0.000 C 
BRANCH  12  13
ATOM     13  O   UNL     1      -9.159   1.246 122.834  0.00  0.00    +0.000 OA
BRANCH  13  14
ATOM     14  N   UNL     1     -10.057   0.178 122.625  0.00  0.00    +0.000 N 
ATOM     15  O   UNL     1     -11.258   0.445 122.661  0.00  0.00    +0.000 OA
ATOM     16  O   UNL     1      -9.482  -0.888 122.427  0.00  0.00    +0.000 OA
ENDBRANCH  13  14
ENDBRANCH  12  13
ENDBRANCH   1  12
BRANCH   1  17
ATOM     17  C   UNL     1      -8.449   0.513 125.902  0.00  0.00    +0.000 C 
BRANCH  17  18
ATOM     18  O   UNL     1      -7.851  -0.626 125.275  0.00  0.00    +0.000 OA
BRANCH  18  19
ATOM     19  N   UNL     1      -8.492  -1.853 125.581  0.00  0.00    +0.000 N 
ATOM     20  O   UNL     1      -9.720  -1.842 125.637  0.00  0.00    +0.000 OA
ATOM     21  O   UNL     1      -7.693  -2.769 125.754  0.00  0.00    +0.000 OA
ENDBRANCH  18  19
ENDBRANCH  17  18
ENDBRANCH   1  17
TORSDOF 12
ENDMDL
MODEL 7
REMARK VINA RESULT:      -5.2      6.765      9.235
REMARK  Name = Pentaerythritol tetranitrate
REMARK  12 active torsions:
REMARK  status: ('A' for Active; 'I' for Inactive)
REMARK    1  A    between atoms: N_2  and  O_4
REMARK    2  A    between atoms: O_4  and  C_5
REMARK    3  A    between atoms: C_5  and  C_6
REMARK    4  A    between atoms: C_6  and  C_7
REMARK    5  A    between atoms: C_6  and  C_12
REMARK    6  A    between atoms: C_6  and  C_17
REMARK    7  A    between atoms: C_7  and  O_8
REMARK    8  A    between atoms: O_8  and  N_9
REMARK    9  A    between atoms: C_12  and  O_13
REMARK   10  A    between atoms: O_13  and  N_14
REMARK   11  A    between atoms: C_17  and  O_18
REMARK   12  A    between atoms: O_18  and  N_19
REMARK                            x       y       z     vdW  Elec       q    Type
REMARK                         _______ _______ _______ _____ _____    ______ ____
ROOT
ATOM      1  C   UNL     1      -7.962   1.827 124.488  0.00  0.00    +0.000 C 
ENDROOT
BRANCH   1   2
ATOM      2  C   UNL     1      -7.076   2.051 123.220  0.00  0.00    +0.000 C 
BRANCH   2   3
ATOM      3  O   UNL     1      -6.230   3.178 123.456  0.00  0.00    +0.000 OA
BRANCH   3   5
ATOM      4  O   UNL     1      -6.818   3.791 121.431  0.00  0.00    +0.000 OA
ATOM      5  N   UNL     1      -6.000   3.990 122.327  0.00  0.00    +0.000 N 
ATOM      6  O   UNL     1      -5.049   4.766 122.385  0.00  0.00    +0.000 OA
ENDBRANCH   3   5
ENDBRANCH   2   3
ENDBRANCH   1   2
BRANCH   1   7
ATOM      7  C   UNL     1      -7.557   0.476 125.154  0.00  0.00    +0.000 C 
BRANCH   7   8
ATOM      8  O   UNL     1      -6.518  -0.111 124.368  0.00  0.00    +0.000 OA
BRANCH   8   9
ATOM      9  N   UNL     1      -6.810  -1.424 123.932  0.00  0.00    +0.000 N 
ATOM     10  O   UNL     1      -6.434  -1.735 122.801  0.00  0.00    +0.000 OA
ATOM     11  O   UNL     1      -7.409  -2.077 124.781  0.00  0.00    +0.000 OA
ENDBRANCH   8   9
ENDBRANCH   7   8
ENDBRANCH   1   7
BRANCH   1  12
ATOM     12  C   UNL     1      -7.734   2.990 125.504  0.00  0.00    +0.000 C 
BRANCH  12  13
ATOM     13  O   UNL     1      -8.758   3.968 125.334  0.00  0.00    +0.000 OA
BRANCH  13  14
ATOM     14  N   UNL     1      -8.408   5.260 125.779  0.00  0.00    +0.000 N 
ATOM     15  O   UNL     1      -9.314   5.955 126.240  0.00  0.00    +0.000 OA
ATOM     16  O   UNL     1      -7.213   5.499 125.635  0.00  0.00    +0.000 OA
ENDBRANCH  13  14
ENDBRANCH  12  13
ENDBRANCH   1  12
BRANCH   1  17
ATOM     17  C   UNL     1      -9.466   1.773 124.091  0.00  0.00    +0.000 C 
BRANCH  17  18
ATOM     18  O   UNL     1      -9.877   0.402 124.096  0.00  0.00    +0.000 OA
BRANCH  18  19
ATOM     19  N   UNL     1     -10.071  -0.144 122.802  0.00  0.00    +0.000 N 
ATOM     20  O   UNL     1      -9.957  -1.363 122.689  0.00  0.00    +0.000 OA
ATOM     21  O   UNL     1     -10.328   0.715 121.964  0.00  0.00    +0.000 OA
ENDBRANCH  18  19
ENDBRANCH  17  18
ENDBRANCH   1  17
TORSDOF 12
ENDMDL
MODEL 8
REMARK VINA RESULT:      -5.2      6.227      9.071
REMARK  Name = Pentaerythritol tetranitrate
REMARK  12 active torsions:
REMARK  status: ('A' for Active; 'I' for Inactive)
REMARK    1  A    between atoms: N_2  and  O_4
REMARK    2  A    between atoms: O_4  and  C_5
REMARK    3  A    between atoms: C_5  and  C_6
REMARK    4  A    between atoms: C_6  and  C_7
REMARK    5  A    between atoms: C_6  and  C_12
REMARK    6  A    between atoms: C_6  and  C_17
REMARK    7  A    between atoms: C_7  and  O_8
REMARK    8  A    between atoms: O_8  and  N_9
REMARK    9  A    between atoms: C_12  and  O_13
REMARK   10  A    between atoms: O_13  and  N_14
REMARK   11  A    between atoms: C_17  and  O_18
REMARK   12  A    between atoms: O_18  and  N_19
REMARK                            x       y       z     vdW  Elec       q    Type
REMARK                         _______ _______ _______ _____ _____    ______ ____
ROOT
ATOM      1  C   UNL     1      -7.592   2.406 123.878  0.00  0.00    +0.000 C 
ENDROOT
BRANCH   1   2
ATOM      2  C   UNL     1      -7.001   1.318 124.832  0.00  0.00    +0.000 C 
BRANCH   2   3
ATOM      3  O   UNL     1      -8.046   0.860 125.692  0.00  0.00    +0.000 OA
BRANCH   3   5
ATOM      4  O   UNL     1      -6.855   1.394 127.458  0.00  0.00    +0.000 OA
ATOM      5  N   UNL     1      -7.998   1.372 127.005  0.00  0.00    +0.000 N 
ATOM      6  O   UNL     1      -9.065   1.720 127.506  0.00  0.00    +0.000 OA
ENDBRANCH   3   5
ENDBRANCH   2   3
ENDBRANCH   1   2
BRANCH   1   7
ATOM      7  C   UNL     1      -9.102   2.101 123.639  0.00  0.00    +0.000 C 
BRANCH   7   8
ATOM      8  O   UNL     1      -9.204   1.215 122.522  0.00  0.00    +0.000 OA
BRANCH   8   9
ATOM      9  N   UNL     1     -10.173   0.198 122.692  0.00  0.00    +0.000 N 
ATOM     10  O   UNL     1     -11.349   0.553 122.770  0.00  0.00    +0.000 OA
ATOM     11  O   UNL     1      -9.673  -0.922 122.730  0.00  0.00    +0.000 OA
ENDBRANCH   8   9
ENDBRANCH   7   8
ENDBRANCH   1   7
BRANCH   1  12
ATOM     12  C   UNL     1      -7.449   3.816 124.531  0.00  0.00    +0.000 C 
BRANCH  12  13
ATOM     13  O   UNL     1      -8.686   4.179 125.139  0.00  0.00    +0.000 OA
BRANCH  13  14
ATOM     14  N   UNL     1      -8.566   5.108 126.194  0.00  0.00    +0.000 N 
ATOM     15  O   UNL     1      -9.366   6.044 126.205  0.00  0.00    +0.000 OA
ATOM     16  O   UNL     1      -7.654   4.829 126.965  0.00  0.00    +0.000 OA
ENDBRANCH  13  14
ENDBRANCH  12  13
ENDBRANCH   1  12
BRANCH   1  17
ATOM     17  C   UNL     1      -6.842   2.389 122.513  0.00  0.00    +0.000 C 
BRANCH  17  18
ATOM     18  O   UNL     1      -6.856   3.718 121.983  0.00  0.00    +0.000 OA
BRANCH  18  19
ATOM     19  N   UNL     1      -7.467   3.823 120.709  0.00  0.00    +0.000 N 
ATOM     20  O   UNL     1      -8.693   3.912 120.683  0.00  0.00    +0.000 OA
ATOM     21  O   UNL     1      -6.649   3.802 119.793  0.00  0.00    +0.000 OA
ENDBRANCH  18  19
ENDBRANCH  17  18
ENDBRANCH   1  17
TORSDOF 12
ENDMDL
MODEL 9
REMARK VINA RESULT:      -5.2      6.514      9.308
REMARK  Name = Pentaerythritol tetranitrate
REMARK  12 active torsions:
REMARK  status: ('A' for Active; 'I' for Inactive)
REMARK    1  A    between atoms: N_2  and  O_4
REMARK    2  A    between atoms: O_4  and  C_5
REMARK    3  A    between atoms: C_5  and  C_6
REMARK    4  A    between atoms: C_6  and  C_7
REMARK    5  A    between atoms: C_6  and  C_12
REMARK    6  A    between atoms: C_6  and  C_17
REMARK    7  A    between atoms: C_7  and  O_8
REMARK    8  A    between atoms: O_8  and  N_9
REMARK    9  A    between atoms: C_12  and  O_13
REMARK   10  A    between atoms: O_13  and  N_14
REMARK   11  A    between atoms: C_17  and  O_18
REMARK   12  A    between atoms: O_18  and  N_19
REMARK                            x       y       z     vdW  Elec       q    Type
REMARK                         _______ _______ _______ _____ _____    ______ ____
ROOT
ATOM      1  C   UNL     1      -7.433   2.452 123.986  0.00  0.00    +0.000 C 
ENDROOT
BRANCH   1   2
ATOM      2  C   UNL     1      -7.002   0.951 124.047  0.00  0.00    +0.000 C 
BRANCH   2   3
ATOM      3  O   UNL     1      -7.470   0.398 125.278  0.00  0.00    +0.000 OA
BRANCH   3   5
ATOM      4  O   UNL     1      -9.080  -0.909 125.999  0.00  0.00    +0.000 OA
ATOM      5  N   UNL     1      -8.200  -0.801 125.148  0.00  0.00    +0.000 N 
ATOM      6  O   UNL     1      -7.876  -1.552 124.231  0.00  0.00    +0.000 OA
ENDBRANCH   3   5
ENDBRANCH   2   3
ENDBRANCH   1   2
BRANCH   1   7
ATOM      7  C   UNL     1      -6.263   3.289 123.387  0.00  0.00    +0.000 C 
BRANCH   7   8
ATOM      8  O   UNL     1      -6.634   3.689 122.066  0.00  0.00    +0.000 OA
BRANCH   8   9
ATOM      9  N   UNL     1      -5.610   4.376 121.372  0.00  0.00    +0.000 N 
ATOM     10  O   UNL     1      -5.628   4.313 120.143  0.00  0.00    +0.000 OA
ATOM     11  O   UNL     1      -4.839   4.955 122.131  0.00  0.00    +0.000 OA
ENDBRANCH   8   9
ENDBRANCH   7   8
ENDBRANCH   1   7
BRANCH   1  12
ATOM     12  C   UNL     1      -8.693   2.604 123.077  0.00  0.00    +0.000 C 
BRANCH  12  13
ATOM     13  O   UNL     1      -9.096   1.317 122.615  0.00  0.00    +0.000 OA
BRANCH  13  14
ATOM     14  N   UNL     1     -10.351   0.891 123.099  0.00  0.00    +0.000 N 
ATOM     15  O   UNL     1     -10.732   1.379 124.163  0.00  0.00    +0.000 OA
ATOM     16  O   UNL     1     -10.888   0.075 122.358  0.00  0.00    +0.000 OA
ENDBRANCH  13  14
ENDBRANCH  12  13
ENDBRANCH   1  12
BRANCH   1  17
ATOM     17  C   UNL     1      -7.760   2.977 125.416  0.00  0.00    +0.000 C 
BRANCH  17  18
ATOM     18  O   UNL     1      -8.731   4.020 125.293  0.00  0.00    +0.000 OA
BRANCH  18  19
ATOM     19  N   UNL     1      -8.500   5.124 126.152  0.00  0.00    +0.000 N 
ATOM     20  O   UNL     1      -9.335   6.028 126.136  0.00  0.00    +0.000 OA
ATOM     21  O   UNL     1      -7.464   5.006 126.799  0.00  0.00    +0.000 OA
ENDBRANCH  18  19
ENDBRANCH  17  18
ENDBRANCH   1  17
TORSDOF 12
ENDMDL
