MODEL 1
REMARK VINA RESULT:      -7.3      0.000      0.000
REMARK  Name = Pentazocine
REMARK  7 active torsions:
REMARK  status: ('A' for Active; 'I' for Inactive)
REMARK    1  A    between atoms: C_1  and  C_2
REMARK    2  A    between atoms: C_8  and  O_9
REMARK    3  A    between atoms: C_12  and  C_13
REMARK    4  A    between atoms: N_16  and  C_17
REMARK    5  A    between atoms: C_17  and  C_18
REMARK    6  A    between atoms: C_19  and  C_20
REMARK    7  A    between atoms: C_19  and  C_21
REMARK                            x       y       z     vdW  Elec       q    Type
REMARK                         _______ _______ _______ _____ _____    ______ ____
ROOT
ATOM      1  C   UNL     1      -6.396  -1.280 122.450  0.00  0.00    +0.000 C 
ATOM      2  C   UNL     1      -7.052  -2.287 123.494  0.00  0.00    +0.000 C 
ATOM      3  C   UNL     1      -8.355  -2.017 124.167  0.00  0.00    +0.000 C 
ATOM      4  C   UNL     1      -8.819  -3.311 125.012  0.00  0.00    +0.000 C 
ATOM      5  C   UNL     1      -8.133  -3.288 126.350  0.00  0.00    +0.000 A 
ATOM      6  C   UNL     1      -6.797  -2.853 126.357  0.00  0.00    +0.000 A 
ATOM      7  C   UNL     1      -6.268  -2.462 127.636  0.00  0.00    +0.000 A 
ATOM      8  C   UNL     1      -7.058  -2.569 128.809  0.00  0.00    +0.000 A 
ATOM      9  C   UNL     1      -8.341  -3.096 128.757  0.00  0.00    +0.000 A 
ATOM     10  C   UNL     1      -8.871  -3.471 127.531  0.00  0.00    +0.000 A 
ATOM     11  C   UNL     1      -6.128  -2.627 124.871  0.00  0.00    +0.000 C 
ATOM     12  C   UNL     1      -5.768  -4.022 124.365  0.00  0.00    +0.000 C 
ATOM     13  C   UNL     1      -5.448  -1.257 124.994  0.00  0.00    +0.000 C 
ATOM     14  C   UNL     1      -6.682  -0.217 125.020  0.00  0.00    +0.000 C 
ATOM     15  N   UNL     1      -8.033  -0.866 125.037  0.00  0.00    +0.000 NA
ENDROOT
BRANCH   8  16
ATOM     16  O   UNL     1      -6.662  -2.160 130.057  0.00  0.00    +0.000 OA
ATOM     17  H   UNL     1      -5.822  -2.567 130.311  0.00  0.00    +0.000 HD
ENDBRANCH   8  16
BRANCH  15  18
ATOM     18  C   UNL     1      -9.184  -0.041 125.088  0.00  0.00    +0.000 C 
BRANCH  18  19
ATOM     19  C   UNL     1      -8.922   1.250 124.458  0.00  0.00    +0.000 C 
ATOM     20  C   UNL     1      -9.331   1.482 123.187  0.00  0.00    +0.000 C 
ATOM     21  C   UNL     1     -10.194   0.493 122.476  0.00  0.00    +0.000 C 
ATOM     22  C   UNL     1      -8.914   2.747 122.544  0.00  0.00    +0.000 C 
ENDBRANCH  18  19
ENDBRANCH  15  18
TORSDOF 3
ENDMDL
MODEL 2
REMARK VINA RESULT:      -7.2      2.254      5.434
REMARK  Name = Pentazocine
REMARK  7 active torsions:
REMARK  status: ('A' for Active; 'I' for Inactive)
REMARK    1  A    between atoms: C_1  and  C_2
REMARK    2  A    between atoms: C_8  and  O_9
REMARK    3  A    between atoms: C_12  and  C_13
REMARK    4  A    between atoms: N_16  and  C_17
REMARK    5  A    between atoms: C_17  and  C_18
REMARK    6  A    between atoms: C_19  and  C_20
REMARK    7  A    between atoms: C_19  and  C_21
REMARK                            x       y       z     vdW  Elec       q    Type
REMARK                         _______ _______ _______ _____ _____    ______ ____
ROOT
ATOM      1  C   UNL     1      -5.809  -3.914 124.790  0.00  0.00    +0.000 C 
ATOM      2  C   UNL     1      -5.996  -2.382 124.398  0.00  0.00    +0.000 C 
ATOM      3  C   UNL     1      -6.391  -1.339 125.388  0.00  0.00    +0.000 C 
ATOM      4  C   UNL     1      -6.309   0.124 124.710  0.00  0.00    +0.000 C 
ATOM      5  C   UNL     1      -7.580   0.377 123.948  0.00  0.00    +0.000 A 
ATOM      6  C   UNL     1      -8.118  -0.719 123.253  0.00  0.00    +0.000 A 
ATOM      7  C   UNL     1      -9.495  -0.600 122.856  0.00  0.00    +0.000 A 
ATOM      8  C   UNL     1     -10.224   0.587 123.122  0.00  0.00    +0.000 A 
ATOM      9  C   UNL     1      -9.614   1.677 123.728  0.00  0.00    +0.000 A 
ATOM     10  C   UNL     1      -8.288   1.578 124.124  0.00  0.00    +0.000 A 
ATOM     11  C   UNL     1      -7.165  -2.060 123.218  0.00  0.00    +0.000 C 
ATOM     12  C   UNL     1      -6.107  -1.785 122.152  0.00  0.00    +0.000 C 
ATOM     13  C   UNL     1      -8.133  -3.192 123.587  0.00  0.00    +0.000 C 
ATOM     14  C   UNL     1      -8.412  -2.961 125.160  0.00  0.00    +0.000 C 
ATOM     15  N   UNL     1      -7.779  -1.724 125.721  0.00  0.00    +0.000 NA
ENDROOT
BRANCH   8  16
ATOM     16  O   UNL     1     -11.555   0.766 122.842  0.00  0.00    +0.000 OA
ATOM     17  H   UNL     1     -11.880   0.091 122.229  0.00  0.00    +0.000 HD
ENDBRANCH   8  16
BRANCH  15  18
ATOM     18  C   UNL     1      -7.985  -1.415 127.089  0.00  0.00    +0.000 C 
BRANCH  18  19
ATOM     19  C   UNL     1      -6.974  -2.058 127.922  0.00  0.00    +0.000 C 
ATOM     20  C   UNL     1      -7.328  -3.044 128.783  0.00  0.00    +0.000 C 
ATOM     21  C   UNL     1      -8.714  -3.598 128.771  0.00  0.00    +0.000 C 
ATOM     22  C   UNL     1      -6.296  -3.561 129.708  0.00  0.00    +0.000 C 
ENDBRANCH  18  19
ENDBRANCH  15  18
TORSDOF 3
ENDMDL
MODEL 3
REMARK VINA RESULT:      -7.2      2.083      4.754
REMARK  Name = Pentazocine
REMARK  7 active torsions:
REMARK  status: ('A' for Active; 'I' for Inactive)
REMARK    1  A    between atoms: C_1  and  C_2
REMARK    2  A    between atoms: C_8  and  O_9
REMARK    3  A    between atoms: C_12  and  C_13
REMARK    4  A    between atoms: N_16  and  C_17
REMARK    5  A    between atoms: C_17  and  C_18
REMARK    6  A    between atoms: C_19  and  C_20
REMARK    7  A    between atoms: C_19  and  C_21
REMARK                            x       y       z     vdW  Elec       q    Type
REMARK                         _______ _______ _______ _____ _____    ______ ____
ROOT
ATOM      1  C   UNL     1      -9.457   2.037 124.708  0.00  0.00    +0.000 C 
ATOM      2  C   UNL     1      -9.388   0.449 124.610  0.00  0.00    +0.000 C 
ATOM      3  C   UNL     1      -8.933  -0.411 125.740  0.00  0.00    +0.000 C 
ATOM      4  C   UNL     1      -9.161  -1.967 125.377  0.00  0.00    +0.000 C 
ATOM      5  C   UNL     1      -7.998  -2.448 124.554  0.00  0.00    +0.000 A 
ATOM      6  C   UNL     1      -7.491  -1.545 123.605  0.00  0.00    +0.000 A 
ATOM      7  C   UNL     1      -6.174  -1.831 123.102  0.00  0.00    +0.000 A 
ATOM      8  C   UNL     1      -5.477  -2.992 123.522  0.00  0.00    +0.000 A 
ATOM      9  C   UNL     1      -6.066  -3.902 124.390  0.00  0.00    +0.000 A 
ATOM     10  C   UNL     1      -7.332  -3.639 124.891  0.00  0.00    +0.000 A 
ATOM     11  C   UNL     1      -8.377  -0.173 123.403  0.00  0.00    +0.000 C 
ATOM     12  C   UNL     1      -9.561  -0.573 122.526  0.00  0.00    +0.000 C 
ATOM     13  C   UNL     1      -7.320   0.940 123.441  0.00  0.00    +0.000 C 
ATOM     14  C   UNL     1      -6.877   0.996 124.992  0.00  0.00    +0.000 C 
ATOM     15  N   UNL     1      -7.500  -0.065 125.848  0.00  0.00    +0.000 NA
ENDROOT
BRANCH   8  16
ATOM     16  O   UNL     1      -4.196  -3.313 123.148  0.00  0.00    +0.000 OA
ATOM     17  H   UNL     1      -3.830  -4.010 123.710  0.00  0.00    +0.000 HD
ENDBRANCH   8  16
BRANCH  15  18
ATOM     18  C   UNL     1      -7.156  -0.121 127.222  0.00  0.00    +0.000 C 
BRANCH  18  19
ATOM     19  C   UNL     1      -5.957  -0.928 127.422  0.00  0.00    +0.000 C 
ATOM     20  C   UNL     1      -6.028  -2.092 128.114  0.00  0.00    +0.000 C 
ATOM     21  C   UNL     1      -7.349  -2.645 128.532  0.00  0.00    +0.000 C 
ATOM     22  C   UNL     1      -4.764  -2.798 128.416  0.00  0.00    +0.000 C 
ENDBRANCH  18  19
ENDBRANCH  15  18
TORSDOF 3
ENDMDL
MODEL 4
REMARK VINA RESULT:      -7.1      2.222      5.475
REMARK  Name = Pentazocine
REMARK  7 active torsions:
REMARK  status: ('A' for Active; 'I' for Inactive)
REMARK    1  A    between atoms: C_1  and  C_2
REMARK    2  A    between atoms: C_8  and  O_9
REMARK    3  A    between atoms: C_12  and  C_13
REMARK    4  A    between atoms: N_16  and  C_17
REMARK    5  A    between atoms: C_17  and  C_18
REMARK    6  A    between atoms: C_19  and  C_20
REMARK    7  A    between atoms: C_19  and  C_21
REMARK                            x       y       z     vdW  Elec       q    Type
REMARK                         _______ _______ _______ _____ _____    ______ ____
ROOT
ATOM      1  C   UNL     1      -7.765  -4.179 124.723  0.00  0.00    +0.000 C 
ATOM      2  C   UNL     1      -6.896  -2.845 124.719  0.00  0.00    +0.000 C 
ATOM      3  C   UNL     1      -6.559  -2.097 125.964  0.00  0.00    +0.000 C 
ATOM      4  C   UNL     1      -5.520  -0.908 125.631  0.00  0.00    +0.000 C 
ATOM      5  C   UNL     1      -6.290   0.284 125.135  0.00  0.00    +0.000 A 
ATOM      6  C   UNL     1      -7.382   0.013 124.293  0.00  0.00    +0.000 A 
ATOM      7  C   UNL     1      -8.335   1.078 124.134  0.00  0.00    +0.000 A 
ATOM      8  C   UNL     1      -8.129   2.333 124.763  0.00  0.00    +0.000 A 
ATOM      9  C   UNL     1      -6.983   2.577 125.506  0.00  0.00    +0.000 A 
ATOM     10  C   UNL     1      -6.056   1.559 125.677  0.00  0.00    +0.000 A 
ATOM     11  C   UNL     1      -7.528  -1.556 123.821  0.00  0.00    +0.000 C 
ATOM     12  C   UNL     1      -6.502  -1.747 122.705  0.00  0.00    +0.000 C 
ATOM     13  C   UNL     1      -9.013  -1.861 124.058  0.00  0.00    +0.000 C 
ATOM     14  C   UNL     1      -9.138  -1.933 125.665  0.00  0.00    +0.000 C 
ATOM     15  N   UNL     1      -7.877  -1.584 126.396  0.00  0.00    +0.000 NA
ENDROOT
BRANCH   8  16
ATOM     16  O   UNL     1      -9.012   3.382 124.722  0.00  0.00    +0.000 OA
ATOM     17  H   UNL     1      -9.639   3.286 123.992  0.00  0.00    +0.000 HD
ENDBRANCH   8  16
BRANCH  15  18
ATOM     18  C   UNL     1      -7.887  -1.591 127.814  0.00  0.00    +0.000 C 
BRANCH  18  19
ATOM     19  C   UNL     1      -7.279  -2.813 128.329  0.00  0.00    +0.000 C 
ATOM     20  C   UNL     1      -7.027  -2.940 129.656  0.00  0.00    +0.000 C 
ATOM     21  C   UNL     1      -7.517  -1.914 130.622  0.00  0.00    +0.000 C 
ATOM     22  C   UNL     1      -6.276  -4.132 130.108  0.00  0.00    +0.000 C 
ENDBRANCH  18  19
ENDBRANCH  15  18
TORSDOF 3
ENDMDL
MODEL 5
REMARK VINA RESULT:      -7.0      3.158      6.422
REMARK  Name = Pentazocine
REMARK  7 active torsions:
REMARK  status: ('A' for Active; 'I' for Inactive)
REMARK    1  A    between atoms: C_1  and  C_2
REMARK    2  A    between atoms: C_8  and  O_9
REMARK    3  A    between atoms: C_12  and  C_13
REMARK    4  A    between atoms: N_16  and  C_17
REMARK    5  A    between atoms: C_17  and  C_18
REMARK    6  A    between atoms: C_19  and  C_20
REMARK    7  A    between atoms: C_19  and  C_21
REMARK                            x       y       z     vdW  Elec       q    Type
REMARK                         _______ _______ _______ _____ _____    ______ ____
ROOT
ATOM      1  C   UNL     1      -7.873   0.546 127.294  0.00  0.00    +0.000 C 
ATOM      2  C   UNL     1      -8.387   1.481 126.112  0.00  0.00    +0.000 C 
ATOM      3  C   UNL     1      -8.765   0.952 124.770  0.00  0.00    +0.000 C 
ATOM      4  C   UNL     1      -9.415   2.128 123.875  0.00  0.00    +0.000 C 
ATOM      5  C   UNL     1      -8.307   2.922 123.240  0.00  0.00    +0.000 A 
ATOM      6  C   UNL     1      -7.172   3.153 124.035  0.00  0.00    +0.000 A 
ATOM      7  C   UNL     1      -5.982   3.556 123.335  0.00  0.00    +0.000 A 
ATOM      8  C   UNL     1      -6.001   3.749 121.930  0.00  0.00    +0.000 A 
ATOM      9  C   UNL     1      -7.176   3.599 121.206  0.00  0.00    +0.000 A 
ATOM     10  C   UNL     1      -8.332   3.203 121.864  0.00  0.00    +0.000 A 
ATOM     11  C   UNL     1      -7.314   2.689 125.607  0.00  0.00    +0.000 C 
ATOM     12  C   UNL     1      -8.129   3.787 126.288  0.00  0.00    +0.000 C 
ATOM     13  C   UNL     1      -6.013   1.917 125.868  0.00  0.00    +0.000 C 
ATOM     14  C   UNL     1      -6.210   0.543 125.045  0.00  0.00    +0.000 C 
ATOM     15  N   UNL     1      -7.468   0.490 124.231  0.00  0.00    +0.000 NA
ENDROOT
BRANCH   8  16
ATOM     16  O   UNL     1      -4.904   4.068 121.170  0.00  0.00    +0.000 OA
ATOM     17  H   UNL     1      -5.164   4.418 120.306  0.00  0.00    +0.000 HD
ENDBRANCH   8  16
BRANCH  15  18
ATOM     18  C   UNL     1      -7.724  -0.665 123.449  0.00  0.00    +0.000 C 
BRANCH  18  19
ATOM     19  C   UNL     1      -6.480  -1.358 123.130  0.00  0.00    +0.000 C 
ATOM     20  C   UNL     1      -6.254  -2.605 123.611  0.00  0.00    +0.000 C 
ATOM     21  C   UNL     1      -7.331  -3.348 124.327  0.00  0.00    +0.000 C 
ATOM     22  C   UNL     1      -4.921  -3.206 123.384  0.00  0.00    +0.000 C 
ENDBRANCH  18  19
ENDBRANCH  15  18
TORSDOF 3
ENDMDL
MODEL 6
REMARK VINA RESULT:      -6.7      2.067      2.928
REMARK  Name = Pentazocine
REMARK  7 active torsions:
REMARK  status: ('A' for Active; 'I' for Inactive)
REMARK    1  A    between atoms: C_1  and  C_2
REMARK    2  A    between atoms: C_8  and  O_9
REMARK    3  A    between atoms: C_12  and  C_13
REMARK    4  A    between atoms: N_16  and  C_17
REMARK    5  A    between atoms: C_17  and  C_18
REMARK    6  A    between atoms: C_19  and  C_20
REMARK    7  A    between atoms: C_19  and  C_21
REMARK                            x       y       z     vdW  Elec       q    Type
REMARK                         _______ _______ _______ _____ _____    ______ ____
ROOT
ATOM      1  C   UNL     1      -8.756  -2.741 122.899  0.00  0.00    +0.000 C 
ATOM      2  C   UNL     1      -8.997  -1.985 124.280  0.00  0.00    +0.000 C 
ATOM      3  C   UNL     1      -8.871  -0.506 124.425  0.00  0.00    +0.000 C 
ATOM      4  C   UNL     1      -9.360  -0.051 125.894  0.00  0.00    +0.000 C 
ATOM      5  C   UNL     1      -8.223  -0.234 126.862  0.00  0.00    +0.000 A 
ATOM      6  C   UNL     1      -7.430  -1.379 126.680  0.00  0.00    +0.000 A 
ATOM      7  C   UNL     1      -6.145  -1.365 127.327  0.00  0.00    +0.000 A 
ATOM      8  C   UNL     1      -5.754  -0.267 128.134  0.00  0.00    +0.000 A 
ATOM      9  C   UNL     1      -6.619   0.796 128.357  0.00  0.00    +0.000 A 
ATOM     10  C   UNL     1      -7.859   0.804 127.735  0.00  0.00    +0.000 A 
ATOM     11  C   UNL     1      -7.988  -2.446 125.559  0.00  0.00    +0.000 C 
ATOM     12  C   UNL     1      -9.109  -3.220 126.250  0.00  0.00    +0.000 C 
ATOM     13  C   UNL     1      -6.743  -2.764 124.721  0.00  0.00    +0.000 C 
ATOM     14  C   UNL     1      -6.495  -1.413 123.873  0.00  0.00    +0.000 C 
ATOM     15  N   UNL     1      -7.422  -0.289 124.224  0.00  0.00    +0.000 NA
ENDROOT
BRANCH   8  16
ATOM     16  O   UNL     1      -4.528  -0.136 128.736  0.00  0.00    +0.000 OA
ATOM     17  H   UNL     1      -4.502  -0.597 129.586  0.00  0.00    +0.000 HD
ENDBRANCH   8  16
BRANCH  15  18
ATOM     18  C   UNL     1      -7.271   0.952 123.555  0.00  0.00    +0.000 C 
BRANCH  18  19
ATOM     19  C   UNL     1      -6.486   1.882 124.361  0.00  0.00    +0.000 C 
ATOM     20  C   UNL     1      -7.053   3.019 124.834  0.00  0.00    +0.000 C 
ATOM     21  C   UNL     1      -8.519   3.254 124.682  0.00  0.00    +0.000 C 
ATOM     22  C   UNL     1      -6.180   3.997 125.518  0.00  0.00    +0.000 C 
ENDBRANCH  18  19
ENDBRANCH  15  18
TORSDOF 3
ENDMDL
MODEL 7
REMARK VINA RESULT:      -6.7      7.149      8.658
REMARK  Name = Pentazocine
REMARK  7 active torsions:
REMARK  status: ('A' for Active; 'I' for Inactive)
REMARK    1  A    between atoms: C_1  and  C_2
REMARK    2  A    between atoms: C_8  and  O_9
REMARK    3  A    between atoms: C_12  and  C_13
REMARK    4  A    between atoms: N_16  and  C_17
REMARK    5  A    between atoms: C_17  and  C_18
REMARK    6  A    between atoms: C_19  and  C_20
REMARK    7  A    between atoms: C_19  and  C_21
REMARK                            x       y       z     vdW  Elec       q    Type
REMARK                         _______ _______ _______ _____ _____    ______ ____
ROOT
ATOM      1  C   UNL     1      -4.947   1.640 126.265  0.00  0.00    +0.000 C 
ATOM      2  C   UNL     1      -4.123   2.340 127.434  0.00  0.00    +0.000 C 
ATOM      3  C   UNL     1      -4.724   2.673 128.758  0.00  0.00    +0.000 C 
ATOM      4  C   UNL     1      -3.580   3.197 129.768  0.00  0.00    +0.000 C 
ATOM      5  C   UNL     1      -3.346   4.661 129.516  0.00  0.00    +0.000 A 
ATOM      6  C   UNL     1      -3.380   5.075 128.174  0.00  0.00    +0.000 A 
ATOM      7  C   UNL     1      -3.545   6.487 127.953  0.00  0.00    +0.000 A 
ATOM      8  C   UNL     1      -3.617   7.386 129.047  0.00  0.00    +0.000 A 
ATOM      9  C   UNL     1      -3.482   6.932 130.352  0.00  0.00    +0.000 A 
ATOM     10  C   UNL     1      -3.329   5.573 130.585  0.00  0.00    +0.000 A 
ATOM     11  C   UNL     1      -3.472   3.859 127.070  0.00  0.00    +0.000 C 
ATOM     12  C   UNL     1      -2.056   3.297 126.957  0.00  0.00    +0.000 C 
ATOM     13  C   UNL     1      -4.584   4.326 126.121  0.00  0.00    +0.000 C 
ATOM     14  C   UNL     1      -5.931   4.154 126.992  0.00  0.00    +0.000 C 
ATOM     15  N   UNL     1      -5.695   3.733 128.411  0.00  0.00    +0.000 NA
ENDROOT
BRANCH   8  16
ATOM     16  O   UNL     1      -3.839   8.736 128.937  0.00  0.00    +0.000 OA
ATOM     17  H   UNL     1      -3.269   9.236 129.538  0.00  0.00    +0.000 HD
ENDBRANCH   8  16
BRANCH  15  18
ATOM     18  C   UNL     1      -6.812   3.579 129.270  0.00  0.00    +0.000 C 
BRANCH  18  19
ATOM     19  C   UNL     1      -7.176   4.854 129.878  0.00  0.00    +0.000 C 
ATOM     20  C   UNL     1      -7.024   5.039 131.213  0.00  0.00    +0.000 C 
ATOM     21  C   UNL     1      -6.333   4.012 132.046  0.00  0.00    +0.000 C 
ATOM     22  C   UNL     1      -7.543   6.292 131.803  0.00  0.00    +0.000 C 
ENDBRANCH  18  19
ENDBRANCH  15  18
TORSDOF 3
ENDMDL
MODEL 8
REMARK VINA RESULT:      -6.7      9.360     11.080
REMARK  Name = Pentazocine
REMARK  7 active torsions:
REMARK  status: ('A' for Active; 'I' for Inactive)
REMARK    1  A    between atoms: C_1  and  C_2
REMARK    2  A    between atoms: C_8  and  O_9
REMARK    3  A    between atoms: C_12  and  C_13
REMARK    4  A    between atoms: N_16  and  C_17
REMARK    5  A    between atoms: C_17  and  C_18
REMARK    6  A    between atoms: C_19  and  C_20
REMARK    7  A    between atoms: C_19  and  C_21
REMARK                            x       y       z     vdW  Elec       q    Type
REMARK                         _______ _______ _______ _____ _____    ______ ____
ROOT
ATOM      1  C   UNL     1      -3.645   3.166 134.444  0.00  0.00    +0.000 C 
ATOM      2  C   UNL     1      -3.231   4.560 133.796  0.00  0.00    +0.000 C 
ATOM      3  C   UNL     1      -4.179   5.704 133.667  0.00  0.00    +0.000 C 
ATOM      4  C   UNL     1      -3.395   7.015 133.144  0.00  0.00    +0.000 C 
ATOM      5  C   UNL     1      -3.286   6.948 131.646  0.00  0.00    +0.000 A 
ATOM      6  C   UNL     1      -3.034   5.680 131.096  0.00  0.00    +0.000 A 
ATOM      7  C   UNL     1      -3.310   5.535 129.692  0.00  0.00    +0.000 A 
ATOM      8  C   UNL     1      -3.761   6.641 128.926  0.00  0.00    +0.000 A 
ATOM      9  C   UNL     1      -3.901   7.896 129.502  0.00  0.00    +0.000 A 
ATOM     10  C   UNL     1      -3.647   8.053 130.856  0.00  0.00    +0.000 A 
ATOM     11  C   UNL     1      -2.700   4.498 132.190  0.00  0.00    +0.000 C 
ATOM     12  C   UNL     1      -1.243   4.713 132.596  0.00  0.00    +0.000 C 
ATOM     13  C   UNL     1      -3.588   3.332 131.735  0.00  0.00    +0.000 C 
ATOM     14  C   UNL     1      -5.078   3.808 132.130  0.00  0.00    +0.000 C 
ATOM     15  N   UNL     1      -5.154   5.202 132.676  0.00  0.00    +0.000 NA
ENDROOT
BRANCH   8  16
ATOM     16  O   UNL     1      -4.111   6.583 127.601  0.00  0.00    +0.000 OA
ATOM     17  H   UNL     1      -3.393   6.896 127.033  0.00  0.00    +0.000 HD
ENDBRANCH   8  16
BRANCH  15  18
ATOM     18  C   UNL     1      -6.423   5.726 133.029  0.00  0.00    +0.000 C 
BRANCH  18  19
ATOM     19  C   UNL     1      -7.029   6.419 131.897  0.00  0.00    +0.000 C 
ATOM     20  C   UNL     1      -8.377   6.431 131.749  0.00  0.00    +0.000 C 
ATOM     21  C   UNL     1      -9.261   5.887 132.820  0.00  0.00    +0.000 C 
ATOM     22  C   UNL     1      -8.934   7.017 130.510  0.00  0.00    +0.000 C 
ENDBRANCH  18  19
ENDBRANCH  15  18
TORSDOF 3
ENDMDL
MODEL 9
REMARK VINA RESULT:      -6.6      8.233      9.810
REMARK  Name = Pentazocine
REMARK  7 active torsions:
REMARK  status: ('A' for Active; 'I' for Inactive)
REMARK    1  A    between atoms: C_1  and  C_2
REMARK    2  A    between atoms: C_8  and  O_9
REMARK    3  A    between atoms: C_12  and  C_13
REMARK    4  A    between atoms: N_16  and  C_17
REMARK    5  A    between atoms: C_17  and  C_18
REMARK    6  A    between atoms: C_19  and  C_20
REMARK    7  A    between atoms: C_19  and  C_21
REMARK                            x       y       z     vdW  Elec       q    Type
REMARK                         _______ _______ _______ _____ _____    ______ ____
ROOT
ATOM      1  C   UNL     1      -1.571   6.481 130.402  0.00  0.00    +0.000 C 
ATOM      2  C   UNL     1      -2.828   5.683 130.967  0.00  0.00    +0.000 C 
ATOM      3  C   UNL     1      -3.627   4.739 130.133  0.00  0.00    +0.000 C 
ATOM      4  C   UNL     1      -4.702   3.963 131.054  0.00  0.00    +0.000 C 
ATOM      5  C   UNL     1      -5.917   4.834 131.217  0.00  0.00    +0.000 A 
ATOM      6  C   UNL     1      -5.680   6.210 131.374  0.00  0.00    +0.000 A 
ATOM      7  C   UNL     1      -6.807   7.074 131.143  0.00  0.00    +0.000 A 
ATOM      8  C   UNL     1      -8.079   6.534 130.826  0.00  0.00    +0.000 A 
ATOM      9  C   UNL     1      -8.278   5.161 130.778  0.00  0.00    +0.000 A 
ATOM     10  C   UNL     1      -7.202   4.312 130.990  0.00  0.00    +0.000 A 
ATOM     11  C   UNL     1      -4.100   6.631 131.555  0.00  0.00    +0.000 C 
ATOM     12  C   UNL     1      -3.753   6.311 133.008  0.00  0.00    +0.000 C 
ATOM     13  C   UNL     1      -3.934   7.807 130.584  0.00  0.00    +0.000 C 
ATOM     14  C   UNL     1      -3.980   7.112 129.128  0.00  0.00    +0.000 C 
ATOM     15  N   UNL     1      -4.272   5.642 129.158  0.00  0.00    +0.000 NA
ENDROOT
BRANCH   8  16
ATOM     16  O   UNL     1      -9.192   7.279 130.526  0.00  0.00    +0.000 OA
ATOM     17  H   UNL     1     -10.001   6.835 130.815  0.00  0.00    +0.000 HD
ENDBRANCH   8  16
BRANCH  15  18
ATOM     18  C   UNL     1      -4.361   4.941 127.929  0.00  0.00    +0.000 C 
BRANCH  18  19
ATOM     19  C   UNL     1      -3.034   4.569 127.449  0.00  0.00    +0.000 C 
ATOM     20  C   UNL     1      -2.828   3.347 126.898  0.00  0.00    +0.000 C 
ATOM     21  C   UNL     1      -3.977   2.437 126.622  0.00  0.00    +0.000 C 
ATOM     22  C   UNL     1      -1.439   2.963 126.564  0.00  0.00    +0.000 C 
ENDBRANCH  18  19
ENDBRANCH  15  18
TORSDOF 3
ENDMDL
