MODEL 1
REMARK VINA RESULT:      -5.8      0.000      0.000
REMARK  Name = Pentetic acid
REMARK  21 active torsions:
REMARK  status: ('A' for Active; 'I' for Inactive)
REMARK    1  A    between atoms: O_1  and  C_2
REMARK    2  A    between atoms: C_2  and  C_4
REMARK    3  A    between atoms: C_4  and  N_5
REMARK    4  A    between atoms: N_5  and  C_6
REMARK    5  A    between atoms: N_5  and  C_17
REMARK    6  A    between atoms: C_6  and  C_7
REMARK    7  A    between atoms: C_7  and  N_8
REMARK    8  A    between atoms: N_8  and  C_9
REMARK    9  A    between atoms: N_8  and  C_13
REMARK   10  A    between atoms: C_9  and  C_10
REMARK   11  A    between atoms: C_10  and  O_11
REMARK   12  A    between atoms: C_13  and  C_14
REMARK   13  A    between atoms: C_14  and  O_15
REMARK   14  A    between atoms: C_17  and  C_18
REMARK   15  A    between atoms: C_18  and  N_19
REMARK   16  A    between atoms: N_19  and  C_20
REMARK   17  A    between atoms: N_19  and  C_24
REMARK   18  A    between atoms: C_20  and  C_21
REMARK   19  A    between atoms: C_21  and  O_22
REMARK   20  A    between atoms: C_24  and  C_25
REMARK   21  A    between atoms: C_25  and  O_26
REMARK                            x       y       z     vdW  Elec       q    Type
REMARK                         _______ _______ _______ _____ _____    ______ ____
ROOT
ATOM      1  N   UNL     1      -8.311   3.870 130.859  0.00  0.00    +0.000 NA
ENDROOT
BRANCH   1   2
ATOM      2  C   UNL     1      -7.249   4.484 130.060  0.00  0.00    +0.000 C 
BRANCH   2   3
ATOM      3  C   UNL     1      -6.499   3.699 128.929  0.00  0.00    +0.000 C 
BRANCH   3   4
ATOM      4  N   UNL     1      -5.890   4.614 127.878  0.00  0.00    +0.000 NA
BRANCH   4   5
ATOM      5  C   UNL     1      -4.407   4.383 127.853  0.00  0.00    +0.000 C 
BRANCH   5   6
ATOM      6  C   UNL     1      -3.588   5.685 127.801  0.00  0.00    +0.000 C 
ATOM      7  O   UNL     1      -4.081   6.789 127.815  0.00  0.00    +0.000 OA
BRANCH   6   8
ATOM      8  O   UNL     1      -2.240   5.493 127.751  0.00  0.00    +0.000 OA
ATOM      9  H   UNL     1      -1.809   6.227 127.262  0.00  0.00    +0.000 HD
ENDBRANCH   6   8
ENDBRANCH   5   6
ENDBRANCH   4   5
BRANCH   4  10
ATOM     10  C   UNL     1      -6.497   4.142 126.564  0.00  0.00    +0.000 C 
BRANCH  10  11
ATOM     11  C   UNL     1      -6.950   5.246 125.604  0.00  0.00    +0.000 C 
ATOM     12  O   UNL     1      -6.164   5.891 124.923  0.00  0.00    +0.000 OA
BRANCH  11  13
ATOM     13  O   UNL     1      -8.280   5.470 125.536  0.00  0.00    +0.000 OA
ATOM     14  H   UNL     1      -8.604   6.001 126.286  0.00  0.00    +0.000 HD
ENDBRANCH  11  13
ENDBRANCH  10  11
ENDBRANCH   4  10
ENDBRANCH   3   4
ENDBRANCH   2   3
ENDBRANCH   1   2
BRANCH   1  15
ATOM     15  C   UNL     1      -9.523   4.310 130.211  0.00  0.00    +0.000 C 
BRANCH  15  16
ATOM     16  C   UNL     1      -9.514   5.533 129.338  0.00  0.00    +0.000 C 
BRANCH  16  17
ATOM     17  N   UNL     1     -10.815   6.264 129.279  0.00  0.00    +0.000 NA
BRANCH  17  18
ATOM     18  C   UNL     1     -10.914   7.174 130.475  0.00  0.00    +0.000 C 
BRANCH  18  19
ATOM     19  C   UNL     1     -12.068   6.804 131.429  0.00  0.00    +0.000 C 
ATOM     20  O   UNL     1     -13.189   7.255 131.338  0.00  0.00    +0.000 OA
BRANCH  19  21
ATOM     21  O   UNL     1     -11.728   5.921 132.408  0.00  0.00    +0.000 OA
ATOM     22  H   UNL     1     -11.918   6.300 133.292  0.00  0.00    +0.000 HD
ENDBRANCH  19  21
ENDBRANCH  18  19
ENDBRANCH  17  18
BRANCH  17  23
ATOM     23  C   UNL     1     -10.604   7.077 128.015  0.00  0.00    +0.000 C 
BRANCH  23  24
ATOM     24  C   UNL     1     -11.872   7.382 127.247  0.00  0.00    +0.000 C 
ATOM     25  O   UNL     1     -12.696   8.197 127.628  0.00  0.00    +0.000 OA
BRANCH  24  26
ATOM     26  O   UNL     1     -12.010   6.700 126.088  0.00  0.00    +0.000 OA
ATOM     27  H   UNL     1     -11.136   6.508 125.696  0.00  0.00    +0.000 HD
ENDBRANCH  24  26
ENDBRANCH  23  24
ENDBRANCH  17  23
ENDBRANCH  16  17
ENDBRANCH  15  16
ENDBRANCH   1  15
BRANCH   1  28
ATOM     28  C   UNL     1      -8.247   4.384 132.263  0.00  0.00    +0.000 C 
BRANCH  28  29
ATOM     29  C   UNL     1      -8.967   3.428 133.231  0.00  0.00    +0.000 C 
ATOM     30  O   UNL     1      -8.725   2.235 133.354  0.00  0.00    +0.000 OA
BRANCH  29  31
ATOM     31  O   UNL     1      -9.982   3.991 133.922  0.00  0.00    +0.000 OA
ATOM     32  H   UNL     1     -10.620   3.368 134.311  0.00  0.00    +0.000 HD
ENDBRANCH  29  31
ENDBRANCH  28  29
ENDBRANCH   1  28
TORSDOF 21
ENDMDL
MODEL 2
REMARK VINA RESULT:      -5.7      2.008      6.620
REMARK  Name = Pentetic acid
REMARK  21 active torsions:
REMARK  status: ('A' for Active; 'I' for Inactive)
REMARK    1  A    between atoms: O_1  and  C_2
REMARK    2  A    between atoms: C_2  and  C_4
REMARK    3  A    between atoms: C_4  and  N_5
REMARK    4  A    between atoms: N_5  and  C_6
REMARK    5  A    between atoms: N_5  and  C_17
REMARK    6  A    between atoms: C_6  and  C_7
REMARK    7  A    between atoms: C_7  and  N_8
REMARK    8  A    between atoms: N_8  and  C_9
REMARK    9  A    between atoms: N_8  and  C_13
REMARK   10  A    between atoms: C_9  and  C_10
REMARK   11  A    between atoms: C_10  and  O_11
REMARK   12  A    between atoms: C_13  and  C_14
REMARK   13  A    between atoms: C_14  and  O_15
REMARK   14  A    between atoms: C_17  and  C_18
REMARK   15  A    between atoms: C_18  and  N_19
REMARK   16  A    between atoms: N_19  and  C_20
REMARK   17  A    between atoms: N_19  and  C_24
REMARK   18  A    between atoms: C_20  and  C_21
REMARK   19  A    between atoms: C_21  and  O_22
REMARK   20  A    between atoms: C_24  and  C_25
REMARK   21  A    between atoms: C_25  and  O_26
REMARK                            x       y       z     vdW  Elec       q    Type
REMARK                         _______ _______ _______ _____ _____    ______ ____
ROOT
ATOM      1  N   UNL     1      -7.859   5.361 129.661  0.00  0.00    +0.000 NA
ENDROOT
BRANCH   1   2
ATOM      2  C   UNL     1      -9.280   5.160 129.948  0.00  0.00    +0.000 C 
BRANCH   2   3
ATOM      3  C   UNL     1     -10.306   6.346 129.944  0.00  0.00    +0.000 C 
BRANCH   3   4
ATOM      4  N   UNL     1     -11.226   6.328 128.734  0.00  0.00    +0.000 NA
BRANCH   4   5
ATOM      5  C   UNL     1     -12.638   6.515 129.212  0.00  0.00    +0.000 C 
BRANCH   5   6
ATOM      6  C   UNL     1     -12.764   7.544 130.350  0.00  0.00    +0.000 C 
ATOM      7  O   UNL     1     -12.711   8.740 130.183  0.00  0.00    +0.000 OA
BRANCH   6   8
ATOM      8  O   UNL     1     -12.956   6.991 131.581  0.00  0.00    +0.000 OA
ATOM      9  H   UNL     1     -13.906   6.782 131.716  0.00  0.00    +0.000 HD
ENDBRANCH   6   8
ENDBRANCH   5   6
ENDBRANCH   4   5
BRANCH   4  10
ATOM     10  C   UNL     1     -10.806   7.541 127.917  0.00  0.00    +0.000 C 
BRANCH  10  11
ATOM     11  C   UNL     1     -10.402   7.260 126.466  0.00  0.00    +0.000 C 
ATOM     12  O   UNL     1     -10.807   7.931 125.527  0.00  0.00    +0.000 OA
BRANCH  11  13
ATOM     13  O   UNL     1      -9.555   6.226 126.272  0.00  0.00    +0.000 OA
ATOM     14  H   UNL     1      -8.632   6.520 126.164  0.00  0.00    +0.000 HD
ENDBRANCH  11  13
ENDBRANCH  10  11
ENDBRANCH   4  10
ENDBRANCH   3   4
ENDBRANCH   2   3
ENDBRANCH   1   2
BRANCH   1  15
ATOM     15  C   UNL     1      -7.544   4.295 128.740  0.00  0.00    +0.000 C 
BRANCH  15  16
ATOM     16  C   UNL     1      -6.112   3.964 128.425  0.00  0.00    +0.000 C 
BRANCH  16  17
ATOM     17  N   UNL     1      -5.339   5.080 127.803  0.00  0.00    +0.000 NA
BRANCH  17  18
ATOM     18  C   UNL     1      -4.019   5.209 128.517  0.00  0.00    +0.000 C 
BRANCH  18  19
ATOM     19  C   UNL     1      -3.401   6.618 128.404  0.00  0.00    +0.000 C 
ATOM     20  O   UNL     1      -4.004   7.641 128.642  0.00  0.00    +0.000 OA
BRANCH  19  21
ATOM     21  O   UNL     1      -2.100   6.631 128.001  0.00  0.00    +0.000 OA
ATOM     22  H   UNL     1      -1.822   5.737 127.709  0.00  0.00    +0.000 HD
ENDBRANCH  19  21
ENDBRANCH  18  19
ENDBRANCH  17  18
BRANCH  17  23
ATOM     23  C   UNL     1      -5.130   4.514 126.411  0.00  0.00    +0.000 C 
BRANCH  23  24
ATOM     24  C   UNL     1      -6.253   4.808 125.440  0.00  0.00    +0.000 C 
ATOM     25  O   UNL     1      -6.573   5.942 125.123  0.00  0.00    +0.000 OA
BRANCH  24  26
ATOM     26  O   UNL     1      -6.859   3.714 124.927  0.00  0.00    +0.000 OA
ATOM     27  H   UNL     1      -7.821   3.863 124.841  0.00  0.00    +0.000 HD
ENDBRANCH  24  26
ENDBRANCH  23  24
ENDBRANCH  17  23
ENDBRANCH  16  17
ENDBRANCH  15  16
ENDBRANCH   1  15
BRANCH   1  28
ATOM     28  C   UNL     1      -7.065   5.221 130.921  0.00  0.00    +0.000 C 
BRANCH  28  29
ATOM     29  C   UNL     1      -6.206   6.473 131.171  0.00  0.00    +0.000 C 
ATOM     30  O   UNL     1      -5.349   6.579 132.038  0.00  0.00    +0.000 OA
BRANCH  29  31
ATOM     31  O   UNL     1      -6.515   7.530 130.387  0.00  0.00    +0.000 OA
ATOM     32  H   UNL     1      -7.384   7.487 129.951  0.00  0.00    +0.000 HD
ENDBRANCH  29  31
ENDBRANCH  28  29
ENDBRANCH   1  28
TORSDOF 21
ENDMDL
MODEL 3
REMARK VINA RESULT:      -5.6      2.805      7.240
REMARK  Name = Pentetic acid
REMARK  21 active torsions:
REMARK  status: ('A' for Active; 'I' for Inactive)
REMARK    1  A    between atoms: O_1  and  C_2
REMARK    2  A    between atoms: C_2  and  C_4
REMARK    3  A    between atoms: C_4  and  N_5
REMARK    4  A    between atoms: N_5  and  C_6
REMARK    5  A    between atoms: N_5  and  C_17
REMARK    6  A    between atoms: C_6  and  C_7
REMARK    7  A    between atoms: C_7  and  N_8
REMARK    8  A    between atoms: N_8  and  C_9
REMARK    9  A    between atoms: N_8  and  C_13
REMARK   10  A    between atoms: C_9  and  C_10
REMARK   11  A    between atoms: C_10  and  O_11
REMARK   12  A    between atoms: C_13  and  C_14
REMARK   13  A    between atoms: C_14  and  O_15
REMARK   14  A    between atoms: C_17  and  C_18
REMARK   15  A    between atoms: C_18  and  N_19
REMARK   16  A    between atoms: N_19  and  C_20
REMARK   17  A    between atoms: N_19  and  C_24
REMARK   18  A    between atoms: C_20  and  C_21
REMARK   19  A    between atoms: C_21  and  O_22
REMARK   20  A    between atoms: C_24  and  C_25
REMARK   21  A    between atoms: C_25  and  O_26
REMARK                            x       y       z     vdW  Elec       q    Type
REMARK                         _______ _______ _______ _____ _____    ______ ____
ROOT
ATOM      1  N   UNL     1      -8.689   3.686 128.188  0.00  0.00    +0.000 NA
ENDROOT
BRANCH   1   2
ATOM      2  C   UNL     1      -8.702   4.225 129.549  0.00  0.00    +0.000 C 
BRANCH   2   3
ATOM      3  C   UNL     1      -9.045   5.725 129.848  0.00  0.00    +0.000 C 
BRANCH   3   4
ATOM      4  N   UNL     1     -10.333   6.181 129.180  0.00  0.00    +0.000 NA
BRANCH   4   5
ATOM      5  C   UNL     1     -11.491   5.621 129.956  0.00  0.00    +0.000 C 
BRANCH   5   6
ATOM      6  C   UNL     1     -11.809   6.416 131.234  0.00  0.00    +0.000 C 
ATOM      7  O   UNL     1     -12.601   7.328 131.279  0.00  0.00    +0.000 OA
BRANCH   6   8
ATOM      8  O   UNL     1     -11.125   5.994 132.336  0.00  0.00    +0.000 OA
ATOM      9  H   UNL     1     -11.747   5.642 133.008  0.00  0.00    +0.000 HD
ENDBRANCH   6   8
ENDBRANCH   5   6
ENDBRANCH   4   5
BRANCH   4  10
ATOM     10  C   UNL     1     -10.319   7.697 129.320  0.00  0.00    +0.000 C 
BRANCH  10  11
ATOM     11  C   UNL     1     -11.138   8.469 128.281  0.00  0.00    +0.000 C 
ATOM     12  O   UNL     1     -10.881   8.442 127.086  0.00  0.00    +0.000 OA
BRANCH  11  13
ATOM     13  O   UNL     1     -12.181   9.185 128.756  0.00  0.00    +0.000 OA
ATOM     14  H   UNL     1     -12.116  10.129 128.525  0.00  0.00    +0.000 HD
ENDBRANCH  11  13
ENDBRANCH  10  11
ENDBRANCH   4  10
ENDBRANCH   3   4
ENDBRANCH   2   3
ENDBRANCH   1   2
BRANCH   1  15
ATOM     15  C   UNL     1      -8.232   2.328 128.364  0.00  0.00    +0.000 C 
BRANCH  15  16
ATOM     16  C   UNL     1      -8.706   1.243 127.440  0.00  0.00    +0.000 C 
BRANCH  16  17
ATOM     17  N   UNL     1      -8.388   1.471 125.998  0.00  0.00    +0.000 NA
BRANCH  17  18
ATOM     18  C   UNL     1      -7.047   0.855 125.696  0.00  0.00    +0.000 C 
BRANCH  18  19
ATOM     19  C   UNL     1      -6.000   1.880 125.215  0.00  0.00    +0.000 C 
ATOM     20  O   UNL     1      -4.975   2.130 125.811  0.00  0.00    +0.000 OA
BRANCH  19  21
ATOM     21  O   UNL     1      -6.320   2.507 124.049  0.00  0.00    +0.000 OA
ATOM     22  H   UNL     1      -7.189   2.954 124.128  0.00  0.00    +0.000 HD
ENDBRANCH  19  21
ENDBRANCH  18  19
ENDBRANCH  17  18
BRANCH  17  23
ATOM     23  C   UNL     1      -9.496   0.661 125.352  0.00  0.00    +0.000 C 
BRANCH  23  24
ATOM     24  C   UNL     1     -10.228   1.378 124.239  0.00  0.00    +0.000 C 
ATOM     25  O   UNL     1     -11.377   1.112 123.925  0.00  0.00    +0.000 OA
BRANCH  24  26
ATOM     26  O   UNL     1      -9.521   2.360 123.635  0.00  0.00    +0.000 OA
ATOM     27  H   UNL     1      -8.573   2.287 123.857  0.00  0.00    +0.000 HD
ENDBRANCH  24  26
ENDBRANCH  23  24
ENDBRANCH  17  23
ENDBRANCH  16  17
ENDBRANCH  15  16
ENDBRANCH   1  15
BRANCH   1  28
ATOM     28  C   UNL     1      -7.724   4.462 127.348  0.00  0.00    +0.000 C 
BRANCH  28  29
ATOM     29  C   UNL     1      -8.422   5.043 126.106  0.00  0.00    +0.000 C 
ATOM     30  O   UNL     1      -9.215   5.976 126.114  0.00  0.00    +0.000 OA
BRANCH  29  31
ATOM     31  O   UNL     1      -8.155   4.388 124.955  0.00  0.00    +0.000 OA
ATOM     32  H   UNL     1      -7.706   3.531 125.056  0.00  0.00    +0.000 HD
ENDBRANCH  29  31
ENDBRANCH  28  29
ENDBRANCH   1  28
TORSDOF 21
ENDMDL
MODEL 4
REMARK VINA RESULT:      -5.6      3.758      7.479
REMARK  Name = Pentetic acid
REMARK  21 active torsions:
REMARK  status: ('A' for Active; 'I' for Inactive)
REMARK    1  A    between atoms: O_1  and  C_2
REMARK    2  A    between atoms: C_2  and  C_4
REMARK    3  A    between atoms: C_4  and  N_5
REMARK    4  A    between atoms: N_5  and  C_6
REMARK    5  A    between atoms: N_5  and  C_17
REMARK    6  A    between atoms: C_6  and  C_7
REMARK    7  A    between atoms: C_7  and  N_8
REMARK    8  A    between atoms: N_8  and  C_9
REMARK    9  A    between atoms: N_8  and  C_13
REMARK   10  A    between atoms: C_9  and  C_10
REMARK   11  A    between atoms: C_10  and  O_11
REMARK   12  A    between atoms: C_13  and  C_14
REMARK   13  A    between atoms: C_14  and  O_15
REMARK   14  A    between atoms: C_17  and  C_18
REMARK   15  A    between atoms: C_18  and  N_19
REMARK   16  A    between atoms: N_19  and  C_20
REMARK   17  A    between atoms: N_19  and  C_24
REMARK   18  A    between atoms: C_20  and  C_21
REMARK   19  A    between atoms: C_21  and  O_22
REMARK   20  A    between atoms: C_24  and  C_25
REMARK   21  A    between atoms: C_25  and  O_26
REMARK                            x       y       z     vdW  Elec       q    Type
REMARK                         _______ _______ _______ _____ _____    ______ ____
ROOT
ATOM      1  N   UNL     1      -8.553   3.354 127.841  0.00  0.00    +0.000 NA
ENDROOT
BRANCH   1   2
ATOM      2  C   UNL     1      -8.199   3.696 129.219  0.00  0.00    +0.000 C 
BRANCH   2   3
ATOM      3  C   UNL     1      -8.734   4.993 129.919  0.00  0.00    +0.000 C 
BRANCH   3   4
ATOM      4  N   UNL     1     -10.135   5.373 129.468  0.00  0.00    +0.000 NA
BRANCH   4   5
ATOM      5  C   UNL     1     -11.098   5.010 130.562  0.00  0.00    +0.000 C 
BRANCH   5   6
ATOM      6  C   UNL     1     -11.265   6.117 131.618  0.00  0.00    +0.000 C 
ATOM      7  O   UNL     1     -10.390   6.454 132.382  0.00  0.00    +0.000 OA
BRANCH   6   8
ATOM      8  O   UNL     1     -12.494   6.708 131.616  0.00  0.00    +0.000 OA
ATOM      9  H   UNL     1     -12.683   7.096 130.736  0.00  0.00    +0.000 HD
ENDBRANCH   6   8
ENDBRANCH   5   6
ENDBRANCH   4   5
BRANCH   4  10
ATOM     10  C   UNL     1     -10.090   6.887 129.318  0.00  0.00    +0.000 C 
BRANCH  10  11
ATOM     11  C   UNL     1     -10.979   7.475 128.217  0.00  0.00    +0.000 C 
ATOM     12  O   UNL     1     -11.746   6.791 127.554  0.00  0.00    +0.000 OA
BRANCH  11  13
ATOM     13  O   UNL     1     -10.882   8.807 128.019  0.00  0.00    +0.000 OA
ATOM     14  H   UNL     1     -11.753   9.242 128.001  0.00  0.00    +0.000 HD
ENDBRANCH  11  13
ENDBRANCH  10  11
ENDBRANCH   4  10
ENDBRANCH   3   4
ENDBRANCH   2   3
ENDBRANCH   1   2
BRANCH   1  15
ATOM     15  C   UNL     1      -8.481   1.912 127.819  0.00  0.00    +0.000 C 
BRANCH  15  16
ATOM     16  C   UNL     1      -7.498   1.216 126.920  0.00  0.00    +0.000 C 
BRANCH  16  17
ATOM     17  N   UNL     1      -8.114   0.285 125.928  0.00  0.00    +0.000 NA
BRANCH  17  18
ATOM     18  C   UNL     1      -8.192  -1.090 126.538  0.00  0.00    +0.000 C 
BRANCH  18  19
ATOM     19  C   UNL     1      -8.789  -2.147 125.585  0.00  0.00    +0.000 C 
ATOM     20  O   UNL     1      -9.899  -2.617 125.708  0.00  0.00    +0.000 OA
BRANCH  19  21
ATOM     21  O   UNL     1      -7.957  -2.529 124.577  0.00  0.00    +0.000 OA
ATOM     22  H   UNL     1      -7.382  -1.782 124.305  0.00  0.00    +0.000 HD
ENDBRANCH  19  21
ENDBRANCH  18  19
ENDBRANCH  17  18
BRANCH  17  23
ATOM     23  C   UNL     1      -9.501   0.892 125.824  0.00  0.00    +0.000 C 
BRANCH  23  24
ATOM     24  C   UNL     1      -9.919   1.261 124.417  0.00  0.00    +0.000 C 
ATOM     25  O   UNL     1     -11.074   1.189 124.029  0.00  0.00    +0.000 OA
BRANCH  24  26
ATOM     26  O   UNL     1      -8.917   1.707 123.627  0.00  0.00    +0.000 OA
ATOM     27  H   UNL     1      -8.828   1.145 122.833  0.00  0.00    +0.000 HD
ENDBRANCH  24  26
ENDBRANCH  23  24
ENDBRANCH  17  23
ENDBRANCH  16  17
ENDBRANCH  15  16
ENDBRANCH   1  15
BRANCH   1  28
ATOM     28  C   UNL     1      -7.550   3.946 126.901  0.00  0.00    +0.000 C 
BRANCH  28  29
ATOM     29  C   UNL     1      -8.246   4.769 125.803  0.00  0.00    +0.000 C 
ATOM     30  O   UNL     1      -8.953   5.749 125.998  0.00  0.00    +0.000 OA
BRANCH  29  31
ATOM     31  O   UNL     1      -8.085   4.284 124.553  0.00  0.00    +0.000 OA
ATOM     32  H   UNL     1      -7.170   4.070 124.302  0.00  0.00    +0.000 HD
ENDBRANCH  29  31
ENDBRANCH  28  29
ENDBRANCH   1  28
TORSDOF 21
ENDMDL
MODEL 5
REMARK VINA RESULT:      -5.6      2.450      3.222
REMARK  Name = Pentetic acid
REMARK  21 active torsions:
REMARK  status: ('A' for Active; 'I' for Inactive)
REMARK    1  A    between atoms: O_1  and  C_2
REMARK    2  A    between atoms: C_2  and  C_4
REMARK    3  A    between atoms: C_4  and  N_5
REMARK    4  A    between atoms: N_5  and  C_6
REMARK    5  A    between atoms: N_5  and  C_17
REMARK    6  A    between atoms: C_6  and  C_7
REMARK    7  A    between atoms: C_7  and  N_8
REMARK    8  A    between atoms: N_8  and  C_9
REMARK    9  A    between atoms: N_8  and  C_13
REMARK   10  A    between atoms: C_9  and  C_10
REMARK   11  A    between atoms: C_10  and  O_11
REMARK   12  A    between atoms: C_13  and  C_14
REMARK   13  A    between atoms: C_14  and  O_15
REMARK   14  A    between atoms: C_17  and  C_18
REMARK   15  A    between atoms: C_18  and  N_19
REMARK   16  A    between atoms: N_19  and  C_20
REMARK   17  A    between atoms: N_19  and  C_24
REMARK   18  A    between atoms: C_20  and  C_21
REMARK   19  A    between atoms: C_21  and  O_22
REMARK   20  A    between atoms: C_24  and  C_25
REMARK   21  A    between atoms: C_25  and  O_26
REMARK                            x       y       z     vdW  Elec       q    Type
REMARK                         _______ _______ _______ _____ _____    ______ ____
ROOT
ATOM      1  N   UNL     1      -8.971   2.948 129.233  0.00  0.00    +0.000 NA
ENDROOT
BRANCH   1   2
ATOM      2  C   UNL     1      -8.427   2.052 128.212  0.00  0.00    +0.000 C 
BRANCH   2   3
ATOM      3  C   UNL     1      -7.484   2.566 127.070  0.00  0.00    +0.000 C 
BRANCH   3   4
ATOM      4  N   UNL     1      -8.218   2.808 125.761  0.00  0.00    +0.000 NA
BRANCH   4   5
ATOM      5  C   UNL     1      -7.329   3.622 124.864  0.00  0.00    +0.000 C 
BRANCH   5   6
ATOM      6  C   UNL     1      -7.184   5.085 125.317  0.00  0.00    +0.000 C 
ATOM      7  O   UNL     1      -6.122   5.614 125.552  0.00  0.00    +0.000 OA
BRANCH   6   8
ATOM      8  O   UNL     1      -8.367   5.755 125.421  0.00  0.00    +0.000 OA
ATOM      9  H   UNL     1      -8.350   6.563 124.865  0.00  0.00    +0.000 HD
ENDBRANCH   6   8
ENDBRANCH   5   6
ENDBRANCH   4   5
BRANCH   4  10
ATOM     10  C   UNL     1      -8.402   1.420 125.164  0.00  0.00    +0.000 C 
BRANCH  10  11
ATOM     11  C   UNL     1      -9.851   0.975 124.945  0.00  0.00    +0.000 C 
ATOM     12  O   UNL     1     -10.345   0.025 125.537  0.00  0.00    +0.000 OA
BRANCH  11  13
ATOM     13  O   UNL     1     -10.571   1.699 124.062  0.00  0.00    +0.000 OA
ATOM     14  H   UNL     1     -10.096   1.837 123.223  0.00  0.00    +0.000 HD
ENDBRANCH  11  13
ENDBRANCH  10  11
ENDBRANCH   4  10
ENDBRANCH   3   4
ENDBRANCH   2   3
ENDBRANCH   1   2
BRANCH   1  15
ATOM     15  C   UNL     1      -8.303   4.201 128.977  0.00  0.00    +0.000 C 
BRANCH  15  16
ATOM     16  C   UNL     1      -8.610   5.409 129.816  0.00  0.00    +0.000 C 
BRANCH  16  17
ATOM     17  N   UNL     1     -10.026   5.878 129.736  0.00  0.00    +0.000 NA
BRANCH  17  18
ATOM     18  C   UNL     1     -10.276   6.855 130.855  0.00  0.00    +0.000 C 
BRANCH  18  19
ATOM     19  C   UNL     1     -11.363   6.384 131.843  0.00  0.00    +0.000 C 
ATOM     20  O   UNL     1     -12.527   6.714 131.774  0.00  0.00    +0.000 OA
BRANCH  19  21
ATOM     21  O   UNL     1     -10.910   5.558 132.826  0.00  0.00    +0.000 OA
ATOM     22  H   UNL     1     -11.487   4.768 132.904  0.00  0.00    +0.000 HD
ENDBRANCH  19  21
ENDBRANCH  18  19
ENDBRANCH  17  18
BRANCH  17  23
ATOM     23  C   UNL     1      -9.989   6.604 128.404  0.00  0.00    +0.000 C 
BRANCH  23  24
ATOM     24  C   UNL     1     -11.263   7.342 128.058  0.00  0.00    +0.000 C 
ATOM     25  O   UNL     1     -11.317   8.557 127.957  0.00  0.00    +0.000 OA
BRANCH  24  26
ATOM     26  O   UNL     1     -12.336   6.549 127.839  0.00  0.00    +0.000 OA
ATOM     27  H   UNL     1     -12.063   5.706 127.429  0.00  0.00    +0.000 HD
ENDBRANCH  24  26
ENDBRANCH  23  24
ENDBRANCH  17  23
ENDBRANCH  16  17
ENDBRANCH  15  16
ENDBRANCH   1  15
BRANCH   1  28
ATOM     28  C   UNL     1      -8.623   2.433 130.594  0.00  0.00    +0.000 C 
BRANCH  28  29
ATOM     29  C   UNL     1      -9.893   2.137 131.411  0.00  0.00    +0.000 C 
ATOM     30  O   UNL     1     -10.071   1.143 132.102  0.00  0.00    +0.000 OA
BRANCH  29  31
ATOM     31  O   UNL     1     -10.880   3.046 131.259  0.00  0.00    +0.000 OA
ATOM     32  H   UNL     1     -11.664   2.737 130.773  0.00  0.00    +0.000 HD
ENDBRANCH  29  31
ENDBRANCH  28  29
ENDBRANCH   1  28
TORSDOF 21
ENDMDL
MODEL 6
REMARK VINA RESULT:      -5.6      4.206      7.753
REMARK  Name = Pentetic acid
REMARK  21 active torsions:
REMARK  status: ('A' for Active; 'I' for Inactive)
REMARK    1  A    between atoms: O_1  and  C_2
REMARK    2  A    between atoms: C_2  and  C_4
REMARK    3  A    between atoms: C_4  and  N_5
REMARK    4  A    between atoms: N_5  and  C_6
REMARK    5  A    between atoms: N_5  and  C_17
REMARK    6  A    between atoms: C_6  and  C_7
REMARK    7  A    between atoms: C_7  and  N_8
REMARK    8  A    between atoms: N_8  and  C_9
REMARK    9  A    between atoms: N_8  and  C_13
REMARK   10  A    between atoms: C_9  and  C_10
REMARK   11  A    between atoms: C_10  and  O_11
REMARK   12  A    between atoms: C_13  and  C_14
REMARK   13  A    between atoms: C_14  and  O_15
REMARK   14  A    between atoms: C_17  and  C_18
REMARK   15  A    between atoms: C_18  and  N_19
REMARK   16  A    between atoms: N_19  and  C_20
REMARK   17  A    between atoms: N_19  and  C_24
REMARK   18  A    between atoms: C_20  and  C_21
REMARK   19  A    between atoms: C_21  and  O_22
REMARK   20  A    between atoms: C_24  and  C_25
REMARK   21  A    between atoms: C_25  and  O_26
REMARK                            x       y       z     vdW  Elec       q    Type
REMARK                         _______ _______ _______ _____ _____    ______ ____
ROOT
ATOM      1  N   UNL     1      -8.612   2.535 127.209  0.00  0.00    +0.000 NA
ENDROOT
BRANCH   1   2
ATOM      2  C   UNL     1      -8.178   2.213 128.569  0.00  0.00    +0.000 C 
BRANCH   2   3
ATOM      3  C   UNL     1      -9.077   2.502 129.820  0.00  0.00    +0.000 C 
BRANCH   3   4
ATOM      4  N   UNL     1      -9.542   3.947 129.894  0.00  0.00    +0.000 NA
BRANCH   4   5
ATOM      5  C   UNL     1     -10.931   3.967 130.467  0.00  0.00    +0.000 C 
BRANCH   5   6
ATOM      6  C   UNL     1     -11.614   5.342 130.358  0.00  0.00    +0.000 C 
ATOM      7  O   UNL     1     -11.793   5.923 129.313  0.00  0.00    +0.000 OA
BRANCH   6   8
ATOM      8  O   UNL     1     -12.022   5.856 131.553  0.00  0.00    +0.000 OA
ATOM      9  H   UNL     1     -11.455   5.520 132.280  0.00  0.00    +0.000 HD
ENDBRANCH   6   8
ENDBRANCH   5   6
ENDBRANCH   4   5
BRANCH   4  10
ATOM     10  C   UNL     1      -8.583   4.607 130.874  0.00  0.00    +0.000 C 
BRANCH  10  11
ATOM     11  C   UNL     1      -7.775   5.787 130.323  0.00  0.00    +0.000 C 
ATOM     12  O   UNL     1      -8.104   6.952 130.501  0.00  0.00    +0.000 OA
BRANCH  11  13
ATOM     13  O   UNL     1      -6.659   5.475 129.631  0.00  0.00    +0.000 OA
ATOM     14  H   UNL     1      -6.190   4.710 130.011  0.00  0.00    +0.000 HD
ENDBRANCH  11  13
ENDBRANCH  10  11
ENDBRANCH   4  10
ENDBRANCH   3   4
ENDBRANCH   2   3
ENDBRANCH   1   2
BRANCH   1  15
ATOM     15  C   UNL     1      -8.742   1.243 126.578  0.00  0.00    +0.000 C 
BRANCH  15  16
ATOM     16  C   UNL     1      -7.590   0.652 125.816  0.00  0.00    +0.000 C 
BRANCH  16  17
ATOM     17  N   UNL     1      -7.918   0.236 124.419  0.00  0.00    +0.000 NA
BRANCH  17  18
ATOM     18  C   UNL     1      -7.782  -1.261 124.316  0.00  0.00    +0.000 C 
BRANCH  18  19
ATOM     19  C   UNL     1      -9.114  -2.010 124.532  0.00  0.00    +0.000 C 
ATOM     20  O   UNL     1      -9.590  -2.239 125.622  0.00  0.00    +0.000 OA
BRANCH  19  21
ATOM     21  O   UNL     1      -9.726  -2.412 123.384  0.00  0.00    +0.000 OA
ATOM     22  H   UNL     1     -10.518  -2.952 123.589  0.00  0.00    +0.000 HD
ENDBRANCH  19  21
ENDBRANCH  18  19
ENDBRANCH  17  18
BRANCH  17  23
ATOM     23  C   UNL     1      -9.381   0.636 124.361  0.00  0.00    +0.000 C 
BRANCH  23  24
ATOM     24  C   UNL     1      -9.844   1.120 123.004  0.00  0.00    +0.000 C 
ATOM     25  O   UNL     1      -9.398   2.124 122.473  0.00  0.00    +0.000 OA
BRANCH  24  26
ATOM     26  O   UNL     1     -10.772   0.338 122.410  0.00  0.00    +0.000 OA
ATOM     27  H   UNL     1     -10.510  -0.602 122.455  0.00  0.00    +0.000 HD
ENDBRANCH  24  26
ENDBRANCH  23  24
ENDBRANCH  17  23
ENDBRANCH  16  17
ENDBRANCH  15  16
ENDBRANCH   1  15
BRANCH   1  28
ATOM     28  C   UNL     1      -7.561   3.352 126.525  0.00  0.00    +0.000 C 
BRANCH  28  29
ATOM     29  C   UNL     1      -8.200   4.401 125.597  0.00  0.00    +0.000 C 
ATOM     30  O   UNL     1      -8.738   5.436 125.969  0.00  0.00    +0.000 OA
BRANCH  29  31
ATOM     31  O   UNL     1      -8.196   4.068 124.288  0.00  0.00    +0.000 OA
ATOM     32  H   UNL     1      -8.750   3.305 124.049  0.00  0.00    +0.000 HD
ENDBRANCH  29  31
ENDBRANCH  28  29
ENDBRANCH   1  28
TORSDOF 21
ENDMDL
MODEL 7
REMARK VINA RESULT:      -5.5      4.297      7.326
REMARK  Name = Pentetic acid
REMARK  21 active torsions:
REMARK  status: ('A' for Active; 'I' for Inactive)
REMARK    1  A    between atoms: O_1  and  C_2
REMARK    2  A    between atoms: C_2  and  C_4
REMARK    3  A    between atoms: C_4  and  N_5
REMARK    4  A    between atoms: N_5  and  C_6
REMARK    5  A    between atoms: N_5  and  C_17
REMARK    6  A    between atoms: C_6  and  C_7
REMARK    7  A    between atoms: C_7  and  N_8
REMARK    8  A    between atoms: N_8  and  C_9
REMARK    9  A    between atoms: N_8  and  C_13
REMARK   10  A    between atoms: C_9  and  C_10
REMARK   11  A    between atoms: C_10  and  O_11
REMARK   12  A    between atoms: C_13  and  C_14
REMARK   13  A    between atoms: C_14  and  O_15
REMARK   14  A    between atoms: C_17  and  C_18
REMARK   15  A    between atoms: C_18  and  N_19
REMARK   16  A    between atoms: N_19  and  C_20
REMARK   17  A    between atoms: N_19  and  C_24
REMARK   18  A    between atoms: C_20  and  C_21
REMARK   19  A    between atoms: C_21  and  O_22
REMARK   20  A    between atoms: C_24  and  C_25
REMARK   21  A    between atoms: C_25  and  O_26
REMARK                            x       y       z     vdW  Elec       q    Type
REMARK                         _______ _______ _______ _____ _____    ______ ____
ROOT
ATOM      1  N   UNL     1      -5.882   4.420 126.026  0.00  0.00    +0.000 NA
ENDROOT
BRANCH   1   2
ATOM      2  C   UNL     1      -6.123   4.863 124.652  0.00  0.00    +0.000 C 
BRANCH   2   3
ATOM      3  C   UNL     1      -5.327   4.277 123.436  0.00  0.00    +0.000 C 
BRANCH   3   4
ATOM      4  N   UNL     1      -6.154   4.213 122.162  0.00  0.00    +0.000 NA
BRANCH   4   5
ATOM      5  C   UNL     1      -5.218   4.056 120.998  0.00  0.00    +0.000 C 
BRANCH   5   6
ATOM      6  C   UNL     1      -5.023   5.353 120.194  0.00  0.00    +0.000 C 
ATOM      7  O   UNL     1      -5.519   5.551 119.108  0.00  0.00    +0.000 OA
BRANCH   6   8
ATOM      8  O   UNL     1      -4.246   6.283 120.817  0.00  0.00    +0.000 OA
ATOM      9  H   UNL     1      -4.034   5.993 121.730  0.00  0.00    +0.000 HD
ENDBRANCH   6   8
ENDBRANCH   5   6
ENDBRANCH   4   5
BRANCH   4  10
ATOM     10  C   UNL     1      -6.989   2.949 122.312  0.00  0.00    +0.000 C 
BRANCH  10  11
ATOM     11  C   UNL     1      -8.451   3.058 121.867  0.00  0.00    +0.000 C 
ATOM     12  O   UNL     1      -8.802   3.751 120.922  0.00  0.00    +0.000 OA
BRANCH  11  13
ATOM     13  O   UNL     1      -9.345   2.334 122.573  0.00  0.00    +0.000 OA
ATOM     14  H   UNL     1      -9.399   1.412 122.265  0.00  0.00    +0.000 HD
ENDBRANCH  11  13
ENDBRANCH  10  11
ENDBRANCH   4  10
ENDBRANCH   3   4
ENDBRANCH   2   3
ENDBRANCH   1   2
BRANCH   1  15
ATOM     15  C   UNL     1      -4.953   3.325 125.872  0.00  0.00    +0.000 C 
BRANCH  15  16
ATOM     16  C   UNL     1      -3.972   3.004 126.964  0.00  0.00    +0.000 C 
BRANCH  16  17
ATOM     17  N   UNL     1      -4.082   3.874 128.173  0.00  0.00    +0.000 NA
BRANCH  17  18
ATOM     18  C   UNL     1      -4.023   3.004 129.402  0.00  0.00    +0.000 C 
BRANCH  18  19
ATOM     19  C   UNL     1      -4.074   3.805 130.719  0.00  0.00    +0.000 C 
ATOM     20  O   UNL     1      -3.299   3.647 131.636  0.00  0.00    +0.000 OA
BRANCH  19  21
ATOM     21  O   UNL     1      -5.082   4.719 130.783  0.00  0.00    +0.000 OA
ATOM     22  H   UNL     1      -5.056   5.199 131.637  0.00  0.00    +0.000 HD
ENDBRANCH  19  21
ENDBRANCH  18  19
ENDBRANCH  17  18
BRANCH  17  23
ATOM     23  C   UNL     1      -2.802   4.678 128.038  0.00  0.00    +0.000 C 
BRANCH  23  24
ATOM     24  C   UNL     1      -3.008   6.176 127.974  0.00  0.00    +0.000 C 
ATOM     25  O   UNL     1      -4.114   6.692 127.961  0.00  0.00    +0.000 OA
BRANCH  24  26
ATOM     26  O   UNL     1      -1.869   6.905 127.962  0.00  0.00    +0.000 OA
ATOM     27  H   UNL     1      -1.087   6.321 127.990  0.00  0.00    +0.000 HD
ENDBRANCH  24  26
ENDBRANCH  23  24
ENDBRANCH  17  23
ENDBRANCH  16  17
ENDBRANCH  15  16
ENDBRANCH   1  15
BRANCH   1  28
ATOM     28  C   UNL     1      -7.163   3.943 126.635  0.00  0.00    +0.000 C 
BRANCH  28  29
ATOM     29  C   UNL     1      -8.375   4.550 125.908  0.00  0.00    +0.000 C 
ATOM     30  O   UNL     1      -8.774   5.700 126.040  0.00  0.00    +0.000 OA
BRANCH  29  31
ATOM     31  O   UNL     1      -9.054   3.680 125.128  0.00  0.00    +0.000 OA
ATOM     32  H   UNL     1      -9.930   3.417 125.460  0.00  0.00    +0.000 HD
ENDBRANCH  29  31
ENDBRANCH  28  29
ENDBRANCH   1  28
TORSDOF 21
ENDMDL
MODEL 8
REMARK VINA RESULT:      -5.5      1.226      2.865
REMARK  Name = Pentetic acid
REMARK  21 active torsions:
REMARK  status: ('A' for Active; 'I' for Inactive)
REMARK    1  A    between atoms: O_1  and  C_2
REMARK    2  A    between atoms: C_2  and  C_4
REMARK    3  A    between atoms: C_4  and  N_5
REMARK    4  A    between atoms: N_5  and  C_6
REMARK    5  A    between atoms: N_5  and  C_17
REMARK    6  A    between atoms: C_6  and  C_7
REMARK    7  A    between atoms: C_7  and  N_8
REMARK    8  A    between atoms: N_8  and  C_9
REMARK    9  A    between atoms: N_8  and  C_13
REMARK   10  A    between atoms: C_9  and  C_10
REMARK   11  A    between atoms: C_10  and  O_11
REMARK   12  A    between atoms: C_13  and  C_14
REMARK   13  A    between atoms: C_14  and  O_15
REMARK   14  A    between atoms: C_17  and  C_18
REMARK   15  A    between atoms: C_18  and  N_19
REMARK   16  A    between atoms: N_19  and  C_20
REMARK   17  A    between atoms: N_19  and  C_24
REMARK   18  A    between atoms: C_20  and  C_21
REMARK   19  A    between atoms: C_21  and  O_22
REMARK   20  A    between atoms: C_24  and  C_25
REMARK   21  A    between atoms: C_25  and  O_26
REMARK                            x       y       z     vdW  Elec       q    Type
REMARK                         _______ _______ _______ _____ _____    ______ ____
ROOT
ATOM      1  N   UNL     1      -8.433   4.840 130.661  0.00  0.00    +0.000 NA
ENDROOT
BRANCH   1   2
ATOM      2  C   UNL     1      -7.209   4.426 129.974  0.00  0.00    +0.000 C 
BRANCH   2   3
ATOM      3  C   UNL     1      -7.231   3.808 128.533  0.00  0.00    +0.000 C 
BRANCH   3   4
ATOM      4  N   UNL     1      -6.255   4.483 127.584  0.00  0.00    +0.000 NA
BRANCH   4   5
ATOM      5  C   UNL     1      -4.860   4.109 127.996  0.00  0.00    +0.000 C 
BRANCH   5   6
ATOM      6  C   UNL     1      -3.827   5.216 127.722  0.00  0.00    +0.000 C 
ATOM      7  O   UNL     1      -2.630   5.040 127.746  0.00  0.00    +0.000 OA
BRANCH   6   8
ATOM      8  O   UNL     1      -4.375   6.429 127.431  0.00  0.00    +0.000 OA
ATOM      9  H   UNL     1      -3.756   7.150 127.676  0.00  0.00    +0.000 HD
ENDBRANCH   6   8
ENDBRANCH   5   6
ENDBRANCH   4   5
BRANCH   4  10
ATOM     10  C   UNL     1      -6.561   3.872 126.224  0.00  0.00    +0.000 C 
BRANCH  10  11
ATOM     11  C   UNL     1      -6.500   4.833 125.032  0.00  0.00    +0.000 C 
ATOM     12  O   UNL     1      -6.186   6.010 125.150  0.00  0.00    +0.000 OA
BRANCH  11  13
ATOM     13  O   UNL     1      -6.804   4.309 123.826  0.00  0.00    +0.000 OA
ATOM     14  H   UNL     1      -7.092   3.380 123.889  0.00  0.00    +0.000 HD
ENDBRANCH  11  13
ENDBRANCH  10  11
ENDBRANCH   4  10
ENDBRANCH   3   4
ENDBRANCH   2   3
ENDBRANCH   1   2
BRANCH   1  15
ATOM     15  C   UNL     1      -8.814   6.053 129.978  0.00  0.00    +0.000 C 
BRANCH  15  16
ATOM     16  C   UNL     1     -10.105   6.119 129.213  0.00  0.00    +0.000 C 
BRANCH  16  17
ATOM     17  N   UNL     1     -10.757   7.463 129.209  0.00  0.00    +0.000 NA
BRANCH  17  18
ATOM     18  C   UNL     1     -10.649   8.049 127.825  0.00  0.00    +0.000 C 
BRANCH  18  19
ATOM     19  C   UNL     1     -10.646   6.982 126.711  0.00  0.00    +0.000 C 
ATOM     20  O   UNL     1      -9.649   6.415 126.321  0.00  0.00    +0.000 OA
BRANCH  19  21
ATOM     21  O   UNL     1     -11.872   6.724 126.176  0.00  0.00    +0.000 OA
ATOM     22  H   UNL     1     -12.096   7.390 125.493  0.00  0.00    +0.000 HD
ENDBRANCH  19  21
ENDBRANCH  18  19
ENDBRANCH  17  18
BRANCH  17  23
ATOM     23  C   UNL     1     -12.191   7.061 129.499  0.00  0.00    +0.000 C 
BRANCH  23  24
ATOM     24  C   UNL     1     -12.840   7.829 130.629  0.00  0.00    +0.000 C 
ATOM     25  O   UNL     1     -13.255   7.290 131.642  0.00  0.00    +0.000 OA
BRANCH  24  26
ATOM     26  O   UNL     1     -12.900   9.167 130.444  0.00  0.00    +0.000 OA
ATOM     27  H   UNL     1     -12.078   9.594 130.753  0.00  0.00    +0.000 HD
ENDBRANCH  24  26
ENDBRANCH  23  24
ENDBRANCH  17  23
ENDBRANCH  16  17
ENDBRANCH  15  16
ENDBRANCH   1  15
BRANCH   1  28
ATOM     28  C   UNL     1      -8.134   5.117 132.101  0.00  0.00    +0.000 C 
BRANCH  28  29
ATOM     29  C   UNL     1      -9.427   5.394 132.887  0.00  0.00    +0.000 C 
ATOM     30  O   UNL     1     -10.013   6.468 132.925  0.00  0.00    +0.000 OA
BRANCH  29  31
ATOM     31  O   UNL     1      -9.865   4.353 133.629  0.00  0.00    +0.000 OA
ATOM     32  H   UNL     1     -10.042   4.552 134.565  0.00  0.00    +0.000 HD
ENDBRANCH  29  31
ENDBRANCH  28  29
ENDBRANCH   1  28
TORSDOF 21
ENDMDL
MODEL 9
REMARK VINA RESULT:      -5.4      4.150      7.753
REMARK  Name = Pentetic acid
REMARK  21 active torsions:
REMARK  status: ('A' for Active; 'I' for Inactive)
REMARK    1  A    between atoms: O_1  and  C_2
REMARK    2  A    between atoms: C_2  and  C_4
REMARK    3  A    between atoms: C_4  and  N_5
REMARK    4  A    between atoms: N_5  and  C_6
REMARK    5  A    between atoms: N_5  and  C_17
REMARK    6  A    between atoms: C_6  and  C_7
REMARK    7  A    between atoms: C_7  and  N_8
REMARK    8  A    between atoms: N_8  and  C_9
REMARK    9  A    between atoms: N_8  and  C_13
REMARK   10  A    between atoms: C_9  and  C_10
REMARK   11  A    between atoms: C_10  and  O_11
REMARK   12  A    between atoms: C_13  and  C_14
REMARK   13  A    between atoms: C_14  and  O_15
REMARK   14  A    between atoms: C_17  and  C_18
REMARK   15  A    between atoms: C_18  and  N_19
REMARK   16  A    between atoms: N_19  and  C_20
REMARK   17  A    between atoms: N_19  and  C_24
REMARK   18  A    between atoms: C_20  and  C_21
REMARK   19  A    between atoms: C_21  and  O_22
REMARK   20  A    between atoms: C_24  and  C_25
REMARK   21  A    between atoms: C_25  and  O_26
REMARK                            x       y       z     vdW  Elec       q    Type
REMARK                         _______ _______ _______ _____ _____    ______ ____
ROOT
ATOM      1  N   UNL     1      -8.452   2.573 127.326  0.00  0.00    +0.000 NA
ENDROOT
BRANCH   1   2
ATOM      2  C   UNL     1      -8.257   3.201 128.634  0.00  0.00    +0.000 C 
BRANCH   2   3
ATOM      3  C   UNL     1      -9.252   2.974 129.824  0.00  0.00    +0.000 C 
BRANCH   3   4
ATOM      4  N   UNL     1      -9.693   4.271 130.483  0.00  0.00    +0.000 NA
BRANCH   4   5
ATOM      5  C   UNL     1      -9.107   4.321 131.865  0.00  0.00    +0.000 C 
BRANCH   5   6
ATOM      6  C   UNL     1      -9.618   5.509 132.700  0.00  0.00    +0.000 C 
ATOM      7  O   UNL     1      -8.902   6.220 133.366  0.00  0.00    +0.000 OA
BRANCH   6   8
ATOM      8  O   UNL     1     -10.964   5.708 132.618  0.00  0.00    +0.000 OA
ATOM      9  H   UNL     1     -11.241   5.788 131.680  0.00  0.00    +0.000 HD
ENDBRANCH   6   8
ENDBRANCH   5   6
ENDBRANCH   4   5
BRANCH   4  10
ATOM     10  C   UNL     1      -9.067   5.365 129.629  0.00  0.00    +0.000 C 
BRANCH  10  11
ATOM     11  C   UNL     1     -10.031   6.431 129.100  0.00  0.00    +0.000 C 
ATOM     12  O   UNL     1     -10.769   7.075 129.833  0.00  0.00    +0.000 OA
BRANCH  11  13
ATOM     13  O   UNL     1     -10.019   6.637 127.765  0.00  0.00    +0.000 OA
ATOM     14  H   UNL     1      -9.774   5.835 127.270  0.00  0.00    +0.000 HD
ENDBRANCH  11  13
ENDBRANCH  10  11
ENDBRANCH   4  10
ENDBRANCH   3   4
ENDBRANCH   2   3
ENDBRANCH   1   2
BRANCH   1  15
ATOM     15  C   UNL     1      -8.169   1.179 127.572  0.00  0.00    +0.000 C 
BRANCH  15  16
ATOM     16  C   UNL     1      -7.916   0.243 126.425  0.00  0.00    +0.000 C 
BRANCH  16  17
ATOM     17  N   UNL     1      -9.140  -0.159 125.669  0.00  0.00    +0.000 NA
BRANCH  17  18
ATOM     18  C   UNL     1      -8.951   0.193 124.217  0.00  0.00    +0.000 C 
BRANCH  18  19
ATOM     19  C   UNL     1      -9.997   1.197 123.692  0.00  0.00    +0.000 C 
ATOM     20  O   UNL     1     -11.165   1.186 124.014  0.00  0.00    +0.000 OA
BRANCH  19  21
ATOM     21  O   UNL     1      -9.505   2.114 122.813  0.00  0.00    +0.000 OA
ATOM     22  H   UNL     1     -10.225   2.692 122.483  0.00  0.00    +0.000 HD
ENDBRANCH  19  21
ENDBRANCH  18  19
ENDBRANCH  17  18
BRANCH  17  23
ATOM     23  C   UNL     1      -9.084  -1.664 125.857  0.00  0.00    +0.000 C 
BRANCH  23  24
ATOM     24  C   UNL     1      -8.813  -2.443 124.589  0.00  0.00    +0.000 C 
ATOM     25  O   UNL     1      -7.687  -2.639 124.161  0.00  0.00    +0.000 OA
BRANCH  24  26
ATOM     26  O   UNL     1      -9.915  -2.933 123.978  0.00  0.00    +0.000 OA
ATOM     27  H   UNL     1     -10.555  -3.264 124.637  0.00  0.00    +0.000 HD
ENDBRANCH  24  26
ENDBRANCH  23  24
ENDBRANCH  17  23
ENDBRANCH  16  17
ENDBRANCH  15  16
ENDBRANCH   1  15
BRANCH   1  28
ATOM     28  C   UNL     1      -7.479   3.144 126.343  0.00  0.00    +0.000 C 
BRANCH  28  29
ATOM     29  C   UNL     1      -8.158   4.195 125.447  0.00  0.00    +0.000 C 
ATOM     30  O   UNL     1      -8.895   5.088 125.842  0.00  0.00    +0.000 OA
BRANCH  29  31
ATOM     31  O   UNL     1      -7.941   4.026 124.124  0.00  0.00    +0.000 OA
ATOM     32  H   UNL     1      -7.567   4.795 123.660  0.00  0.00    +0.000 HD
ENDBRANCH  29  31
ENDBRANCH  28  29
ENDBRANCH   1  28
TORSDOF 21
ENDMDL
