MODEL 1
REMARK VINA RESULT:      -6.2      0.000      0.000
REMARK  Name = Pentoxifylline
REMARK  8 active torsions:
REMARK  status: ('A' for Active; 'I' for Inactive)
REMARK    1  A    between atoms: C_1  and  N_2
REMARK    2  A    between atoms: N_9  and  C_10
REMARK    3  A    between atoms: C_10  and  C_11
REMARK    4  A    between atoms: C_11  and  C_12
REMARK    5  A    between atoms: C_12  and  C_13
REMARK    6  A    between atoms: C_13  and  C_14
REMARK    7  A    between atoms: C_14  and  C_15
REMARK    8  A    between atoms: N_19  and  C_20
REMARK                            x       y       z     vdW  Elec       q    Type
REMARK                         _______ _______ _______ _____ _____    ______ ____
ROOT
ATOM      1  C   UNL     1      -7.150   4.190 119.452  0.00  0.00    +0.000 C 
ATOM      2  N   UNL     1      -6.461   4.211 120.717  0.00  0.00    +0.000 N 
ATOM      3  C   UNL     1      -5.228   4.761 120.954  0.00  0.00    +0.000 A 
ATOM      4  N   UNL     1      -4.863   4.623 122.213  0.00  0.00    +0.000 NA
ATOM      5  C   UNL     1      -5.901   3.966 122.790  0.00  0.00    +0.000 A 
ATOM      6  C   UNL     1      -6.903   3.695 121.902  0.00  0.00    +0.000 A 
ATOM      7  C   UNL     1      -8.097   3.014 122.268  0.00  0.00    +0.000 A 
ATOM      8  O   UNL     1      -9.001   2.767 121.462  0.00  0.00    +0.000 OA
ATOM      9  N   UNL     1      -8.139   2.658 123.623  0.00  0.00    +0.000 N 
ATOM     10  C   UNL     1      -7.107   2.926 124.542  0.00  0.00    +0.000 A 
ATOM     11  O   UNL     1      -7.135   2.601 125.729  0.00  0.00    +0.000 OA
ATOM     12  N   UNL     1      -5.987   3.593 124.100  0.00  0.00    +0.000 N 
ATOM     13  C   UNL     1      -4.943   3.864 125.068  0.00  0.00    +0.000 C 
ENDROOT
BRANCH   9  14
ATOM     14  C   UNL     1      -9.350   1.961 124.072  0.00  0.00    +0.000 C 
BRANCH  14  15
ATOM     15  C   UNL     1      -9.187   0.457 124.234  0.00  0.00    +0.000 C 
BRANCH  15  16
ATOM     16  C   UNL     1      -9.507  -0.347 123.021  0.00  0.00    +0.000 C 
BRANCH  16  17
ATOM     17  C   UNL     1      -8.518  -1.499 122.889  0.00  0.00    +0.000 C 
BRANCH  17  18
ATOM     18  C   UNL     1      -8.992  -2.744 123.600  0.00  0.00    +0.000 C 
ATOM     19  C   UNL     1      -8.172  -3.325 124.729  0.00  0.00    +0.000 C 
ATOM     20  O   UNL     1     -10.047  -3.284 123.261  0.00  0.00    +0.000 OA
ENDBRANCH  17  18
ENDBRANCH  16  17
ENDBRANCH  15  16
ENDBRANCH  14  15
ENDBRANCH   9  14
TORSDOF 5
ENDMDL
MODEL 2
REMARK VINA RESULT:      -6.1      3.305      5.532
REMARK  Name = Pentoxifylline
REMARK  8 active torsions:
REMARK  status: ('A' for Active; 'I' for Inactive)
REMARK    1  A    between atoms: C_1  and  N_2
REMARK    2  A    between atoms: N_9  and  C_10
REMARK    3  A    between atoms: C_10  and  C_11
REMARK    4  A    between atoms: C_11  and  C_12
REMARK    5  A    between atoms: C_12  and  C_13
REMARK    6  A    between atoms: C_13  and  C_14
REMARK    7  A    between atoms: C_14  and  C_15
REMARK    8  A    between atoms: N_19  and  C_20
REMARK                            x       y       z     vdW  Elec       q    Type
REMARK                         _______ _______ _______ _____ _____    ______ ____
ROOT
ATOM      1  C   UNL     1      -8.703   2.723 123.090  0.00  0.00    +0.000 C 
ATOM      2  N   UNL     1      -9.052   1.325 123.065  0.00  0.00    +0.000 N 
ATOM      3  C   UNL     1     -10.172   0.784 122.490  0.00  0.00    +0.000 A 
ATOM      4  N   UNL     1     -10.212  -0.526 122.630  0.00  0.00    +0.000 NA
ATOM      5  C   UNL     1      -9.079  -0.821 123.316  0.00  0.00    +0.000 A 
ATOM      6  C   UNL     1      -8.339   0.290 123.601  0.00  0.00    +0.000 A 
ATOM      7  C   UNL     1      -7.108   0.239 124.312  0.00  0.00    +0.000 A 
ATOM      8  O   UNL     1      -6.441   1.246 124.572  0.00  0.00    +0.000 OA
ATOM      9  N   UNL     1      -6.735  -1.062 124.681  0.00  0.00    +0.000 N 
ATOM     10  C   UNL     1      -7.497  -2.211 124.398  0.00  0.00    +0.000 A 
ATOM     11  O   UNL     1      -7.180  -3.353 124.735  0.00  0.00    +0.000 OA
ATOM     12  N   UNL     1      -8.675  -2.067 123.702  0.00  0.00    +0.000 N 
ATOM     13  C   UNL     1      -9.436  -3.267 123.417  0.00  0.00    +0.000 C 
ENDROOT
BRANCH   9  14
ATOM     14  C   UNL     1      -5.467  -1.190 125.409  0.00  0.00    +0.000 C 
BRANCH  14  15
ATOM     15  C   UNL     1      -5.564  -0.890 126.898  0.00  0.00    +0.000 C 
BRANCH  15  16
ATOM     16  C   UNL     1      -6.018  -2.030 127.743  0.00  0.00    +0.000 C 
BRANCH  16  17
ATOM     17  C   UNL     1      -7.486  -1.850 128.108  0.00  0.00    +0.000 C 
BRANCH  17  18
ATOM     18  C   UNL     1      -8.083  -3.098 128.711  0.00  0.00    +0.000 C 
ATOM     19  C   UNL     1      -9.020  -3.957 127.894  0.00  0.00    +0.000 C 
ATOM     20  O   UNL     1      -7.805  -3.417 129.870  0.00  0.00    +0.000 OA
ENDBRANCH  17  18
ENDBRANCH  16  17
ENDBRANCH  15  16
ENDBRANCH  14  15
ENDBRANCH   9  14
TORSDOF 5
ENDMDL
MODEL 3
REMARK VINA RESULT:      -6.0      7.019      9.264
REMARK  Name = Pentoxifylline
REMARK  8 active torsions:
REMARK  status: ('A' for Active; 'I' for Inactive)
REMARK    1  A    between atoms: C_1  and  N_2
REMARK    2  A    between atoms: N_9  and  C_10
REMARK    3  A    between atoms: C_10  and  C_11
REMARK    4  A    between atoms: C_11  and  C_12
REMARK    5  A    between atoms: C_12  and  C_13
REMARK    6  A    between atoms: C_13  and  C_14
REMARK    7  A    between atoms: C_14  and  C_15
REMARK    8  A    between atoms: N_19  and  C_20
REMARK                            x       y       z     vdW  Elec       q    Type
REMARK                         _______ _______ _______ _____ _____    ______ ____
ROOT
ATOM      1  C   UNL     1      -8.065   2.709 127.380  0.00  0.00    +0.000 C 
ATOM      2  N   UNL     1      -8.282   2.595 128.800  0.00  0.00    +0.000 N 
ATOM      3  C   UNL     1      -8.062   1.478 129.563  0.00  0.00    +0.000 A 
ATOM      4  N   UNL     1      -8.353   1.684 130.831  0.00  0.00    +0.000 NA
ATOM      5  C   UNL     1      -8.769   2.975 130.871  0.00  0.00    +0.000 A 
ATOM      6  C   UNL     1      -8.739   3.569 129.642  0.00  0.00    +0.000 A 
ATOM      7  C   UNL     1      -9.128   4.920 129.426  0.00  0.00    +0.000 A 
ATOM      8  O   UNL     1      -9.103   5.455 128.312  0.00  0.00    +0.000 OA
ATOM      9  N   UNL     1      -9.538   5.573 130.597  0.00  0.00    +0.000 N 
ATOM     10  C   UNL     1      -9.579   4.964 131.866  0.00  0.00    +0.000 A 
ATOM     11  O   UNL     1      -9.953   5.531 132.894  0.00  0.00    +0.000 OA
ATOM     12  N   UNL     1      -9.181   3.652 131.982  0.00  0.00    +0.000 N 
ATOM     13  C   UNL     1      -9.226   3.053 133.301  0.00  0.00    +0.000 C 
ENDROOT
BRANCH   9  14
ATOM     14  C   UNL     1      -9.943   6.976 130.449  0.00  0.00    +0.000 C 
BRANCH  14  15
ATOM     15  C   UNL     1     -11.433   7.179 130.218  0.00  0.00    +0.000 C 
BRANCH  15  16
ATOM     16  C   UNL     1     -11.794   8.426 129.486  0.00  0.00    +0.000 C 
BRANCH  16  17
ATOM     17  C   UNL     1     -11.200   8.391 128.083  0.00  0.00    +0.000 C 
BRANCH  17  18
ATOM     18  C   UNL     1     -11.947   7.451 127.169  0.00  0.00    +0.000 C 
ATOM     19  C   UNL     1     -13.441   7.279 127.321  0.00  0.00    +0.000 C 
ATOM     20  O   UNL     1     -11.339   6.824 126.298  0.00  0.00    +0.000 OA
ENDBRANCH  17  18
ENDBRANCH  16  17
ENDBRANCH  15  16
ENDBRANCH  14  15
ENDBRANCH   9  14
TORSDOF 5
ENDMDL
MODEL 4
REMARK VINA RESULT:      -6.0      8.036      9.611
REMARK  Name = Pentoxifylline
REMARK  8 active torsions:
REMARK  status: ('A' for Active; 'I' for Inactive)
REMARK    1  A    between atoms: C_1  and  N_2
REMARK    2  A    between atoms: N_9  and  C_10
REMARK    3  A    between atoms: C_10  and  C_11
REMARK    4  A    between atoms: C_11  and  C_12
REMARK    5  A    between atoms: C_12  and  C_13
REMARK    6  A    between atoms: C_13  and  C_14
REMARK    7  A    between atoms: C_14  and  C_15
REMARK    8  A    between atoms: N_19  and  C_20
REMARK                            x       y       z     vdW  Elec       q    Type
REMARK                         _______ _______ _______ _____ _____    ______ ____
ROOT
ATOM      1  C   UNL     1     -10.881   7.660 126.200  0.00  0.00    +0.000 C 
ATOM      2  N   UNL     1     -11.498   7.802 127.495  0.00  0.00    +0.000 N 
ATOM      3  C   UNL     1     -12.568   8.604 127.794  0.00  0.00    +0.000 A 
ATOM      4  N   UNL     1     -12.905   8.519 129.066  0.00  0.00    +0.000 NA
ATOM      5  C   UNL     1     -12.018   7.633 129.585  0.00  0.00    +0.000 A 
ATOM      6  C   UNL     1     -11.137   7.169 128.651  0.00  0.00    +0.000 A 
ATOM      7  C   UNL     1     -10.113   6.230 128.952  0.00  0.00    +0.000 A 
ATOM      8  O   UNL     1      -9.315   5.813 128.105  0.00  0.00    +0.000 OA
ATOM      9  N   UNL     1     -10.105   5.830 130.296  0.00  0.00    +0.000 N 
ATOM     10  C   UNL     1     -11.004   6.311 131.267  0.00  0.00    +0.000 A 
ATOM     11  O   UNL     1     -10.989   5.973 132.451  0.00  0.00    +0.000 OA
ATOM     12  N   UNL     1     -11.967   7.217 130.885  0.00  0.00    +0.000 N 
ATOM     13  C   UNL     1     -12.884   7.688 131.902  0.00  0.00    +0.000 C 
ENDROOT
BRANCH   9  14
ATOM     14  C   UNL     1      -9.079   4.852 130.675  0.00  0.00    +0.000 C 
BRANCH  14  15
ATOM     15  C   UNL     1      -9.486   3.401 130.468  0.00  0.00    +0.000 C 
BRANCH  15  16
ATOM     16  C   UNL     1      -8.914   2.438 131.452  0.00  0.00    +0.000 C 
BRANCH  16  17
ATOM     17  C   UNL     1      -9.383   2.796 132.857  0.00  0.00    +0.000 C 
BRANCH  17  18
ATOM     18  C   UNL     1      -8.231   3.076 133.791  0.00  0.00    +0.000 C 
ATOM     19  C   UNL     1      -8.183   4.375 134.562  0.00  0.00    +0.000 C 
ATOM     20  O   UNL     1      -7.330   2.245 133.925  0.00  0.00    +0.000 OA
ENDBRANCH  17  18
ENDBRANCH  16  17
ENDBRANCH  15  16
ENDBRANCH  14  15
ENDBRANCH   9  14
TORSDOF 5
ENDMDL
MODEL 5
REMARK VINA RESULT:      -6.0      8.161     10.142
REMARK  Name = Pentoxifylline
REMARK  8 active torsions:
REMARK  status: ('A' for Active; 'I' for Inactive)
REMARK    1  A    between atoms: C_1  and  N_2
REMARK    2  A    between atoms: N_9  and  C_10
REMARK    3  A    between atoms: C_10  and  C_11
REMARK    4  A    between atoms: C_11  and  C_12
REMARK    5  A    between atoms: C_12  and  C_13
REMARK    6  A    between atoms: C_13  and  C_14
REMARK    7  A    between atoms: C_14  and  C_15
REMARK    8  A    between atoms: N_19  and  C_20
REMARK                            x       y       z     vdW  Elec       q    Type
REMARK                         _______ _______ _______ _____ _____    ______ ____
ROOT
ATOM      1  C   UNL     1     -11.186   7.460 126.147  0.00  0.00    +0.000 C 
ATOM      2  N   UNL     1     -11.774   7.630 127.451  0.00  0.00    +0.000 N 
ATOM      3  C   UNL     1     -12.948   8.280 127.728  0.00  0.00    +0.000 A 
ATOM      4  N   UNL     1     -13.223   8.269 129.017  0.00  0.00    +0.000 NA
ATOM      5  C   UNL     1     -12.188   7.589 129.571  0.00  0.00    +0.000 A 
ATOM      6  C   UNL     1     -11.276   7.180 128.641  0.00  0.00    +0.000 A 
ATOM      7  C   UNL     1     -10.104   6.447 128.977  0.00  0.00    +0.000 A 
ATOM      8  O   UNL     1      -9.278   6.080 128.133  0.00  0.00    +0.000 OA
ATOM      9  N   UNL     1      -9.986   6.189 130.350  0.00  0.00    +0.000 N 
ATOM     10  C   UNL     1     -10.917   6.615 131.316  0.00  0.00    +0.000 A 
ATOM     11  O   UNL     1     -10.808   6.403 132.524  0.00  0.00    +0.000 OA
ATOM     12  N   UNL     1     -12.026   7.316 130.900  0.00  0.00    +0.000 N 
ATOM     13  C   UNL     1     -12.972   7.736 131.913  0.00  0.00    +0.000 C 
ENDROOT
BRANCH   9  14
ATOM     14  C   UNL     1      -8.803   5.427 130.766  0.00  0.00    +0.000 C 
BRANCH  14  15
ATOM     15  C   UNL     1      -7.661   6.279 131.300  0.00  0.00    +0.000 C 
BRANCH  15  16
ATOM     16  C   UNL     1      -6.318   5.958 130.740  0.00  0.00    +0.000 C 
BRANCH  16  17
ATOM     17  C   UNL     1      -5.329   7.057 131.106  0.00  0.00    +0.000 C 
BRANCH  17  18
ATOM     18  C   UNL     1      -4.516   7.514 129.919  0.00  0.00    +0.000 C 
ATOM     19  C   UNL     1      -3.861   8.876 129.933  0.00  0.00    +0.000 C 
ATOM     20  O   UNL     1      -4.387   6.776 128.939  0.00  0.00    +0.000 OA
ENDBRANCH  17  18
ENDBRANCH  16  17
ENDBRANCH  15  16
ENDBRANCH  14  15
ENDBRANCH   9  14
TORSDOF 5
ENDMDL
MODEL 6
REMARK VINA RESULT:      -5.9      1.477      2.000
REMARK  Name = Pentoxifylline
REMARK  8 active torsions:
REMARK  status: ('A' for Active; 'I' for Inactive)
REMARK    1  A    between atoms: C_1  and  N_2
REMARK    2  A    between atoms: N_9  and  C_10
REMARK    3  A    between atoms: C_10  and  C_11
REMARK    4  A    between atoms: C_11  and  C_12
REMARK    5  A    between atoms: C_12  and  C_13
REMARK    6  A    between atoms: C_13  and  C_14
REMARK    7  A    between atoms: C_14  and  C_15
REMARK    8  A    between atoms: N_19  and  C_20
REMARK                            x       y       z     vdW  Elec       q    Type
REMARK                         _______ _______ _______ _____ _____    ______ ____
ROOT
ATOM      1  C   UNL     1      -8.854   4.135 118.466  0.00  0.00    +0.000 C 
ATOM      2  N   UNL     1      -7.619   4.397 119.161  0.00  0.00    +0.000 N 
ATOM      3  C   UNL     1      -6.517   5.021 118.639  0.00  0.00    +0.000 A 
ATOM      4  N   UNL     1      -5.542   5.115 119.520  0.00  0.00    +0.000 NA
ATOM      5  C   UNL     1      -6.046   4.530 120.636  0.00  0.00    +0.000 A 
ATOM      6  C   UNL     1      -7.321   4.076 120.455  0.00  0.00    +0.000 A 
ATOM      7  C   UNL     1      -8.065   3.428 121.480  0.00  0.00    +0.000 A 
ATOM      8  O   UNL     1      -9.218   3.015 121.312  0.00  0.00    +0.000 OA
ATOM      9  N   UNL     1      -7.359   3.308 122.686  0.00  0.00    +0.000 N 
ATOM     10  C   UNL     1      -6.041   3.765 122.876  0.00  0.00    +0.000 A 
ATOM     11  O   UNL     1      -5.414   3.647 123.930  0.00  0.00    +0.000 OA
ATOM     12  N   UNL     1      -5.399   4.385 121.830  0.00  0.00    +0.000 N 
ATOM     13  C   UNL     1      -4.047   4.854 122.056  0.00  0.00    +0.000 C 
ENDROOT
BRANCH   9  14
ATOM     14  C   UNL     1      -8.071   2.657 123.791  0.00  0.00    +0.000 C 
BRANCH  14  15
ATOM     15  C   UNL     1      -7.685   1.202 124.019  0.00  0.00    +0.000 C 
BRANCH  15  16
ATOM     16  C   UNL     1      -8.590   0.202 123.386  0.00  0.00    +0.000 C 
BRANCH  16  17
ATOM     17  C   UNL     1      -8.044  -1.203 123.608  0.00  0.00    +0.000 C 
BRANCH  17  18
ATOM     18  C   UNL     1      -9.051  -2.110 124.272  0.00  0.00    +0.000 C 
ATOM     19  C   UNL     1      -9.520  -3.361 123.566  0.00  0.00    +0.000 C 
ATOM     20  O   UNL     1      -9.490  -1.830 125.391  0.00  0.00    +0.000 OA
ENDBRANCH  17  18
ENDBRANCH  16  17
ENDBRANCH  15  16
ENDBRANCH  14  15
ENDBRANCH   9  14
TORSDOF 5
ENDMDL
MODEL 7
REMARK VINA RESULT:      -5.9      7.764      9.046
REMARK  Name = Pentoxifylline
REMARK  8 active torsions:
REMARK  status: ('A' for Active; 'I' for Inactive)
REMARK    1  A    between atoms: C_1  and  N_2
REMARK    2  A    between atoms: N_9  and  C_10
REMARK    3  A    between atoms: C_10  and  C_11
REMARK    4  A    between atoms: C_11  and  C_12
REMARK    5  A    between atoms: C_12  and  C_13
REMARK    6  A    between atoms: C_13  and  C_14
REMARK    7  A    between atoms: C_14  and  C_15
REMARK    8  A    between atoms: N_19  and  C_20
REMARK                            x       y       z     vdW  Elec       q    Type
REMARK                         _______ _______ _______ _____ _____    ______ ____
ROOT
ATOM      1  C   UNL     1     -10.951   7.594 126.201  0.00  0.00    +0.000 C 
ATOM      2  N   UNL     1     -11.559   7.767 127.496  0.00  0.00    +0.000 N 
ATOM      3  C   UNL     1     -12.640   8.562 127.780  0.00  0.00    +0.000 A 
ATOM      4  N   UNL     1     -12.964   8.512 129.056  0.00  0.00    +0.000 NA
ATOM      5  C   UNL     1     -12.058   7.657 129.596  0.00  0.00    +0.000 A 
ATOM      6  C   UNL     1     -11.178   7.178 128.668  0.00  0.00    +0.000 A 
ATOM      7  C   UNL     1     -10.136   6.265 128.990  0.00  0.00    +0.000 A 
ATOM      8  O   UNL     1      -9.338   5.835 128.150  0.00  0.00    +0.000 OA
ATOM      9  N   UNL     1     -10.110   5.909 130.346  0.00  0.00    +0.000 N 
ATOM     10  C   UNL     1     -11.008   6.406 131.309  0.00  0.00    +0.000 A 
ATOM     11  O   UNL     1     -10.978   6.107 132.504  0.00  0.00    +0.000 OA
ATOM     12  N   UNL     1     -11.989   7.284 130.907  0.00  0.00    +0.000 N 
ATOM     13  C   UNL     1     -12.905   7.773 131.917  0.00  0.00    +0.000 C 
ENDROOT
BRANCH   9  14
ATOM     14  C   UNL     1      -9.065   4.960 130.747  0.00  0.00    +0.000 C 
BRANCH  14  15
ATOM     15  C   UNL     1      -9.518   3.508 130.796  0.00  0.00    +0.000 C 
BRANCH  15  16
ATOM     16  C   UNL     1      -9.260   2.810 132.087  0.00  0.00    +0.000 C 
BRANCH  16  17
ATOM     17  C   UNL     1      -9.702   1.355 131.985  0.00  0.00    +0.000 C 
BRANCH  17  18
ATOM     18  C   UNL     1      -8.532   0.408 131.874  0.00  0.00    +0.000 C 
ATOM     19  C   UNL     1      -8.109  -0.111 130.520  0.00  0.00    +0.000 C 
ATOM     20  O   UNL     1      -7.923   0.059 132.888  0.00  0.00    +0.000 OA
ENDBRANCH  17  18
ENDBRANCH  16  17
ENDBRANCH  15  16
ENDBRANCH  14  15
ENDBRANCH   9  14
TORSDOF 5
ENDMDL
MODEL 8
REMARK VINA RESULT:      -5.8      7.560     10.165
REMARK  Name = Pentoxifylline
REMARK  8 active torsions:
REMARK  status: ('A' for Active; 'I' for Inactive)
REMARK    1  A    between atoms: C_1  and  N_2
REMARK    2  A    between atoms: N_9  and  C_10
REMARK    3  A    between atoms: C_10  and  C_11
REMARK    4  A    between atoms: C_11  and  C_12
REMARK    5  A    between atoms: C_12  and  C_13
REMARK    6  A    between atoms: C_13  and  C_14
REMARK    7  A    between atoms: C_14  and  C_15
REMARK    8  A    between atoms: N_19  and  C_20
REMARK                            x       y       z     vdW  Elec       q    Type
REMARK                         _______ _______ _______ _____ _____    ______ ____
ROOT
ATOM      1  C   UNL     1      -7.206   4.195 134.426  0.00  0.00    +0.000 C 
ATOM      2  N   UNL     1      -7.167   3.926 133.011  0.00  0.00    +0.000 N 
ATOM      3  C   UNL     1      -6.398   2.976 132.391  0.00  0.00    +0.000 A 
ATOM      4  N   UNL     1      -6.582   2.970 131.086  0.00  0.00    +0.000 NA
ATOM      5  C   UNL     1      -7.500   3.948 130.876  0.00  0.00    +0.000 A 
ATOM      6  C   UNL     1      -7.884   4.559 132.035  0.00  0.00    +0.000 A 
ATOM      7  C   UNL     1      -8.837   5.614 132.075  0.00  0.00    +0.000 A 
ATOM      8  O   UNL     1      -9.182   6.167 133.125  0.00  0.00    +0.000 OA
ATOM      9  N   UNL     1      -9.339   5.956 130.810  0.00  0.00    +0.000 N 
ATOM     10  C   UNL     1      -8.940   5.336 129.610  0.00  0.00    +0.000 A 
ATOM     11  O   UNL     1      -9.368   5.645 128.497  0.00  0.00    +0.000 OA
ATOM     12  N   UNL     1      -8.014   4.320 129.667  0.00  0.00    +0.000 N 
ATOM     13  C   UNL     1      -7.628   3.695 128.418  0.00  0.00    +0.000 C 
ENDROOT
BRANCH   9  14
ATOM     14  C   UNL     1     -10.336   7.032 130.778  0.00  0.00    +0.000 C 
BRANCH  14  15
ATOM     15  C   UNL     1     -11.778   6.556 130.879  0.00  0.00    +0.000 C 
BRANCH  15  16
ATOM     16  C   UNL     1     -12.781   7.440 130.219  0.00  0.00    +0.000 C 
BRANCH  16  17
ATOM     17  C   UNL     1     -12.070   8.462 129.340  0.00  0.00    +0.000 C 
BRANCH  17  18
ATOM     18  C   UNL     1     -11.985   8.017 127.900  0.00  0.00    +0.000 C 
ATOM     19  C   UNL     1     -13.113   7.220 127.289  0.00  0.00    +0.000 C 
ATOM     20  O   UNL     1     -10.994   8.305 127.224  0.00  0.00    +0.000 OA
ENDBRANCH  17  18
ENDBRANCH  16  17
ENDBRANCH  15  16
ENDBRANCH  14  15
ENDBRANCH   9  14
TORSDOF 5
ENDMDL
MODEL 9
REMARK VINA RESULT:      -5.7      7.777      9.905
REMARK  Name = Pentoxifylline
REMARK  8 active torsions:
REMARK  status: ('A' for Active; 'I' for Inactive)
REMARK    1  A    between atoms: C_1  and  N_2
REMARK    2  A    between atoms: N_9  and  C_10
REMARK    3  A    between atoms: C_10  and  C_11
REMARK    4  A    between atoms: C_11  and  C_12
REMARK    5  A    between atoms: C_12  and  C_13
REMARK    6  A    between atoms: C_13  and  C_14
REMARK    7  A    between atoms: C_14  and  C_15
REMARK    8  A    between atoms: N_19  and  C_20
REMARK                            x       y       z     vdW  Elec       q    Type
REMARK                         _______ _______ _______ _____ _____    ______ ____
ROOT
ATOM      1  C   UNL     1      -7.175   1.350 129.925  0.00  0.00    +0.000 C 
ATOM      2  N   UNL     1      -7.251   2.173 131.105  0.00  0.00    +0.000 N 
ATOM      3  C   UNL     1      -6.530   2.000 132.257  0.00  0.00    +0.000 A 
ATOM      4  N   UNL     1      -6.819   2.915 133.160  0.00  0.00    +0.000 NA
ATOM      5  C   UNL     1      -7.754   3.692 132.557  0.00  0.00    +0.000 A 
ATOM      6  C   UNL     1      -8.046   3.269 131.293  0.00  0.00    +0.000 A 
ATOM      7  C   UNL     1      -8.995   3.922 130.457  0.00  0.00    +0.000 A 
ATOM      8  O   UNL     1      -9.260   3.534 129.314  0.00  0.00    +0.000 OA
ATOM      9  N   UNL     1      -9.590   5.038 131.062  0.00  0.00    +0.000 N 
ATOM     10  C   UNL     1      -9.300   5.475 132.369  0.00  0.00    +0.000 A 
ATOM     11  O   UNL     1      -9.833   6.446 132.908  0.00  0.00    +0.000 OA
ATOM     12  N   UNL     1      -8.365   4.784 133.104  0.00  0.00    +0.000 N 
ATOM     13  C   UNL     1      -8.080   5.261 134.443  0.00  0.00    +0.000 C 
ENDROOT
BRANCH   9  14
ATOM     14  C   UNL     1     -10.572   5.766 130.252  0.00  0.00    +0.000 C 
BRANCH  14  15
ATOM     15  C   UNL     1     -10.019   6.995 129.546  0.00  0.00    +0.000 C 
BRANCH  15  16
ATOM     16  C   UNL     1     -11.006   8.087 129.311  0.00  0.00    +0.000 C 
BRANCH  16  17
ATOM     17  C   UNL     1     -11.197   8.297 127.814  0.00  0.00    +0.000 C 
BRANCH  17  18
ATOM     18  C   UNL     1     -12.201   7.336 127.225  0.00  0.00    +0.000 C 
ATOM     19  C   UNL     1     -13.523   7.108 127.919  0.00  0.00    +0.000 C 
ATOM     20  O   UNL     1     -11.941   6.739 126.177  0.00  0.00    +0.000 OA
ENDBRANCH  17  18
ENDBRANCH  16  17
ENDBRANCH  15  16
ENDBRANCH  14  15
ENDBRANCH   9  14
TORSDOF 5
ENDMDL
