MODEL 1
REMARK VINA RESULT:      -4.2      0.000      0.000
REMARK  Name = Pentafluoropropane
REMARK  2 active torsions:
REMARK  status: ('A' for Active; 'I' for Inactive)
REMARK    1  A    between atoms: C_2  and  C_4
REMARK    2  A    between atoms: C_4  and  C_5
REMARK                            x       y       z     vdW  Elec       q    Type
REMARK                         _______ _______ _______ _____ _____    ______ ____
ROOT
ATOM      1  C   UNL     1     -12.274   7.883 128.046  0.00  0.00    +0.000 C 
ENDROOT
BRANCH   1   2
ATOM      2  C   UNL     1     -10.885   7.971 127.498  0.00  0.00    +0.000 C 
ATOM      3  F   UNL     1     -10.199   6.832 127.729  0.00  0.00    +0.000 F 
ATOM      4  F   UNL     1     -10.868   8.209 126.173  0.00  0.00    +0.000 F 
ATOM      5  F   UNL     1     -10.209   8.977 128.099  0.00  0.00    +0.000 F 
ENDBRANCH   1   2
BRANCH   1   7
ATOM      6  F   UNL     1     -13.664   9.709 128.408  0.00  0.00    +0.000 F 
ATOM      7  C   UNL     1     -12.542   9.101 128.878  0.00  0.00    +0.000 C 
ATOM      8  F   UNL     1     -12.812   8.750 130.157  0.00  0.00    +0.000 F 
ENDBRANCH   1   7
TORSDOF 2
ENDMDL
MODEL 2
REMARK VINA RESULT:      -4.2      1.229      3.313
REMARK  Name = Pentafluoropropane
REMARK  2 active torsions:
REMARK  status: ('A' for Active; 'I' for Inactive)
REMARK    1  A    between atoms: C_2  and  C_4
REMARK    2  A    between atoms: C_4  and  C_5
REMARK                            x       y       z     vdW  Elec       q    Type
REMARK                         _______ _______ _______ _____ _____    ______ ____
ROOT
ATOM      1  C   UNL     1     -12.287   8.764 128.417  0.00  0.00    +0.000 C 
ENDROOT
BRANCH   1   2
ATOM      2  C   UNL     1     -12.529   8.202 129.782  0.00  0.00    +0.000 C 
ATOM      3  F   UNL     1     -11.397   7.678 130.299  0.00  0.00    +0.000 F 
ATOM      4  F   UNL     1     -12.995   9.124 130.644  0.00  0.00    +0.000 F 
ATOM      5  F   UNL     1     -13.443   7.206 129.721  0.00  0.00    +0.000 F 
ENDBRANCH   1   2
BRANCH   1   7
ATOM      6  F   UNL     1     -11.037   8.237 126.532  0.00  0.00    +0.000 F 
ATOM      7  C   UNL     1     -10.997   8.211 127.891  0.00  0.00    +0.000 C 
ATOM      8  F   UNL     1      -9.960   9.003 128.251  0.00  0.00    +0.000 F 
ENDBRANCH   1   7
TORSDOF 2
ENDMDL
MODEL 3
REMARK VINA RESULT:      -4.1      1.915      3.017
REMARK  Name = Pentafluoropropane
REMARK  2 active torsions:
REMARK  status: ('A' for Active; 'I' for Inactive)
REMARK    1  A    between atoms: C_2  and  C_4
REMARK    2  A    between atoms: C_4  and  C_5
REMARK                            x       y       z     vdW  Elec       q    Type
REMARK                         _______ _______ _______ _____ _____    ______ ____
ROOT
ATOM      1  C   UNL     1     -11.835   7.837 129.933  0.00  0.00    +0.000 C 
ENDROOT
BRANCH   1   2
ATOM      2  C   UNL     1     -12.541   8.670 128.910  0.00  0.00    +0.000 C 
ATOM      3  F   UNL     1     -11.786   8.817 127.801  0.00  0.00    +0.000 F 
ATOM      4  F   UNL     1     -13.724   8.144 128.545  0.00  0.00    +0.000 F 
ATOM      5  F   UNL     1     -12.781   9.907 129.401  0.00  0.00    +0.000 F 
ENDBRANCH   1   2
BRANCH   1   7
ATOM      6  F   UNL     1     -12.286   6.269 131.587  0.00  0.00    +0.000 F 
ATOM      7  C   UNL     1     -12.848   7.297 130.897  0.00  0.00    +0.000 C 
ATOM      8  F   UNL     1     -13.170   8.236 131.818  0.00  0.00    +0.000 F 
ENDBRANCH   1   7
TORSDOF 2
ENDMDL
MODEL 4
REMARK VINA RESULT:      -4.1      1.946      3.145
REMARK  Name = Pentafluoropropane
REMARK  2 active torsions:
REMARK  status: ('A' for Active; 'I' for Inactive)
REMARK    1  A    between atoms: C_2  and  C_4
REMARK    2  A    between atoms: C_4  and  C_5
REMARK                            x       y       z     vdW  Elec       q    Type
REMARK                         _______ _______ _______ _____ _____    ______ ____
ROOT
ATOM      1  C   UNL     1     -11.727   7.829 130.050  0.00  0.00    +0.000 C 
ENDROOT
BRANCH   1   2
ATOM      2  C   UNL     1     -12.374   8.651 128.981  0.00  0.00    +0.000 C 
ATOM      3  F   UNL     1     -12.731   9.864 129.452  0.00  0.00    +0.000 F 
ATOM      4  F   UNL     1     -11.572   8.835 127.916  0.00  0.00    +0.000 F 
ATOM      5  F   UNL     1     -13.499   8.042 128.541  0.00  0.00    +0.000 F 
ENDBRANCH   1   2
BRANCH   1   7
ATOM      6  F   UNL     1     -12.271   6.218 131.633  0.00  0.00    +0.000 F 
ATOM      7  C   UNL     1     -12.796   7.260 130.934  0.00  0.00    +0.000 C 
ATOM      8  F   UNL     1     -13.183   8.174 131.855  0.00  0.00    +0.000 F 
ENDBRANCH   1   7
TORSDOF 2
ENDMDL
MODEL 5
REMARK VINA RESULT:      -4.0      1.675      3.472
REMARK  Name = Pentafluoropropane
REMARK  2 active torsions:
REMARK  status: ('A' for Active; 'I' for Inactive)
REMARK    1  A    between atoms: C_2  and  C_4
REMARK    2  A    between atoms: C_4  and  C_5
REMARK                            x       y       z     vdW  Elec       q    Type
REMARK                         _______ _______ _______ _____ _____    ______ ____
ROOT
ATOM      1  C   UNL     1     -13.279   7.289 128.898  0.00  0.00    +0.000 C 
ENDROOT
BRANCH   1   2
ATOM      2  C   UNL     1     -12.717   7.851 130.165  0.00  0.00    +0.000 C 
ATOM      3  F   UNL     1     -12.881   9.190 130.216  0.00  0.00    +0.000 F 
ATOM      4  F   UNL     1     -13.286   7.318 131.262  0.00  0.00    +0.000 F 
ATOM      5  F   UNL     1     -11.389   7.604 130.236  0.00  0.00    +0.000 F 
ENDBRANCH   1   2
BRANCH   1   7
ATOM      6  F   UNL     1     -12.717   6.772 126.704  0.00  0.00    +0.000 F 
ATOM      7  C   UNL     1     -12.211   7.309 127.847  0.00  0.00    +0.000 C 
ATOM      8  F   UNL     1     -11.870   8.583 127.544  0.00  0.00    +0.000 F 
ENDBRANCH   1   7
TORSDOF 2
ENDMDL
MODEL 6
REMARK VINA RESULT:      -4.0     11.616     12.655
REMARK  Name = Pentafluoropropane
REMARK  2 active torsions:
REMARK  status: ('A' for Active; 'I' for Inactive)
REMARK    1  A    between atoms: C_2  and  C_4
REMARK    2  A    between atoms: C_4  and  C_5
REMARK                            x       y       z     vdW  Elec       q    Type
REMARK                         _______ _______ _______ _____ _____    ______ ____
ROOT
ATOM      1  C   UNL     1      -8.476  -3.785 124.769  0.00  0.00    +0.000 C 
ENDROOT
BRANCH   1   2
ATOM      2  C   UNL     1      -8.725  -3.133 126.093  0.00  0.00    +0.000 C 
ATOM      3  F   UNL     1      -9.063  -4.048 127.027  0.00  0.00    +0.000 F 
ATOM      4  F   UNL     1      -7.655  -2.452 126.541  0.00  0.00    +0.000 F 
ATOM      5  F   UNL     1      -9.752  -2.258 125.996  0.00  0.00    +0.000 F 
ENDBRANCH   1   2
BRANCH   1   7
ATOM      6  F   UNL     1      -8.419  -2.732 122.699  0.00  0.00    +0.000 F 
ATOM      7  C   UNL     1      -9.259  -3.056 123.719  0.00  0.00    +0.000 C 
ATOM      8  F   UNL     1     -10.202  -3.867 123.185  0.00  0.00    +0.000 F 
ENDBRANCH   1   7
TORSDOF 2
ENDMDL
MODEL 7
REMARK VINA RESULT:      -4.0     11.856     12.836
REMARK  Name = Pentafluoropropane
REMARK  2 active torsions:
REMARK  status: ('A' for Active; 'I' for Inactive)
REMARK    1  A    between atoms: C_2  and  C_4
REMARK    2  A    between atoms: C_4  and  C_5
REMARK                            x       y       z     vdW  Elec       q    Type
REMARK                         _______ _______ _______ _____ _____    ______ ____
ROOT
ATOM      1  C   UNL     1      -8.285  -2.168 122.728  0.00  0.00    +0.000 C 
ENDROOT
BRANCH   1   2
ATOM      2  C   UNL     1      -8.971  -3.056 123.717  0.00  0.00    +0.000 C 
ATOM      3  F   UNL     1      -9.388  -2.353 124.792  0.00  0.00    +0.000 F 
ATOM      4  F   UNL     1     -10.036  -3.688 123.191  0.00  0.00    +0.000 F 
ATOM      5  F   UNL     1      -8.117  -4.005 124.164  0.00  0.00    +0.000 F 
ENDBRANCH   1   2
BRANCH   1   7
ATOM      6  F   UNL     1      -6.087  -2.079 121.980  0.00  0.00    +0.000 F 
ATOM      7  C   UNL     1      -6.841  -2.045 123.112  0.00  0.00    +0.000 C 
ATOM      8  F   UNL     1      -6.605  -0.841 123.684  0.00  0.00    +0.000 F 
ENDBRANCH   1   7
TORSDOF 2
ENDMDL
MODEL 8
REMARK VINA RESULT:      -3.8      2.124      3.142
REMARK  Name = Pentafluoropropane
REMARK  2 active torsions:
REMARK  status: ('A' for Active; 'I' for Inactive)
REMARK    1  A    between atoms: C_2  and  C_4
REMARK    2  A    between atoms: C_4  and  C_5
REMARK                            x       y       z     vdW  Elec       q    Type
REMARK                         _______ _______ _______ _____ _____    ______ ____
ROOT
ATOM      1  C   UNL     1     -12.121   8.401 129.542  0.00  0.00    +0.000 C 
ENDROOT
BRANCH   1   2
ATOM      2  C   UNL     1     -12.293   7.187 130.399  0.00  0.00    +0.000 C 
ATOM      3  F   UNL     1     -13.356   7.320 131.220  0.00  0.00    +0.000 F 
ATOM      4  F   UNL     1     -12.460   6.065 129.675  0.00  0.00    +0.000 F 
ATOM      5  F   UNL     1     -11.202   7.007 131.178  0.00  0.00    +0.000 F 
ENDBRANCH   1   2
BRANCH   1   7
ATOM      6  F   UNL     1     -13.526   9.799 128.332  0.00  0.00    +0.000 F 
ATOM      7  C   UNL     1     -13.278   8.488 128.593  0.00  0.00    +0.000 C 
ATOM      8  F   UNL     1     -12.958   7.923 127.405  0.00  0.00    +0.000 F 
ENDBRANCH   1   7
TORSDOF 2
ENDMDL
MODEL 9
REMARK VINA RESULT:      -3.8     12.156     13.203
REMARK  Name = Pentafluoropropane
REMARK  2 active torsions:
REMARK  status: ('A' for Active; 'I' for Inactive)
REMARK    1  A    between atoms: C_2  and  C_4
REMARK    2  A    between atoms: C_4  and  C_5
REMARK                            x       y       z     vdW  Elec       q    Type
REMARK                         _______ _______ _______ _____ _____    ______ ____
ROOT
ATOM      1  C   UNL     1      -7.795  -2.606 123.612  0.00  0.00    +0.000 C 
ENDROOT
BRANCH   1   2
ATOM      2  C   UNL     1      -8.913  -3.378 124.238  0.00  0.00    +0.000 C 
ATOM      3  F   UNL     1      -9.505  -2.665 125.219  0.00  0.00    +0.000 F 
ATOM      4  F   UNL     1      -9.858  -3.731 123.347  0.00  0.00    +0.000 F 
ATOM      5  F   UNL     1      -8.438  -4.515 124.797  0.00  0.00    +0.000 F 
ENDBRANCH   1   2
BRANCH   1   7
ATOM      6  F   UNL     1      -5.808  -3.799 123.767  0.00  0.00    +0.000 F 
ATOM      7  C   UNL     1      -6.543  -2.846 124.400  0.00  0.00    +0.000 C 
ATOM      8  F   UNL     1      -5.776  -1.731 124.419  0.00  0.00    +0.000 F 
ENDBRANCH   1   7
TORSDOF 2
ENDMDL
