MODEL 1
REMARK VINA RESULT:      -6.2      0.000      0.000
REMARK  Name = Pentobarbital
REMARK  7 active torsions:
REMARK  status: ('A' for Active; 'I' for Inactive)
REMARK    1  A    between atoms: C_1  and  C_2
REMARK    2  A    between atoms: C_2  and  C_3
REMARK    3  A    between atoms: C_3  and  C_4
REMARK    4  A    between atoms: C_4  and  C_5
REMARK    5  A    between atoms: C_4  and  C_6
REMARK    6  A    between atoms: C_6  and  C_7
REMARK    7  A    between atoms: C_7  and  C_8
REMARK                            x       y       z     vdW  Elec       q    Type
REMARK                         _______ _______ _______ _____ _____    ______ ____
ROOT
ATOM      1  C   UNL     1      -9.809   6.472 130.349  0.00  0.00    +0.000 C 
ATOM      2  C   UNL     1      -9.354   5.328 129.403  0.00  0.00    +0.000 C 
ATOM      3  O   UNL     1      -8.966   5.490 128.245  0.00  0.00    +0.000 OA
ATOM      4  N   UNL     1      -9.089   4.139 130.041  0.00  0.00    +0.000 N 
ATOM      5  C   UNL     1      -9.881   3.656 131.032  0.00  0.00    +0.000 C 
ATOM      6  O   UNL     1      -9.797   2.507 131.436  0.00  0.00    +0.000 OA
ATOM      7  N   UNL     1     -10.752   4.552 131.555  0.00  0.00    +0.000 N 
ATOM      8  C   UNL     1     -10.316   5.845 131.666  0.00  0.00    +0.000 C 
ATOM      9  O   UNL     1     -10.498   6.456 132.720  0.00  0.00    +0.000 OA
ATOM     10  H   UNL     1      -8.485   3.470 129.583  0.00  0.00    +0.000 HD
ATOM     11  H   UNL     1     -11.235   4.191 132.368  0.00  0.00    +0.000 HD
ENDROOT
BRANCH   1  12
ATOM     12  C   UNL     1     -10.961   7.501 129.915  0.00  0.00    +0.000 C 
ATOM     13  C   UNL     1     -12.373   6.885 129.682  0.00  0.00    +0.000 C 
BRANCH  12  14
ATOM     14  C   UNL     1     -10.582   8.355 128.706  0.00  0.00    +0.000 C 
BRANCH  14  16
ATOM     15  C   UNL     1     -10.969   7.632 126.340  0.00  0.00    +0.000 C 
ATOM     16  C   UNL     1     -11.602   8.218 127.573  0.00  0.00    +0.000 C 
ENDBRANCH  14  16
ENDBRANCH  12  14
ENDBRANCH   1  12
BRANCH   1  17
ATOM     17  C   UNL     1      -8.466   7.298 130.350  0.00  0.00    +0.000 C 
ATOM     18  C   UNL     1      -7.351   6.790 131.278  0.00  0.00    +0.000 C 
ENDBRANCH   1  17
TORSDOF 4
ENDMDL
MODEL 2
REMARK VINA RESULT:      -6.1      8.819     10.715
REMARK  Name = Pentobarbital
REMARK  7 active torsions:
REMARK  status: ('A' for Active; 'I' for Inactive)
REMARK    1  A    between atoms: C_1  and  C_2
REMARK    2  A    between atoms: C_2  and  C_3
REMARK    3  A    between atoms: C_3  and  C_4
REMARK    4  A    between atoms: C_4  and  C_5
REMARK    5  A    between atoms: C_4  and  C_6
REMARK    6  A    between atoms: C_6  and  C_7
REMARK    7  A    between atoms: C_7  and  C_8
REMARK                            x       y       z     vdW  Elec       q    Type
REMARK                         _______ _______ _______ _____ _____    ______ ____
ROOT
ATOM      1  C   UNL     1      -7.952  -1.676 124.319  0.00  0.00    +0.000 C 
ATOM      2  C   UNL     1      -7.499  -0.387 123.581  0.00  0.00    +0.000 C 
ATOM      3  O   UNL     1      -6.617  -0.346 122.722  0.00  0.00    +0.000 OA
ATOM      4  N   UNL     1      -8.373   0.667 123.700  0.00  0.00    +0.000 N 
ATOM      5  C   UNL     1      -8.984   0.975 124.872  0.00  0.00    +0.000 C 
ATOM      6  O   UNL     1      -9.565   2.033 125.050  0.00  0.00    +0.000 OA
ATOM      7  N   UNL     1      -8.921   0.007 125.819  0.00  0.00    +0.000 N 
ATOM      8  C   UNL     1      -8.999  -1.288 125.385  0.00  0.00    +0.000 C 
ATOM      9  O   UNL     1      -9.753  -2.075 125.960  0.00  0.00    +0.000 OA
ATOM     10  H   UNL     1      -8.339   1.401 123.005  0.00  0.00    +0.000 HD
ATOM     11  H   UNL     1      -9.490   0.223 126.628  0.00  0.00    +0.000 HD
ENDROOT
BRANCH   1  12
ATOM     12  C   UNL     1      -6.898  -2.603 125.097  0.00  0.00    +0.000 C 
ATOM     13  C   UNL     1      -5.746  -1.855 125.832  0.00  0.00    +0.000 C 
BRANCH  12  14
ATOM     14  C   UNL     1      -6.302  -3.704 124.222  0.00  0.00    +0.000 C 
BRANCH  14  16
ATOM     15  C   UNL     1      -4.088  -4.637 123.514  0.00  0.00    +0.000 C 
ATOM     16  C   UNL     1      -4.865  -3.381 123.804  0.00  0.00    +0.000 C 
ENDBRANCH  14  16
ENDBRANCH  12  14
ENDBRANCH   1  12
BRANCH   1  17
ATOM     17  C   UNL     1      -8.403  -2.502 123.052  0.00  0.00    +0.000 C 
ATOM     18  C   UNL     1      -9.711  -3.299 123.186  0.00  0.00    +0.000 C 
ENDBRANCH   1  17
TORSDOF 4
ENDMDL
MODEL 3
REMARK VINA RESULT:      -5.8      8.436     10.309
REMARK  Name = Pentobarbital
REMARK  7 active torsions:
REMARK  status: ('A' for Active; 'I' for Inactive)
REMARK    1  A    between atoms: C_1  and  C_2
REMARK    2  A    between atoms: C_2  and  C_3
REMARK    3  A    between atoms: C_3  and  C_4
REMARK    4  A    between atoms: C_4  and  C_5
REMARK    5  A    between atoms: C_4  and  C_6
REMARK    6  A    between atoms: C_6  and  C_7
REMARK    7  A    between atoms: C_7  and  C_8
REMARK                            x       y       z     vdW  Elec       q    Type
REMARK                         _______ _______ _______ _____ _____    ______ ____
ROOT
ATOM      1  C   UNL     1      -7.199  -1.136 125.027  0.00  0.00    +0.000 C 
ATOM      2  C   UNL     1      -8.722  -1.091 124.730  0.00  0.00    +0.000 C 
ATOM      3  O   UNL     1      -9.405  -2.070 124.423  0.00  0.00    +0.000 OA
ATOM      4  N   UNL     1      -9.346   0.058 125.157  0.00  0.00    +0.000 N 
ATOM      5  C   UNL     1      -8.791   1.286 125.000  0.00  0.00    +0.000 C 
ATOM      6  O   UNL     1      -9.427   2.316 125.153  0.00  0.00    +0.000 OA
ATOM      7  N   UNL     1      -7.472   1.280 124.689  0.00  0.00    +0.000 N 
ATOM      8  C   UNL     1      -6.705   0.306 125.268  0.00  0.00    +0.000 C 
ATOM      9  O   UNL     1      -5.627   0.611 125.783  0.00  0.00    +0.000 OA
ATOM     10  H   UNL     1     -10.345   0.033 125.314  0.00  0.00    +0.000 HD
ATOM     11  H   UNL     1      -7.069   2.208 124.702  0.00  0.00    +0.000 HD
ENDROOT
BRANCH   1  12
ATOM     12  C   UNL     1      -6.163  -1.753 123.967  0.00  0.00    +0.000 C 
ATOM     13  C   UNL     1      -6.607  -1.704 122.474  0.00  0.00    +0.000 C 
BRANCH  12  14
ATOM     14  C   UNL     1      -5.722  -3.174 124.311  0.00  0.00    +0.000 C 
BRANCH  14  16
ATOM     15  C   UNL     1      -4.296  -5.051 123.468  0.00  0.00    +0.000 C 
ATOM     16  C   UNL     1      -4.427  -3.557 123.591  0.00  0.00    +0.000 C 
ENDBRANCH  14  16
ENDBRANCH  12  14
ENDBRANCH   1  12
BRANCH   1  17
ATOM     17  C   UNL     1      -7.244  -2.153 126.231  0.00  0.00    +0.000 C 
ATOM     18  C   UNL     1      -7.547  -1.560 127.617  0.00  0.00    +0.000 C 
ENDBRANCH   1  17
TORSDOF 4
ENDMDL
MODEL 4
REMARK VINA RESULT:      -5.6      7.928      9.952
REMARK  Name = Pentobarbital
REMARK  7 active torsions:
REMARK  status: ('A' for Active; 'I' for Inactive)
REMARK    1  A    between atoms: C_1  and  C_2
REMARK    2  A    between atoms: C_2  and  C_3
REMARK    3  A    between atoms: C_3  and  C_4
REMARK    4  A    between atoms: C_4  and  C_5
REMARK    5  A    between atoms: C_4  and  C_6
REMARK    6  A    between atoms: C_6  and  C_7
REMARK    7  A    between atoms: C_7  and  C_8
REMARK                            x       y       z     vdW  Elec       q    Type
REMARK                         _______ _______ _______ _____ _____    ______ ____
ROOT
ATOM      1  C   UNL     1      -7.711   0.104 124.262  0.00  0.00    +0.000 C 
ATOM      2  C   UNL     1      -8.957   0.127 123.337  0.00  0.00    +0.000 C 
ATOM      3  O   UNL     1      -9.706  -0.833 123.149  0.00  0.00    +0.000 OA
ATOM      4  N   UNL     1      -9.379   1.388 122.989  0.00  0.00    +0.000 N 
ATOM      5  C   UNL     1      -8.512   2.375 122.649  0.00  0.00    +0.000 C 
ATOM      6  O   UNL     1      -8.875   3.411 122.115  0.00  0.00    +0.000 OA
ATOM      7  N   UNL     1      -7.218   2.134 122.972  0.00  0.00    +0.000 N 
ATOM      8  C   UNL     1      -6.988   1.463 124.142  0.00  0.00    +0.000 C 
ATOM      9  O   UNL     1      -6.132   1.884 124.922  0.00  0.00    +0.000 OA
ATOM     10  H   UNL     1     -10.337   1.510 122.690  0.00  0.00    +0.000 HD
ATOM     11  H   UNL     1      -6.626   2.939 122.815  0.00  0.00    +0.000 HD
ENDROOT
BRANCH   1  12
ATOM     12  C   UNL     1      -6.555  -0.993 124.074  0.00  0.00    +0.000 C 
ATOM     13  C   UNL     1      -6.396  -1.575 122.637  0.00  0.00    +0.000 C 
BRANCH  12  14
ATOM     14  C   UNL     1      -6.647  -2.144 125.073  0.00  0.00    +0.000 C 
BRANCH  14  16
ATOM     15  C   UNL     1      -8.385  -3.932 124.832  0.00  0.00    +0.000 C 
ATOM     16  C   UNL     1      -7.026  -3.460 124.389  0.00  0.00    +0.000 C 
ENDBRANCH  14  16
ENDBRANCH  12  14
ENDBRANCH   1  12
BRANCH   1  17
ATOM     17  C   UNL     1      -8.447  -0.268 125.606  0.00  0.00    +0.000 C 
ATOM     18  C   UNL     1      -9.056   0.900 126.399  0.00  0.00    +0.000 C 
ENDBRANCH   1  17
TORSDOF 4
ENDMDL
MODEL 5
REMARK VINA RESULT:      -5.6      2.074      3.611
REMARK  Name = Pentobarbital
REMARK  7 active torsions:
REMARK  status: ('A' for Active; 'I' for Inactive)
REMARK    1  A    between atoms: C_1  and  C_2
REMARK    2  A    between atoms: C_2  and  C_3
REMARK    3  A    between atoms: C_3  and  C_4
REMARK    4  A    between atoms: C_4  and  C_5
REMARK    5  A    between atoms: C_4  and  C_6
REMARK    6  A    between atoms: C_6  and  C_7
REMARK    7  A    between atoms: C_7  and  C_8
REMARK                            x       y       z     vdW  Elec       q    Type
REMARK                         _______ _______ _______ _____ _____    ______ ____
ROOT
ATOM      1  C   UNL     1     -11.175   6.358 130.131  0.00  0.00    +0.000 C 
ATOM      2  C   UNL     1     -10.578   6.467 131.560  0.00  0.00    +0.000 C 
ATOM      3  O   UNL     1     -11.218   6.303 132.599  0.00  0.00    +0.000 OA
ATOM      4  N   UNL     1      -9.204   6.430 131.602  0.00  0.00    +0.000 N 
ATOM      5  C   UNL     1      -8.433   7.098 130.708  0.00  0.00    +0.000 C 
ATOM      6  O   UNL     1      -7.235   7.268 130.874  0.00  0.00    +0.000 OA
ATOM      7  N   UNL     1      -9.088   7.539 129.607  0.00  0.00    +0.000 N 
ATOM      8  C   UNL     1     -10.077   6.734 129.112  0.00  0.00    +0.000 C 
ATOM      9  O   UNL     1     -10.120   6.501 127.903  0.00  0.00    +0.000 OA
ATOM     10  H   UNL     1      -8.756   6.158 132.467  0.00  0.00    +0.000 HD
ATOM     11  H   UNL     1      -8.459   7.922 128.912  0.00  0.00    +0.000 HD
ENDROOT
BRANCH   1  12
ATOM     12  C   UNL     1     -12.453   7.225 129.694  0.00  0.00    +0.000 C 
ATOM     13  C   UNL     1     -13.238   6.703 128.454  0.00  0.00    +0.000 C 
BRANCH  12  14
ATOM     14  C   UNL     1     -12.138   8.707 129.500  0.00  0.00    +0.000 C 
BRANCH  14  16
ATOM     15  C   UNL     1     -13.565  10.764 129.506  0.00  0.00    +0.000 C 
ATOM     16  C   UNL     1     -13.294   9.450 128.825  0.00  0.00    +0.000 C 
ENDBRANCH  14  16
ENDBRANCH  12  14
ENDBRANCH   1  12
BRANCH   1  17
ATOM     17  C   UNL     1     -11.674   4.864 130.218  0.00  0.00    +0.000 C 
ATOM     18  C   UNL     1     -10.585   3.782 130.282  0.00  0.00    +0.000 C 
ENDBRANCH   1  17
TORSDOF 4
ENDMDL
MODEL 6
REMARK VINA RESULT:      -5.5      6.953      8.702
REMARK  Name = Pentobarbital
REMARK  7 active torsions:
REMARK  status: ('A' for Active; 'I' for Inactive)
REMARK    1  A    between atoms: C_1  and  C_2
REMARK    2  A    between atoms: C_2  and  C_3
REMARK    3  A    between atoms: C_3  and  C_4
REMARK    4  A    between atoms: C_4  and  C_5
REMARK    5  A    between atoms: C_4  and  C_6
REMARK    6  A    between atoms: C_6  and  C_7
REMARK    7  A    between atoms: C_7  and  C_8
REMARK                            x       y       z     vdW  Elec       q    Type
REMARK                         _______ _______ _______ _____ _____    ______ ____
ROOT
ATOM      1  C   UNL     1      -7.304   1.980 124.139  0.00  0.00    +0.000 C 
ATOM      2  C   UNL     1      -8.678   2.666 124.368  0.00  0.00    +0.000 C 
ATOM      3  O   UNL     1      -8.841   3.712 124.998  0.00  0.00    +0.000 OA
ATOM      4  N   UNL     1      -9.678   2.216 123.539  0.00  0.00    +0.000 N 
ATOM      5  C   UNL     1      -9.842   0.901 123.247  0.00  0.00    +0.000 C 
ATOM      6  O   UNL     1     -10.852   0.469 122.716  0.00  0.00    +0.000 OA
ATOM      7  N   UNL     1      -8.788   0.111 123.565  0.00  0.00    +0.000 N 
ATOM      8  C   UNL     1      -7.540   0.647 123.397  0.00  0.00    +0.000 C 
ATOM      9  O   UNL     1      -6.670  -0.013 122.827  0.00  0.00    +0.000 OA
ATOM     10  H   UNL     1     -10.478   2.814 123.382  0.00  0.00    +0.000 HD
ATOM     11  H   UNL     1      -8.898  -0.835 123.222  0.00  0.00    +0.000 HD
ENDROOT
BRANCH   1  12
ATOM     12  C   UNL     1      -6.348   1.600 125.370  0.00  0.00    +0.000 C 
ATOM     13  C   UNL     1      -7.068   1.151 126.677  0.00  0.00    +0.000 C 
BRANCH  12  14
ATOM     14  C   UNL     1      -5.335   2.692 125.707  0.00  0.00    +0.000 C 
BRANCH  14  16
ATOM     15  C   UNL     1      -3.040   2.898 126.687  0.00  0.00    +0.000 C 
ATOM     16  C   UNL     1      -4.398   2.268 126.841  0.00  0.00    +0.000 C 
ENDBRANCH  14  16
ENDBRANCH  12  14
ENDBRANCH   1  12
BRANCH   1  17
ATOM     17  C   UNL     1      -6.591   3.170 123.388  0.00  0.00    +0.000 C 
ATOM     18  C   UNL     1      -6.787   3.233 121.865  0.00  0.00    +0.000 C 
ENDBRANCH   1  17
TORSDOF 4
ENDMDL
MODEL 7
REMARK VINA RESULT:      -5.4      8.172     10.184
REMARK  Name = Pentobarbital
REMARK  7 active torsions:
REMARK  status: ('A' for Active; 'I' for Inactive)
REMARK    1  A    between atoms: C_1  and  C_2
REMARK    2  A    between atoms: C_2  and  C_3
REMARK    3  A    between atoms: C_3  and  C_4
REMARK    4  A    between atoms: C_4  and  C_5
REMARK    5  A    between atoms: C_4  and  C_6
REMARK    6  A    between atoms: C_6  and  C_7
REMARK    7  A    between atoms: C_7  and  C_8
REMARK                            x       y       z     vdW  Elec       q    Type
REMARK                         _______ _______ _______ _____ _____    ______ ____
ROOT
ATOM      1  C   UNL     1      -8.147  -1.785 125.720  0.00  0.00    +0.000 C 
ATOM      2  C   UNL     1      -6.768  -1.824 125.007  0.00  0.00    +0.000 C 
ATOM      3  O   UNL     1      -5.909  -2.688 125.192  0.00  0.00    +0.000 OA
ATOM      4  N   UNL     1      -6.683  -1.017 123.897  0.00  0.00    +0.000 N 
ATOM      5  C   UNL     1      -7.202   0.237 123.871  0.00  0.00    +0.000 C 
ATOM      6  O   UNL     1      -6.929   1.040 122.992  0.00  0.00    +0.000 OA
ATOM      7  N   UNL     1      -8.064   0.519 124.877  0.00  0.00    +0.000 N 
ATOM      8  C   UNL     1      -8.882  -0.496 125.293  0.00  0.00    +0.000 C 
ATOM      9  O   UNL     1     -10.084  -0.278 125.452  0.00  0.00    +0.000 OA
ATOM     10  H   UNL     1      -5.980  -1.227 123.202  0.00  0.00    +0.000 HD
ATOM     11  H   UNL     1      -8.520   1.414 124.754  0.00  0.00    +0.000 HD
ENDROOT
BRANCH   1  12
ATOM     12  C   UNL     1      -8.258  -1.809 127.320  0.00  0.00    +0.000 C 
ATOM     13  C   UNL     1      -7.321  -0.824 128.082  0.00  0.00    +0.000 C 
BRANCH  12  14
ATOM     14  C   UNL     1      -8.102  -3.208 127.914  0.00  0.00    +0.000 C 
BRANCH  14  16
ATOM     15  C   UNL     1      -6.775  -3.865 129.934  0.00  0.00    +0.000 C 
ATOM     16  C   UNL     1      -8.016  -3.170 129.442  0.00  0.00    +0.000 C 
ENDBRANCH  14  16
ENDBRANCH  12  14
ENDBRANCH   1  12
BRANCH   1  17
ATOM     17  C   UNL     1      -8.684  -3.184 125.226  0.00  0.00    +0.000 C 
ATOM     18  C   UNL     1      -9.304  -3.221 123.820  0.00  0.00    +0.000 C 
ENDBRANCH   1  17
TORSDOF 4
ENDMDL
MODEL 8
REMARK VINA RESULT:      -5.4      1.780      3.392
REMARK  Name = Pentobarbital
REMARK  7 active torsions:
REMARK  status: ('A' for Active; 'I' for Inactive)
REMARK    1  A    between atoms: C_1  and  C_2
REMARK    2  A    between atoms: C_2  and  C_3
REMARK    3  A    between atoms: C_3  and  C_4
REMARK    4  A    between atoms: C_4  and  C_5
REMARK    5  A    between atoms: C_4  and  C_6
REMARK    6  A    between atoms: C_6  and  C_7
REMARK    7  A    between atoms: C_7  and  C_8
REMARK                            x       y       z     vdW  Elec       q    Type
REMARK                         _______ _______ _______ _____ _____    ______ ____
ROOT
ATOM      1  C   UNL     1     -10.018   5.707 130.363  0.00  0.00    +0.000 C 
ATOM      2  C   UNL     1     -10.012   6.209 131.832  0.00  0.00    +0.000 C 
ATOM      3  O   UNL     1     -11.020   6.511 132.472  0.00  0.00    +0.000 OA
ATOM      4  N   UNL     1      -8.832   5.982 132.501  0.00  0.00    +0.000 N 
ATOM      5  C   UNL     1      -7.621   6.178 131.921  0.00  0.00    +0.000 C 
ATOM      6  O   UNL     1      -6.585   6.211 132.566  0.00  0.00    +0.000 OA
ATOM      7  N   UNL     1      -7.647   6.307 130.573  0.00  0.00    +0.000 N 
ATOM      8  C   UNL     1      -8.556   5.540 129.897  0.00  0.00    +0.000 C 
ATOM      9  O   UNL     1      -8.196   4.916 128.897  0.00  0.00    +0.000 OA
ATOM     10  H   UNL     1      -8.848   5.959 133.511  0.00  0.00    +0.000 HD
ATOM     11  H   UNL     1      -6.719   6.328 130.170  0.00  0.00    +0.000 HD
ENDROOT
BRANCH   1  12
ATOM     12  C   UNL     1     -10.726   6.554 129.197  0.00  0.00    +0.000 C 
ATOM     13  C   UNL     1     -10.317   8.055 129.103  0.00  0.00    +0.000 C 
BRANCH  12  14
ATOM     14  C   UNL     1     -12.249   6.451 129.216  0.00  0.00    +0.000 C 
BRANCH  14  16
ATOM     15  C   UNL     1     -13.815   7.732 127.741  0.00  0.00    +0.000 C 
ATOM     16  C   UNL     1     -12.914   7.803 128.945  0.00  0.00    +0.000 C 
ENDBRANCH  14  16
ENDBRANCH  12  14
ENDBRANCH   1  12
BRANCH   1  17
ATOM     17  C   UNL     1     -10.917   4.428 130.576  0.00  0.00    +0.000 C 
ATOM     18  C   UNL     1     -10.177   3.116 130.882  0.00  0.00    +0.000 C 
ENDBRANCH   1  17
TORSDOF 4
ENDMDL
MODEL 9
REMARK VINA RESULT:      -5.4      7.965     10.040
REMARK  Name = Pentobarbital
REMARK  7 active torsions:
REMARK  status: ('A' for Active; 'I' for Inactive)
REMARK    1  A    between atoms: C_1  and  C_2
REMARK    2  A    between atoms: C_2  and  C_3
REMARK    3  A    between atoms: C_3  and  C_4
REMARK    4  A    between atoms: C_4  and  C_5
REMARK    5  A    between atoms: C_4  and  C_6
REMARK    6  A    between atoms: C_6  and  C_7
REMARK    7  A    between atoms: C_7  and  C_8
REMARK                            x       y       z     vdW  Elec       q    Type
REMARK                         _______ _______ _______ _____ _____    ______ ____
ROOT
ATOM      1  C   UNL     1      -7.859  -0.930 124.081  0.00  0.00    +0.000 C 
ATOM      2  C   UNL     1      -7.057   0.077 124.950  0.00  0.00    +0.000 C 
ATOM      3  O   UNL     1      -5.989  -0.177 125.508  0.00  0.00    +0.000 OA
ATOM      4  N   UNL     1      -7.440   1.388 124.792  0.00  0.00    +0.000 N 
ATOM      5  C   UNL     1      -8.743   1.758 124.708  0.00  0.00    +0.000 C 
ATOM      6  O   UNL     1      -9.101   2.921 124.808  0.00  0.00    +0.000 OA
ATOM      7  N   UNL     1      -9.611   0.743 124.479  0.00  0.00    +0.000 N 
ATOM      8  C   UNL     1      -9.183  -0.261 123.654  0.00  0.00    +0.000 C 
ATOM      9  O   UNL     1      -9.924  -0.664 122.755  0.00  0.00    +0.000 OA
ATOM     10  H   UNL     1      -6.782   2.115 125.038  0.00  0.00    +0.000 HD
ATOM     11  H   UNL     1     -10.551   1.073 124.301  0.00  0.00    +0.000 HD
ENDROOT
BRANCH   1  12
ATOM     12  C   UNL     1      -8.292  -2.364 124.656  0.00  0.00    +0.000 C 
ATOM     13  C   UNL     1      -9.258  -3.194 123.759  0.00  0.00    +0.000 C 
BRANCH  12  14
ATOM     14  C   UNL     1      -8.856  -2.300 126.074  0.00  0.00    +0.000 C 
BRANCH  14  16
ATOM     15  C   UNL     1      -8.628  -3.561 128.226  0.00  0.00    +0.000 C 
ATOM     16  C   UNL     1      -8.867  -3.676 126.744  0.00  0.00    +0.000 C 
ENDBRANCH  14  16
ENDBRANCH  12  14
ENDBRANCH   1  12
BRANCH   1  17
ATOM     17  C   UNL     1      -6.747  -1.214 122.999  0.00  0.00    +0.000 C 
ATOM     18  C   UNL     1      -5.866  -2.451 123.232  0.00  0.00    +0.000 C 
ENDBRANCH   1  17
TORSDOF 4
ENDMDL
