MODEL 1
REMARK VINA RESULT:      -6.3      0.000      0.000
REMARK  Name = Pentostatin
REMARK  5 active torsions:
REMARK  status: ('A' for Active; 'I' for Inactive)
REMARK    1  A    between atoms: O5*_1  and  C5*_2
REMARK    2  A    between atoms: C5*_2  and  C4*_3
REMARK    3  A    between atoms: C1*_5  and  N_9
REMARK    4  A    between atoms: C3*_7  and  O3*_8
REMARK    5  A    between atoms: C_18  and  O_19
REMARK                            x       y       z     vdW  Elec       q    Type
REMARK                         _______ _______ _______ _____ _____    ______ ____
ROOT
ATOM      1  N   UNL     1     -10.455   6.064 130.919  0.00  0.00    +0.000 N 
ATOM      2  C   UNL     1     -11.405   6.231 131.889  0.00  0.00    +0.000 A 
ATOM      3  N   UNL     1     -12.466   6.861 131.434  0.00  0.00    +0.000 NA
ATOM      4  C   UNL     1     -12.201   7.085 130.097  0.00  0.00    +0.000 A 
ATOM      5  C   UNL     1     -10.940   6.617 129.758  0.00  0.00    +0.000 A 
ATOM      6  N   UNL     1     -10.235   6.635 128.589  0.00  0.00    +0.000 NA
ATOM      7  C   UNL     1     -10.374   7.703 127.886  0.00  0.00    +0.000 C 
ATOM      8  N   UNL     1     -11.155   8.809 128.136  0.00  0.00    +0.000 N 
ATOM      9  C   UNL     1     -12.614   8.680 128.119  0.00  0.00    +0.000 C 
ATOM     10  C   UNL     1     -13.203   7.691 129.162  0.00  0.00    +0.000 C 
ATOM     11  H   UNL     1     -10.817   9.698 127.791  0.00  0.00    +0.000 HD
ENDROOT
BRANCH   1  14
ATOM     12  C4* UNL     1      -7.956   4.074 132.546  0.00  0.00    +0.000 C 
ATOM     13  O4* UNL     1      -9.268   4.305 131.989  0.00  0.00    +0.000 OA
ATOM     14  C1* UNL     1      -9.160   5.450 131.106  0.00  0.00    +0.000 C 
ATOM     15  C2* UNL     1      -8.117   6.345 131.750  0.00  0.00    +0.000 C 
ATOM     16  C3* UNL     1      -7.125   5.330 132.267  0.00  0.00    +0.000 C 
BRANCH  16  17
ATOM     17  O3* UNL     1      -6.145   5.054 131.261  0.00  0.00    +0.000 OA
ATOM     18  H3* UNL     1      -6.359   5.560 130.457  0.00  0.00    +0.000 HD
ENDBRANCH  16  17
BRANCH  12  19
ATOM     19  C5* UNL     1      -7.932   3.682 134.033  0.00  0.00    +0.000 C 
BRANCH  19  20
ATOM     20  O5* UNL     1      -8.892   4.364 134.825  0.00  0.00    +0.000 OA
ATOM     21  H5* UNL     1      -8.394   5.023 135.346  0.00  0.00    +0.000 HD
ENDBRANCH  19  20
ENDBRANCH  12  19
ENDBRANCH   1  14
BRANCH  10  22
ATOM     22  O   UNL     1     -13.887   6.658 128.426  0.00  0.00    +0.000 OA
ATOM     23  H   UNL     1     -14.835   6.873 128.506  0.00  0.00    +0.000 HD
ENDBRANCH  10  22
TORSDOF 5
ENDMDL
MODEL 2
REMARK VINA RESULT:      -6.2      1.689      2.871
REMARK  Name = Pentostatin
REMARK  5 active torsions:
REMARK  status: ('A' for Active; 'I' for Inactive)
REMARK    1  A    between atoms: O5*_1  and  C5*_2
REMARK    2  A    between atoms: C5*_2  and  C4*_3
REMARK    3  A    between atoms: C1*_5  and  N_9
REMARK    4  A    between atoms: C3*_7  and  O3*_8
REMARK    5  A    between atoms: C_18  and  O_19
REMARK                            x       y       z     vdW  Elec       q    Type
REMARK                         _______ _______ _______ _____ _____    ______ ____
ROOT
ATOM      1  N   UNL     1      -9.925   5.897 130.388  0.00  0.00    +0.000 N 
ATOM      2  C   UNL     1      -9.083   5.509 129.382  0.00  0.00    +0.000 A 
ATOM      3  N   UNL     1      -9.469   5.973 128.214  0.00  0.00    +0.000 NA
ATOM      4  C   UNL     1     -10.598   6.721 128.483  0.00  0.00    +0.000 A 
ATOM      5  C   UNL     1     -10.916   6.669 129.832  0.00  0.00    +0.000 A 
ATOM      6  N   UNL     1     -11.937   7.212 130.559  0.00  0.00    +0.000 NA
ATOM      7  C   UNL     1     -13.078   7.228 129.966  0.00  0.00    +0.000 C 
ATOM      8  N   UNL     1     -13.401   6.805 128.698  0.00  0.00    +0.000 N 
ATOM      9  C   UNL     1     -12.857   7.516 127.539  0.00  0.00    +0.000 C 
ATOM     10  C   UNL     1     -11.308   7.523 127.434  0.00  0.00    +0.000 C 
ATOM     11  H   UNL     1     -14.337   6.446 128.557  0.00  0.00    +0.000 HD
ENDROOT
BRANCH   1  14
ATOM     12  C4* UNL     1      -8.361   5.617 133.602  0.00  0.00    +0.000 C 
ATOM     13  O4* UNL     1      -8.810   6.345 132.439  0.00  0.00    +0.000 OA
ATOM     14  C1* UNL     1      -9.804   5.521 131.779  0.00  0.00    +0.000 C 
ATOM     15  C2* UNL     1      -9.350   4.092 132.016  0.00  0.00    +0.000 C 
ATOM     16  C3* UNL     1      -8.835   4.170 133.433  0.00  0.00    +0.000 C 
BRANCH  16  17
ATOM     17  O3* UNL     1      -9.898   3.895 134.352  0.00  0.00    +0.000 OA
ATOM     18  H3* UNL     1      -9.714   4.341 135.198  0.00  0.00    +0.000 HD
ENDBRANCH  16  17
BRANCH  12  19
ATOM     19  C5* UNL     1      -6.852   5.702 133.889  0.00  0.00    +0.000 C 
BRANCH  19  20
ATOM     20  O5* UNL     1      -6.067   6.037 132.756  0.00  0.00    +0.000 OA
ATOM     21  H5* UNL     1      -5.361   6.629 133.080  0.00  0.00    +0.000 HD
ENDBRANCH  19  20
ENDBRANCH  12  19
ENDBRANCH   1  14
BRANCH  10  22
ATOM     22  O   UNL     1     -10.886   8.901 127.490  0.00  0.00    +0.000 OA
ATOM     23  H   UNL     1     -11.665   9.393 127.812  0.00  0.00    +0.000 HD
ENDBRANCH  10  22
TORSDOF 5
ENDMDL
MODEL 3
REMARK VINA RESULT:      -6.1      1.900      6.051
REMARK  Name = Pentostatin
REMARK  5 active torsions:
REMARK  status: ('A' for Active; 'I' for Inactive)
REMARK    1  A    between atoms: O5*_1  and  C5*_2
REMARK    2  A    between atoms: C5*_2  and  C4*_3
REMARK    3  A    between atoms: C1*_5  and  N_9
REMARK    4  A    between atoms: C3*_7  and  O3*_8
REMARK    5  A    between atoms: C_18  and  O_19
REMARK                            x       y       z     vdW  Elec       q    Type
REMARK                         _______ _______ _______ _____ _____    ______ ____
ROOT
ATOM      1  N   UNL     1     -10.604   6.528 130.453  0.00  0.00    +0.000 N 
ATOM      2  C   UNL     1     -11.101   6.628 131.723  0.00  0.00    +0.000 A 
ATOM      3  N   UNL     1     -10.283   6.110 132.613  0.00  0.00    +0.000 NA
ATOM      4  C   UNL     1      -9.190   5.683 131.885  0.00  0.00    +0.000 A 
ATOM      5  C   UNL     1      -9.377   5.912 130.530  0.00  0.00    +0.000 A 
ATOM      6  N   UNL     1      -8.607   5.642 129.436  0.00  0.00    +0.000 NA
ATOM      7  C   UNL     1      -7.969   4.527 129.481  0.00  0.00    +0.000 C 
ATOM      8  N   UNL     1      -7.932   3.590 130.488  0.00  0.00    +0.000 N 
ATOM      9  C   UNL     1      -7.307   3.931 131.768  0.00  0.00    +0.000 C 
ATOM     10  C   UNL     1      -7.958   5.119 132.528  0.00  0.00    +0.000 C 
ATOM     11  H   UNL     1      -7.807   2.624 130.215  0.00  0.00    +0.000 HD
ENDROOT
BRANCH   1  14
ATOM     12  C4* UNL     1     -12.514   8.716 128.353  0.00  0.00    +0.000 C 
ATOM     13  O4* UNL     1     -11.426   8.404 129.248  0.00  0.00    +0.000 OA
ATOM     14  C1* UNL     1     -11.275   6.962 129.249  0.00  0.00    +0.000 C 
ATOM     15  C2* UNL     1     -12.683   6.421 129.074  0.00  0.00    +0.000 C 
ATOM     16  C3* UNL     1     -13.266   7.407 128.091  0.00  0.00    +0.000 C 
BRANCH  16  17
ATOM     17  O3* UNL     1     -13.019   6.962 126.752  0.00  0.00    +0.000 OA
ATOM     18  H3* UNL     1     -13.154   7.705 126.138  0.00  0.00    +0.000 HD
ENDBRANCH  16  17
BRANCH  12  19
ATOM     19  C5* UNL     1     -13.454   9.839 128.825  0.00  0.00    +0.000 C 
BRANCH  19  20
ATOM     20  O5* UNL     1     -13.198  10.288 130.146  0.00  0.00    +0.000 OA
ATOM     21  H5* UNL     1     -13.878   9.873 130.710  0.00  0.00    +0.000 HD
ENDBRANCH  19  20
ENDBRANCH  12  19
ENDBRANCH   1  14
BRANCH  10  22
ATOM     22  O   UNL     1      -6.950   6.143 132.656  0.00  0.00    +0.000 OA
ATOM     23  H   UNL     1      -6.602   6.272 131.755  0.00  0.00    +0.000 HD
ENDBRANCH  10  22
TORSDOF 5
ENDMDL
MODEL 4
REMARK VINA RESULT:      -6.0      1.975      6.030
REMARK  Name = Pentostatin
REMARK  5 active torsions:
REMARK  status: ('A' for Active; 'I' for Inactive)
REMARK    1  A    between atoms: O5*_1  and  C5*_2
REMARK    2  A    between atoms: C5*_2  and  C4*_3
REMARK    3  A    between atoms: C1*_5  and  N_9
REMARK    4  A    between atoms: C3*_7  and  O3*_8
REMARK    5  A    between atoms: C_18  and  O_19
REMARK                            x       y       z     vdW  Elec       q    Type
REMARK                         _______ _______ _______ _____ _____    ______ ____
ROOT
ATOM      1  N   UNL     1     -10.853   5.329 130.536  0.00  0.00    +0.000 N 
ATOM      2  C   UNL     1     -11.176   4.031 130.250  0.00  0.00    +0.000 A 
ATOM      3  N   UNL     1     -10.394   3.181 130.878  0.00  0.00    +0.000 NA
ATOM      4  C   UNL     1      -9.544   3.968 131.630  0.00  0.00    +0.000 A 
ATOM      5  C   UNL     1      -9.796   5.315 131.414  0.00  0.00    +0.000 A 
ATOM      6  N   UNL     1      -9.212   6.450 131.898  0.00  0.00    +0.000 NA
ATOM      7  C   UNL     1      -7.936   6.387 132.039  0.00  0.00    +0.000 C 
ATOM      8  N   UNL     1      -7.088   5.330 131.799  0.00  0.00    +0.000 N 
ATOM      9  C   UNL     1      -7.179   4.129 132.633  0.00  0.00    +0.000 C 
ATOM     10  C   UNL     1      -8.547   3.395 132.591  0.00  0.00    +0.000 C 
ATOM     11  H   UNL     1      -6.148   5.552 131.500  0.00  0.00    +0.000 HD
ENDROOT
BRANCH   1  14
ATOM     12  C4* UNL     1     -12.587   7.277 128.076  0.00  0.00    +0.000 C 
ATOM     13  O4* UNL     1     -12.402   6.117 128.914  0.00  0.00    +0.000 OA
ATOM     14  C1* UNL     1     -11.493   6.499 129.976  0.00  0.00    +0.000 C 
ATOM     15  C2* UNL     1     -10.545   7.500 129.340  0.00  0.00    +0.000 C 
ATOM     16  C3* UNL     1     -11.480   8.272 128.440  0.00  0.00    +0.000 C 
BRANCH  16  17
ATOM     17  O3* UNL     1     -12.036   9.381 129.155  0.00  0.00    +0.000 OA
ATOM     18  H3* UNL     1     -11.539  10.188 128.930  0.00  0.00    +0.000 HD
ENDBRANCH  16  17
BRANCH  12  19
ATOM     19  C5* UNL     1     -12.638   6.996 126.565  0.00  0.00    +0.000 C 
BRANCH  19  20
ATOM     20  O5* UNL     1     -11.374   6.712 125.987  0.00  0.00    +0.000 OA
ATOM     21  H5* UNL     1     -10.706   6.994 126.641  0.00  0.00    +0.000 HD
ENDBRANCH  19  20
ENDBRANCH  12  19
ENDBRANCH   1  14
BRANCH  10  22
ATOM     22  O   UNL     1      -9.078   3.414 133.931  0.00  0.00    +0.000 OA
ATOM     23  H   UNL     1     -10.036   3.563 133.823  0.00  0.00    +0.000 HD
ENDBRANCH  10  22
TORSDOF 5
ENDMDL
MODEL 5
REMARK VINA RESULT:      -5.9      8.540      9.452
REMARK  Name = Pentostatin
REMARK  5 active torsions:
REMARK  status: ('A' for Active; 'I' for Inactive)
REMARK    1  A    between atoms: O5*_1  and  C5*_2
REMARK    2  A    between atoms: C5*_2  and  C4*_3
REMARK    3  A    between atoms: C1*_5  and  N_9
REMARK    4  A    between atoms: C3*_7  and  O3*_8
REMARK    5  A    between atoms: C_18  and  O_19
REMARK                            x       y       z     vdW  Elec       q    Type
REMARK                         _______ _______ _______ _____ _____    ______ ____
ROOT
ATOM      1  N   UNL     1      -7.232   0.949 124.876  0.00  0.00    +0.000 N 
ATOM      2  C   UNL     1      -7.555   0.890 126.204  0.00  0.00    +0.000 A 
ATOM      3  N   UNL     1      -7.634   2.086 126.743  0.00  0.00    +0.000 NA
ATOM      4  C   UNL     1      -7.379   2.962 125.706  0.00  0.00    +0.000 A 
ATOM      5  C   UNL     1      -7.102   2.274 124.535  0.00  0.00    +0.000 A 
ATOM      6  N   UNL     1      -6.769   2.692 123.278  0.00  0.00    +0.000 NA
ATOM      7  C   UNL     1      -5.993   3.716 123.233  0.00  0.00    +0.000 C 
ATOM      8  N   UNL     1      -5.481   4.461 124.270  0.00  0.00    +0.000 N 
ATOM      9  C   UNL     1      -6.386   5.259 125.101  0.00  0.00    +0.000 C 
ATOM     10  C   UNL     1      -7.473   4.450 125.860  0.00  0.00    +0.000 C 
ATOM     11  H   UNL     1      -4.574   4.885 124.129  0.00  0.00    +0.000 HD
ENDROOT
BRANCH   1  14
ATOM     12  C4* UNL     1      -7.950  -2.235 123.393  0.00  0.00    +0.000 C 
ATOM     13  O4* UNL     1      -8.280  -0.887 123.789  0.00  0.00    +0.000 OA
ATOM     14  C1* UNL     1      -7.028  -0.189 124.007  0.00  0.00    +0.000 C 
ATOM     15  C2* UNL     1      -6.081  -1.243 124.550  0.00  0.00    +0.000 C 
ATOM     16  C3* UNL     1      -6.472  -2.450 123.732  0.00  0.00    +0.000 C 
BRANCH  16  17
ATOM     17  O3* UNL     1      -5.696  -2.494 122.530  0.00  0.00    +0.000 OA
ATOM     18  H3* UNL     1      -4.939  -3.093 122.660  0.00  0.00    +0.000 HD
ENDBRANCH  16  17
BRANCH  12  19
ATOM     19  C5* UNL     1      -8.848  -3.333 123.988  0.00  0.00    +0.000 C 
BRANCH  19  20
ATOM     20  O5* UNL     1     -10.142  -3.397 123.411  0.00  0.00    +0.000 OA
ATOM     21  H5* UNL     1     -10.070  -4.007 122.651  0.00  0.00    +0.000 HD
ENDBRANCH  19  20
ENDBRANCH  12  19
ENDBRANCH   1  14
BRANCH  10  22
ATOM     22  O   UNL     1      -8.754   4.920 125.392  0.00  0.00    +0.000 OA
ATOM     23  H   UNL     1      -9.407   4.312 125.785  0.00  0.00    +0.000 HD
ENDBRANCH  10  22
TORSDOF 5
ENDMDL
MODEL 6
REMARK VINA RESULT:      -5.8      3.017      6.437
REMARK  Name = Pentostatin
REMARK  5 active torsions:
REMARK  status: ('A' for Active; 'I' for Inactive)
REMARK    1  A    between atoms: O5*_1  and  C5*_2
REMARK    2  A    between atoms: C5*_2  and  C4*_3
REMARK    3  A    between atoms: C1*_5  and  N_9
REMARK    4  A    between atoms: C3*_7  and  O3*_8
REMARK    5  A    between atoms: C_18  and  O_19
REMARK                            x       y       z     vdW  Elec       q    Type
REMARK                         _______ _______ _______ _____ _____    ______ ____
ROOT
ATOM      1  N   UNL     1      -9.797   4.734 130.227  0.00  0.00    +0.000 N 
ATOM      2  C   UNL     1      -8.701   5.283 129.623  0.00  0.00    +0.000 A 
ATOM      3  N   UNL     1      -7.679   4.455 129.612  0.00  0.00    +0.000 NA
ATOM      4  C   UNL     1      -8.149   3.303 130.212  0.00  0.00    +0.000 A 
ATOM      5  C   UNL     1      -9.463   3.462 130.627  0.00  0.00    +0.000 A 
ATOM      6  N   UNL     1     -10.329   2.633 131.280  0.00  0.00    +0.000 NA
ATOM      7  C   UNL     1      -9.797   1.901 132.194  0.00  0.00    +0.000 C 
ATOM      8  N   UNL     1      -8.478   1.818 132.579  0.00  0.00    +0.000 N 
ATOM      9  C   UNL     1      -7.488   1.271 131.648  0.00  0.00    +0.000 C 
ATOM     10  C   UNL     1      -7.332   2.051 130.314  0.00  0.00    +0.000 C 
ATOM     11  H   UNL     1      -8.295   1.599 133.549  0.00  0.00    +0.000 HD
ENDROOT
BRANCH   1  14
ATOM     12  C4* UNL     1     -12.811   6.447 129.315  0.00  0.00    +0.000 C 
ATOM     13  O4* UNL     1     -11.856   5.369 129.224  0.00  0.00    +0.000 OA
ATOM     14  C1* UNL     1     -11.064   5.398 130.438  0.00  0.00    +0.000 C 
ATOM     15  C2* UNL     1     -10.960   6.868 130.803  0.00  0.00    +0.000 C 
ATOM     16  C3* UNL     1     -12.341   7.366 130.447  0.00  0.00    +0.000 C 
BRANCH  16  17
ATOM     17  O3* UNL     1     -13.211   7.234 131.576  0.00  0.00    +0.000 OA
ATOM     18  H3* UNL     1     -13.951   7.860 131.484  0.00  0.00    +0.000 HD
ENDBRANCH  16  17
BRANCH  12  19
ATOM     19  C5* UNL     1     -13.057   7.219 128.007  0.00  0.00    +0.000 C 
BRANCH  19  20
ATOM     20  O5* UNL     1     -12.329   6.721 126.896  0.00  0.00    +0.000 OA
ATOM     21  H5* UNL     1     -12.968   6.218 126.356  0.00  0.00    +0.000 HD
ENDBRANCH  19  20
ENDBRANCH  12  19
ENDBRANCH   1  14
BRANCH  10  22
ATOM     22  O   UNL     1      -7.679   1.142 129.250  0.00  0.00    +0.000 OA
ATOM     23  H   UNL     1      -7.766   1.701 128.455  0.00  0.00    +0.000 HD
ENDBRANCH  10  22
TORSDOF 5
ENDMDL
MODEL 7
REMARK VINA RESULT:      -5.8      8.448      9.869
REMARK  Name = Pentostatin
REMARK  5 active torsions:
REMARK  status: ('A' for Active; 'I' for Inactive)
REMARK    1  A    between atoms: O5*_1  and  C5*_2
REMARK    2  A    between atoms: C5*_2  and  C4*_3
REMARK    3  A    between atoms: C1*_5  and  N_9
REMARK    4  A    between atoms: C3*_7  and  O3*_8
REMARK    5  A    between atoms: C_18  and  O_19
REMARK                            x       y       z     vdW  Elec       q    Type
REMARK                         _______ _______ _______ _____ _____    ______ ____
ROOT
ATOM      1  N   UNL     1      -8.988   1.232 123.489  0.00  0.00    +0.000 N 
ATOM      2  C   UNL     1     -10.003   0.940 122.620  0.00  0.00    +0.000 A 
ATOM      3  N   UNL     1     -10.157  -0.356 122.464  0.00  0.00    +0.000 NA
ATOM      4  C   UNL     1      -9.216  -0.929 123.296  0.00  0.00    +0.000 A 
ATOM      5  C   UNL     1      -8.457   0.044 123.929  0.00  0.00    +0.000 A 
ATOM      6  N   UNL     1      -7.411  -0.029 124.803  0.00  0.00    +0.000 NA
ATOM      7  C   UNL     1      -6.576  -0.980 124.575  0.00  0.00    +0.000 C 
ATOM      8  N   UNL     1      -6.610  -1.946 123.596  0.00  0.00    +0.000 N 
ATOM      9  C   UNL     1      -7.667  -2.960 123.619  0.00  0.00    +0.000 C 
ATOM     10  C   UNL     1      -9.115  -2.410 123.507  0.00  0.00    +0.000 C 
ATOM     11  H   UNL     1      -5.721  -2.288 123.255  0.00  0.00    +0.000 HD
ENDROOT
BRANCH   1  14
ATOM     12  C4* UNL     1      -6.645   3.770 124.448  0.00  0.00    +0.000 C 
ATOM     13  O4* UNL     1      -7.111   2.684 123.620  0.00  0.00    +0.000 OA
ATOM     14  C1* UNL     1      -8.538   2.560 123.843  0.00  0.00    +0.000 C 
ATOM     15  C2* UNL     1      -8.741   2.935 125.300  0.00  0.00    +0.000 C 
ATOM     16  C3* UNL     1      -7.756   4.067 125.461  0.00  0.00    +0.000 C 
BRANCH  16  17
ATOM     17  O3* UNL     1      -8.389   5.311 125.141  0.00  0.00    +0.000 OA
ATOM     18  H3* UNL     1      -7.821   5.810 124.527  0.00  0.00    +0.000 HD
ENDBRANCH  16  17
BRANCH  12  19
ATOM     19  C5* UNL     1      -5.286   3.542 125.130  0.00  0.00    +0.000 C 
BRANCH  19  20
ATOM     20  O5* UNL     1      -5.144   2.258 125.719  0.00  0.00    +0.000 OA
ATOM     21  H5* UNL     1      -6.048   1.950 125.919  0.00  0.00    +0.000 HD
ENDBRANCH  19  20
ENDBRANCH  12  19
ENDBRANCH   1  14
BRANCH  10  22
ATOM     22  O   UNL     1      -9.806  -2.790 124.714  0.00  0.00    +0.000 OA
ATOM     23  H   UNL     1     -10.411  -3.507 124.447  0.00  0.00    +0.000 HD
ENDBRANCH  10  22
TORSDOF 5
ENDMDL
MODEL 8
REMARK VINA RESULT:      -5.7      7.973      9.198
REMARK  Name = Pentostatin
REMARK  5 active torsions:
REMARK  status: ('A' for Active; 'I' for Inactive)
REMARK    1  A    between atoms: O5*_1  and  C5*_2
REMARK    2  A    between atoms: C5*_2  and  C4*_3
REMARK    3  A    between atoms: C1*_5  and  N_9
REMARK    4  A    between atoms: C3*_7  and  O3*_8
REMARK    5  A    between atoms: C_18  and  O_19
REMARK                            x       y       z     vdW  Elec       q    Type
REMARK                         _______ _______ _______ _____ _____    ______ ____
ROOT
ATOM      1  N   UNL     1      -7.954   1.341 125.226  0.00  0.00    +0.000 N 
ATOM      2  C   UNL     1      -9.054   2.091 124.916  0.00  0.00    +0.000 A 
ATOM      3  N   UNL     1      -8.766   3.371 124.826  0.00  0.00    +0.000 NA
ATOM      4  C   UNL     1      -7.407   3.447 125.059  0.00  0.00    +0.000 A 
ATOM      5  C   UNL     1      -6.881   2.194 125.336  0.00  0.00    +0.000 A 
ATOM      6  N   UNL     1      -5.622   1.773 125.651  0.00  0.00    +0.000 NA
ATOM      7  C   UNL     1      -4.957   2.568 126.413  0.00  0.00    +0.000 C 
ATOM      8  N   UNL     1      -5.330   3.790 126.924  0.00  0.00    +0.000 N 
ATOM      9  C   UNL     1      -5.527   4.922 126.016  0.00  0.00    +0.000 C 
ATOM     10  C   UNL     1      -6.636   4.728 124.947  0.00  0.00    +0.000 C 
ATOM     11  H   UNL     1      -4.947   4.048 127.825  0.00  0.00    +0.000 HD
ENDROOT
BRANCH   1  14
ATOM     12  C4* UNL     1      -8.201  -2.123 124.337  0.00  0.00    +0.000 C 
ATOM     13  O4* UNL     1      -7.692  -0.781 124.188  0.00  0.00    +0.000 OA
ATOM     14  C1* UNL     1      -7.941  -0.090 125.437  0.00  0.00    +0.000 C 
ATOM     15  C2* UNL     1      -9.246  -0.669 125.952  0.00  0.00    +0.000 C 
ATOM     16  C3* UNL     1      -9.100  -2.124 125.578  0.00  0.00    +0.000 C 
BRANCH  16  17
ATOM     17  O3* UNL     1      -8.461  -2.837 126.642  0.00  0.00    +0.000 OA
ATOM     18  H3* UNL     1      -7.705  -3.337 126.285  0.00  0.00    +0.000 HD
ENDBRANCH  16  17
BRANCH  12  19
ATOM     19  C5* UNL     1      -8.918  -2.696 123.103  0.00  0.00    +0.000 C 
BRANCH  19  20
ATOM     20  O5* UNL     1     -10.128  -3.374 123.400  0.00  0.00    +0.000 OA
ATOM     21  H5* UNL     1      -9.933  -3.957 124.158  0.00  0.00    +0.000 HD
ENDBRANCH  19  20
ENDBRANCH  12  19
ENDBRANCH   1  14
BRANCH  10  22
ATOM     22  O   UNL     1      -5.999   4.814 123.656  0.00  0.00    +0.000 OA
ATOM     23  H   UNL     1      -5.077   4.533 123.808  0.00  0.00    +0.000 HD
ENDBRANCH  10  22
TORSDOF 5
ENDMDL
MODEL 9
REMARK VINA RESULT:      -5.7      1.706      2.581
REMARK  Name = Pentostatin
REMARK  5 active torsions:
REMARK  status: ('A' for Active; 'I' for Inactive)
REMARK    1  A    between atoms: O5*_1  and  C5*_2
REMARK    2  A    between atoms: C5*_2  and  C4*_3
REMARK    3  A    between atoms: C1*_5  and  N_9
REMARK    4  A    between atoms: C3*_7  and  O3*_8
REMARK    5  A    between atoms: C_18  and  O_19
REMARK                            x       y       z     vdW  Elec       q    Type
REMARK                         _______ _______ _______ _____ _____    ______ ____
ROOT
ATOM      1  N   UNL     1     -10.686   5.671 130.925  0.00  0.00    +0.000 N 
ATOM      2  C   UNL     1     -11.578   6.057 131.886  0.00  0.00    +0.000 A 
ATOM      3  N   UNL     1     -12.469   6.903 131.418  0.00  0.00    +0.000 NA
ATOM      4  C   UNL     1     -12.154   7.048 130.081  0.00  0.00    +0.000 A 
ATOM      5  C   UNL     1     -11.029   6.306 129.755  0.00  0.00    +0.000 A 
ATOM      6  N   UNL     1     -10.333   6.153 128.590  0.00  0.00    +0.000 NA
ATOM      7  C   UNL     1     -10.226   7.218 127.877  0.00  0.00    +0.000 C 
ATOM      8  N   UNL     1     -10.740   8.472 128.111  0.00  0.00    +0.000 N 
ATOM      9  C   UNL     1     -12.191   8.673 128.085  0.00  0.00    +0.000 C 
ATOM     10  C   UNL     1     -12.991   7.853 129.134  0.00  0.00    +0.000 C 
ATOM     11  H   UNL     1     -10.211   9.260 127.760  0.00  0.00    +0.000 HD
ENDROOT
BRANCH   1  14
ATOM     12  C4* UNL     1      -7.536   4.126 130.190  0.00  0.00    +0.000 C 
ATOM     13  O4* UNL     1      -8.407   5.259 130.389  0.00  0.00    +0.000 OA
ATOM     14  C1* UNL     1      -9.562   4.784 131.125  0.00  0.00    +0.000 C 
ATOM     15  C2* UNL     1      -9.778   3.362 130.640  0.00  0.00    +0.000 C 
ATOM     16  C3* UNL     1      -8.357   2.871 130.500  0.00  0.00    +0.000 C 
BRANCH  16  17
ATOM     17  O3* UNL     1      -7.919   2.293 131.734  0.00  0.00    +0.000 OA
ATOM     18  H3* UNL     1      -8.154   2.889 132.468  0.00  0.00    +0.000 HD
ENDBRANCH  16  17
BRANCH  12  19
ATOM     19  C5* UNL     1      -6.860   4.051 128.810  0.00  0.00    +0.000 C 
BRANCH  19  20
ATOM     20  O5* UNL     1      -7.519   4.801 127.803  0.00  0.00    +0.000 OA
ATOM     21  H5* UNL     1      -6.910   5.524 127.560  0.00  0.00    +0.000 HD
ENDBRANCH  19  20
ENDBRANCH  12  19
ENDBRANCH   1  14
BRANCH  10  22
ATOM     22  O   UNL     1     -13.887   6.991 128.403  0.00  0.00    +0.000 OA
ATOM     23  H   UNL     1     -13.309   6.441 127.842  0.00  0.00    +0.000 HD
ENDBRANCH  10  22
TORSDOF 5
ENDMDL
