MODEL 1
REMARK VINA RESULT:      -6.6      0.000      0.000
REMARK  Name = Pentoxyverine
REMARK  13 active torsions:
REMARK  status: ('A' for Active; 'I' for Inactive)
REMARK    1  A    between atoms: C_1  and  C_2
REMARK    2  A    between atoms: C_2  and  N_3
REMARK    3  A    between atoms: N_3  and  C_4
REMARK    4  A    between atoms: N_3  and  C_6
REMARK    5  A    between atoms: C_4  and  C_5
REMARK    6  A    between atoms: C_6  and  C_7
REMARK    7  A    between atoms: C_7  and  O_8
REMARK    8  A    between atoms: O_8  and  C_9
REMARK    9  A    between atoms: C_9  and  C_10
REMARK   10  A    between atoms: C_10  and  O_11
REMARK   11  A    between atoms: O_11  and  C_12
REMARK   12  A    between atoms: C_12  and  C_14
REMARK   13  A    between atoms: C_14  and  C_19
REMARK                            x       y       z     vdW  Elec       q    Type
REMARK                         _______ _______ _______ _____ _____    ______ ____
ROOT
ATOM      1  C   UNL     1      -9.174  -1.961 124.099  0.00  0.00    +0.000 C 
ATOM      2  O   UNL     1      -9.757  -2.708 123.329  0.00  0.00    +0.000 OA
ENDROOT
BRANCH   1   3
ATOM      3  C   UNL     1      -7.815  -2.284 124.792  0.00  0.00    +0.000 C 
ATOM      4  C   UNL     1      -7.126  -3.495 124.123  0.00  0.00    +0.000 C 
ATOM      5  C   UNL     1      -5.658  -3.387 124.539  0.00  0.00    +0.000 C 
ATOM      6  C   UNL     1      -5.390  -1.893 124.693  0.00  0.00    +0.000 C 
ATOM      7  C   UNL     1      -6.746  -1.194 124.546  0.00  0.00    +0.000 C 
BRANCH   3   8
ATOM      8  C   UNL     1      -8.080  -2.466 126.300  0.00  0.00    +0.000 A 
ATOM      9  C   UNL     1      -7.524  -1.626 127.278  0.00  0.00    +0.000 A 
ATOM     10  C   UNL     1      -7.564  -1.974 128.627  0.00  0.00    +0.000 A 
ATOM     11  C   UNL     1      -8.234  -3.122 129.033  0.00  0.00    +0.000 A 
ATOM     12  C   UNL     1      -8.837  -3.944 128.088  0.00  0.00    +0.000 A 
ATOM     13  C   UNL     1      -8.765  -3.618 126.735  0.00  0.00    +0.000 A 
ENDBRANCH   3   8
ENDBRANCH   1   3
BRANCH   1  14
ATOM     14  O   UNL     1      -9.677  -0.739 124.447  0.00  0.00    +0.000 OA
BRANCH  14  15
ATOM     15  C   UNL     1      -9.670   0.191 123.347  0.00  0.00    +0.000 C 
BRANCH  15  16
ATOM     16  C   UNL     1     -10.189   1.531 123.827  0.00  0.00    +0.000 C 
BRANCH  16  17
ATOM     17  O   UNL     1      -9.179   2.534 123.677  0.00  0.00    +0.000 OA
BRANCH  17  18
ATOM     18  C   UNL     1      -8.147   2.034 122.825  0.00  0.00    +0.000 C 
BRANCH  18  19
ATOM     19  C   UNL     1      -6.783   2.661 123.148  0.00  0.00    +0.000 C 
BRANCH  19  20
ATOM     20  N   UNL     1      -6.448   3.829 122.276  0.00  0.00    +0.000 NA
BRANCH  20  22
ATOM     21  C   UNL     1      -4.248   4.977 121.719  0.00  0.00    +0.000 C 
ATOM     22  C   UNL     1      -5.203   4.446 122.784  0.00  0.00    +0.000 C 
ENDBRANCH  20  22
BRANCH  20  23
ATOM     23  C   UNL     1      -6.358   3.391 120.868  0.00  0.00    +0.000 C 
ATOM     24  C   UNL     1      -7.225   4.132 119.862  0.00  0.00    +0.000 C 
ENDBRANCH  20  23
ENDBRANCH  19  20
ENDBRANCH  18  19
ENDBRANCH  17  18
ENDBRANCH  16  17
ENDBRANCH  15  16
ENDBRANCH  14  15
ENDBRANCH   1  14
TORSDOF 11
ENDMDL
MODEL 2
REMARK VINA RESULT:      -6.6      1.627      2.209
REMARK  Name = Pentoxyverine
REMARK  13 active torsions:
REMARK  status: ('A' for Active; 'I' for Inactive)
REMARK    1  A    between atoms: C_1  and  C_2
REMARK    2  A    between atoms: C_2  and  N_3
REMARK    3  A    between atoms: N_3  and  C_4
REMARK    4  A    between atoms: N_3  and  C_6
REMARK    5  A    between atoms: C_4  and  C_5
REMARK    6  A    between atoms: C_6  and  C_7
REMARK    7  A    between atoms: C_7  and  O_8
REMARK    8  A    between atoms: O_8  and  C_9
REMARK    9  A    between atoms: C_9  and  C_10
REMARK   10  A    between atoms: C_10  and  O_11
REMARK   11  A    between atoms: O_11  and  C_12
REMARK   12  A    between atoms: C_12  and  C_14
REMARK   13  A    between atoms: C_14  and  C_19
REMARK                            x       y       z     vdW  Elec       q    Type
REMARK                         _______ _______ _______ _____ _____    ______ ____
ROOT
ATOM      1  C   UNL     1      -8.634  -0.865 124.717  0.00  0.00    +0.000 C 
ATOM      2  O   UNL     1      -9.677  -1.101 124.130  0.00  0.00    +0.000 OA
ENDROOT
BRANCH   1   3
ATOM      3  C   UNL     1      -7.508  -1.911 124.981  0.00  0.00    +0.000 C 
ATOM      4  C   UNL     1      -7.424  -2.939 123.829  0.00  0.00    +0.000 C 
ATOM      5  C   UNL     1      -6.030  -3.555 123.957  0.00  0.00    +0.000 C 
ATOM      6  C   UNL     1      -5.151  -2.452 124.538  0.00  0.00    +0.000 C 
ATOM      7  C   UNL     1      -6.091  -1.297 124.901  0.00  0.00    +0.000 C 
BRANCH   3   8
ATOM      8  C   UNL     1      -7.757  -2.541 126.367  0.00  0.00    +0.000 A 
ATOM      9  C   UNL     1      -8.714  -3.545 126.586  0.00  0.00    +0.000 A 
ATOM     10  C   UNL     1      -9.098  -3.899 127.878  0.00  0.00    +0.000 A 
ATOM     11  C   UNL     1      -8.473  -3.319 128.975  0.00  0.00    +0.000 A 
ATOM     12  C   UNL     1      -7.485  -2.359 128.784  0.00  0.00    +0.000 A 
ATOM     13  C   UNL     1      -7.127  -1.976 127.493  0.00  0.00    +0.000 A 
ENDBRANCH   3   8
ENDBRANCH   1   3
BRANCH   1  14
ATOM     14  O   UNL     1      -8.348   0.370 125.226  0.00  0.00    +0.000 OA
BRANCH  14  15
ATOM     15  C   UNL     1      -9.431   1.303 125.043  0.00  0.00    +0.000 C 
BRANCH  15  16
ATOM     16  C   UNL     1      -8.911   2.532 124.326  0.00  0.00    +0.000 C 
BRANCH  16  17
ATOM     17  O   UNL     1      -8.960   3.668 125.194  0.00  0.00    +0.000 OA
BRANCH  17  18
ATOM     18  C   UNL     1      -7.671   3.861 125.782  0.00  0.00    +0.000 C 
BRANCH  18  19
ATOM     19  C   UNL     1      -6.881   4.974 125.076  0.00  0.00    +0.000 C 
BRANCH  19  20
ATOM     20  N   UNL     1      -5.598   4.497 124.474  0.00  0.00    +0.000 NA
BRANCH  20  22
ATOM     21  C   UNL     1      -3.808   3.844 126.158  0.00  0.00    +0.000 C 
ATOM     22  C   UNL     1      -5.038   3.443 125.349  0.00  0.00    +0.000 C 
ENDBRANCH  20  22
BRANCH  20  23
ATOM     23  C   UNL     1      -5.835   4.049 123.086  0.00  0.00    +0.000 C 
ATOM     24  C   UNL     1      -4.851   4.531 122.032  0.00  0.00    +0.000 C 
ENDBRANCH  20  23
ENDBRANCH  19  20
ENDBRANCH  18  19
ENDBRANCH  17  18
ENDBRANCH  16  17
ENDBRANCH  15  16
ENDBRANCH  14  15
ENDBRANCH   1  14
TORSDOF 11
ENDMDL
MODEL 3
REMARK VINA RESULT:      -6.5      2.255      3.393
REMARK  Name = Pentoxyverine
REMARK  13 active torsions:
REMARK  status: ('A' for Active; 'I' for Inactive)
REMARK    1  A    between atoms: C_1  and  C_2
REMARK    2  A    between atoms: C_2  and  N_3
REMARK    3  A    between atoms: N_3  and  C_4
REMARK    4  A    between atoms: N_3  and  C_6
REMARK    5  A    between atoms: C_4  and  C_5
REMARK    6  A    between atoms: C_6  and  C_7
REMARK    7  A    between atoms: C_7  and  O_8
REMARK    8  A    between atoms: O_8  and  C_9
REMARK    9  A    between atoms: C_9  and  C_10
REMARK   10  A    between atoms: C_10  and  O_11
REMARK   11  A    between atoms: O_11  and  C_12
REMARK   12  A    between atoms: C_12  and  C_14
REMARK   13  A    between atoms: C_14  and  C_19
REMARK                            x       y       z     vdW  Elec       q    Type
REMARK                         _______ _______ _______ _____ _____    ______ ____
ROOT
ATOM      1  C   UNL     1      -8.700  -0.810 124.944  0.00  0.00    +0.000 C 
ATOM      2  O   UNL     1      -9.797  -0.809 125.481  0.00  0.00    +0.000 OA
ENDROOT
BRANCH   1   3
ATOM      3  C   UNL     1      -7.622  -1.921 125.130  0.00  0.00    +0.000 C 
ATOM      4  C   UNL     1      -7.682  -2.951 123.979  0.00  0.00    +0.000 C 
ATOM      5  C   UNL     1      -6.322  -3.649 124.008  0.00  0.00    +0.000 C 
ATOM      6  C   UNL     1      -5.339  -2.600 124.520  0.00  0.00    +0.000 C 
ATOM      7  C   UNL     1      -6.181  -1.392 124.946  0.00  0.00    +0.000 C 
BRANCH   3   8
ATOM      8  C   UNL     1      -7.808  -2.537 126.532  0.00  0.00    +0.000 A 
ATOM      9  C   UNL     1      -8.682  -3.606 126.785  0.00  0.00    +0.000 A 
ATOM     10  C   UNL     1      -9.024  -3.958 128.089  0.00  0.00    +0.000 A 
ATOM     11  C   UNL     1      -8.434  -3.308 129.166  0.00  0.00    +0.000 A 
ATOM     12  C   UNL     1      -7.524  -2.280 128.942  0.00  0.00    +0.000 A 
ATOM     13  C   UNL     1      -7.211  -1.900 127.638  0.00  0.00    +0.000 A 
ENDBRANCH   3   8
ENDBRANCH   1   3
BRANCH   1  14
ATOM     14  O   UNL     1      -8.294   0.197 124.116  0.00  0.00    +0.000 OA
BRANCH  14  15
ATOM     15  C   UNL     1      -9.397   0.821 123.430  0.00  0.00    +0.000 C 
BRANCH  15  16
ATOM     16  C   UNL     1      -9.173   2.319 123.390  0.00  0.00    +0.000 C 
BRANCH  16  17
ATOM     17  O   UNL     1      -9.169   2.853 124.717  0.00  0.00    +0.000 OA
BRANCH  17  18
ATOM     18  C   UNL     1      -7.983   3.629 124.903  0.00  0.00    +0.000 C 
BRANCH  18  19
ATOM     19  C   UNL     1      -7.772   4.008 126.377  0.00  0.00    +0.000 C 
BRANCH  19  20
ATOM     20  N   UNL     1      -6.743   3.167 127.063  0.00  0.00    +0.000 NA
BRANCH  20  22
ATOM     21  C   UNL     1      -8.470   1.502 127.909  0.00  0.00    +0.000 C 
ATOM     22  C   UNL     1      -7.378   2.518 128.232  0.00  0.00    +0.000 C 
ENDBRANCH  20  22
BRANCH  20  23
ATOM     23  C   UNL     1      -6.159   2.210 126.101  0.00  0.00    +0.000 C 
ATOM     24  C   UNL     1      -4.743   1.732 126.381  0.00  0.00    +0.000 C 
ENDBRANCH  20  23
ENDBRANCH  19  20
ENDBRANCH  18  19
ENDBRANCH  17  18
ENDBRANCH  16  17
ENDBRANCH  15  16
ENDBRANCH  14  15
ENDBRANCH   1  14
TORSDOF 11
ENDMDL
MODEL 4
REMARK VINA RESULT:      -6.5      1.952      2.741
REMARK  Name = Pentoxyverine
REMARK  13 active torsions:
REMARK  status: ('A' for Active; 'I' for Inactive)
REMARK    1  A    between atoms: C_1  and  C_2
REMARK    2  A    between atoms: C_2  and  N_3
REMARK    3  A    between atoms: N_3  and  C_4
REMARK    4  A    between atoms: N_3  and  C_6
REMARK    5  A    between atoms: C_4  and  C_5
REMARK    6  A    between atoms: C_6  and  C_7
REMARK    7  A    between atoms: C_7  and  O_8
REMARK    8  A    between atoms: O_8  and  C_9
REMARK    9  A    between atoms: C_9  and  C_10
REMARK   10  A    between atoms: C_10  and  O_11
REMARK   11  A    between atoms: O_11  and  C_12
REMARK   12  A    between atoms: C_12  and  C_14
REMARK   13  A    between atoms: C_14  and  C_19
REMARK                            x       y       z     vdW  Elec       q    Type
REMARK                         _______ _______ _______ _____ _____    ______ ____
ROOT
ATOM      1  C   UNL     1      -9.064  -0.910 124.347  0.00  0.00    +0.000 C 
ATOM      2  O   UNL     1      -9.719  -1.159 123.348  0.00  0.00    +0.000 OA
ENDROOT
BRANCH   1   3
ATOM      3  C   UNL     1      -7.856  -1.758 124.851  0.00  0.00    +0.000 C 
ATOM      4  C   UNL     1      -7.545  -2.915 123.874  0.00  0.00    +0.000 C 
ATOM      5  C   UNL     1      -6.108  -3.326 124.201  0.00  0.00    +0.000 C 
ATOM      6  C   UNL     1      -5.421  -2.051 124.680  0.00  0.00    +0.000 C 
ATOM      7  C   UNL     1      -6.518  -0.986 124.793  0.00  0.00    +0.000 C 
BRANCH   3   8
ATOM      8  C   UNL     1      -8.164  -2.219 126.290  0.00  0.00    +0.000 A 
ATOM      9  C   UNL     1      -7.587  -1.621 127.422  0.00  0.00    +0.000 A 
ATOM     10  C   UNL     1      -7.675  -2.224 128.675  0.00  0.00    +0.000 A 
ATOM     11  C   UNL     1      -8.414  -3.390 128.837  0.00  0.00    +0.000 A 
ATOM     12  C   UNL     1      -9.039  -3.975 127.741  0.00  0.00    +0.000 A 
ATOM     13  C   UNL     1      -8.919  -3.394 126.480  0.00  0.00    +0.000 A 
ENDBRANCH   3   8
ENDBRANCH   1   3
BRANCH   1  14
ATOM     14  O   UNL     1      -9.339   0.160 125.151  0.00  0.00    +0.000 OA
BRANCH  14  15
ATOM     15  C   UNL     1     -10.076   1.188 124.461  0.00  0.00    +0.000 C 
BRANCH  15  16
ATOM     16  C   UNL     1      -9.115   2.267 124.006  0.00  0.00    +0.000 C 
BRANCH  16  17
ATOM     17  O   UNL     1      -8.906   3.217 125.055  0.00  0.00    +0.000 OA
BRANCH  17  18
ATOM     18  C   UNL     1      -7.601   3.785 124.916  0.00  0.00    +0.000 C 
BRANCH  18  19
ATOM     19  C   UNL     1      -6.545   2.719 124.585  0.00  0.00    +0.000 C 
BRANCH  19  20
ATOM     20  N   UNL     1      -5.401   2.701 125.548  0.00  0.00    +0.000 NA
BRANCH  20  22
ATOM     21  C   UNL     1      -4.382   4.646 126.831  0.00  0.00    +0.000 C 
ATOM     22  C   UNL     1      -4.720   4.013 125.485  0.00  0.00    +0.000 C 
ENDBRANCH  20  22
BRANCH  20  23
ATOM     23  C   UNL     1      -5.891   2.355 126.898  0.00  0.00    +0.000 C 
ATOM     24  C   UNL     1      -5.247   1.156 127.576  0.00  0.00    +0.000 C 
ENDBRANCH  20  23
ENDBRANCH  19  20
ENDBRANCH  18  19
ENDBRANCH  17  18
ENDBRANCH  16  17
ENDBRANCH  15  16
ENDBRANCH  14  15
ENDBRANCH   1  14
TORSDOF 11
ENDMDL
MODEL 5
REMARK VINA RESULT:      -6.4      2.329      7.001
REMARK  Name = Pentoxyverine
REMARK  13 active torsions:
REMARK  status: ('A' for Active; 'I' for Inactive)
REMARK    1  A    between atoms: C_1  and  C_2
REMARK    2  A    between atoms: C_2  and  N_3
REMARK    3  A    between atoms: N_3  and  C_4
REMARK    4  A    between atoms: N_3  and  C_6
REMARK    5  A    between atoms: C_4  and  C_5
REMARK    6  A    between atoms: C_6  and  C_7
REMARK    7  A    between atoms: C_7  and  O_8
REMARK    8  A    between atoms: O_8  and  C_9
REMARK    9  A    between atoms: C_9  and  C_10
REMARK   10  A    between atoms: C_10  and  O_11
REMARK   11  A    between atoms: O_11  and  C_12
REMARK   12  A    between atoms: C_12  and  C_14
REMARK   13  A    between atoms: C_14  and  C_19
REMARK                            x       y       z     vdW  Elec       q    Type
REMARK                         _______ _______ _______ _____ _____    ______ ____
ROOT
ATOM      1  C   UNL     1      -8.080   3.540 125.429  0.00  0.00    +0.000 C 
ATOM      2  O   UNL     1      -8.722   4.556 125.217  0.00  0.00    +0.000 OA
ENDROOT
BRANCH   1   3
ATOM      3  C   UNL     1      -6.539   3.407 125.233  0.00  0.00    +0.000 C 
ATOM      4  C   UNL     1      -5.777   4.408 126.131  0.00  0.00    +0.000 C 
ATOM      5  C   UNL     1      -4.355   3.851 126.218  0.00  0.00    +0.000 C 
ATOM      6  C   UNL     1      -4.506   2.337 126.110  0.00  0.00    +0.000 C 
ATOM      7  C   UNL     1      -5.979   2.073 125.779  0.00  0.00    +0.000 C 
BRANCH   3   8
ATOM      8  C   UNL     1      -6.234   3.557 123.728  0.00  0.00    +0.000 A 
ATOM      9  C   UNL     1      -6.665   2.629 122.767  0.00  0.00    +0.000 A 
ATOM     10  C   UNL     1      -6.153   2.649 121.472  0.00  0.00    +0.000 A 
ATOM     11  C   UNL     1      -5.267   3.648 121.087  0.00  0.00    +0.000 A 
ATOM     12  C   UNL     1      -4.864   4.610 122.006  0.00  0.00    +0.000 A 
ATOM     13  C   UNL     1      -5.345   4.568 123.313  0.00  0.00    +0.000 A 
ENDBRANCH   3   8
ENDBRANCH   1   3
BRANCH   1  14
ATOM     14  O   UNL     1      -8.667   2.383 125.857  0.00  0.00    +0.000 OA
BRANCH  14  15
ATOM     15  C   UNL     1      -9.467   1.762 124.833  0.00  0.00    +0.000 C 
BRANCH  15  16
ATOM     16  C   UNL     1      -8.934   0.369 124.563  0.00  0.00    +0.000 C 
BRANCH  16  17
ATOM     17  O   UNL     1      -9.778  -0.311 123.629  0.00  0.00    +0.000 OA
BRANCH  17  18
ATOM     18  C   UNL     1      -9.004  -1.284 122.925  0.00  0.00    +0.000 C 
BRANCH  18  19
ATOM     19  C   UNL     1      -7.498  -1.110 123.177  0.00  0.00    +0.000 C 
BRANCH  19  20
ATOM     20  N   UNL     1      -6.886  -2.259 123.914  0.00  0.00    +0.000 NA
BRANCH  20  22
ATOM     21  C   UNL     1      -8.334  -3.712 125.417  0.00  0.00    +0.000 C 
ATOM     22  C   UNL     1      -7.891  -3.341 124.005  0.00  0.00    +0.000 C 
ENDBRANCH  20  22
BRANCH  20  23
ATOM     23  C   UNL     1      -5.634  -2.669 123.247  0.00  0.00    +0.000 C 
ATOM     24  C   UNL     1      -4.825  -3.767 123.920  0.00  0.00    +0.000 C 
ENDBRANCH  20  23
ENDBRANCH  19  20
ENDBRANCH  18  19
ENDBRANCH  17  18
ENDBRANCH  16  17
ENDBRANCH  15  16
ENDBRANCH  14  15
ENDBRANCH   1  14
TORSDOF 11
ENDMDL
MODEL 6
REMARK VINA RESULT:      -6.3      4.945      7.820
REMARK  Name = Pentoxyverine
REMARK  13 active torsions:
REMARK  status: ('A' for Active; 'I' for Inactive)
REMARK    1  A    between atoms: C_1  and  C_2
REMARK    2  A    between atoms: C_2  and  N_3
REMARK    3  A    between atoms: N_3  and  C_4
REMARK    4  A    between atoms: N_3  and  C_6
REMARK    5  A    between atoms: C_4  and  C_5
REMARK    6  A    between atoms: C_6  and  C_7
REMARK    7  A    between atoms: C_7  and  O_8
REMARK    8  A    between atoms: O_8  and  C_9
REMARK    9  A    between atoms: C_9  and  C_10
REMARK   10  A    between atoms: C_10  and  O_11
REMARK   11  A    between atoms: O_11  and  C_12
REMARK   12  A    between atoms: C_12  and  C_14
REMARK   13  A    between atoms: C_14  and  C_19
REMARK                            x       y       z     vdW  Elec       q    Type
REMARK                         _______ _______ _______ _____ _____    ______ ____
ROOT
ATOM      1  C   UNL     1      -8.027   3.489 125.277  0.00  0.00    +0.000 C 
ATOM      2  O   UNL     1      -8.794   4.437 125.230  0.00  0.00    +0.000 OA
ENDROOT
BRANCH   1   3
ATOM      3  C   UNL     1      -7.874   2.413 124.159  0.00  0.00    +0.000 C 
ATOM      4  C   UNL     1      -6.796   1.371 124.536  0.00  0.00    +0.000 C 
ATOM      5  C   UNL     1      -7.096   0.162 123.648  0.00  0.00    +0.000 C 
ATOM      6  C   UNL     1      -8.605   0.181 123.433  0.00  0.00    +0.000 C 
ATOM      7  C   UNL     1      -9.111   1.493 124.042  0.00  0.00    +0.000 C 
BRANCH   3   8
ATOM      8  C   UNL     1      -7.602   3.143 122.828  0.00  0.00    +0.000 A 
ATOM      9  C   UNL     1      -8.592   3.343 121.853  0.00  0.00    +0.000 A 
ATOM     10  C   UNL     1      -8.256   3.761 120.567  0.00  0.00    +0.000 A 
ATOM     11  C   UNL     1      -6.938   4.070 120.255  0.00  0.00    +0.000 A 
ATOM     12  C   UNL     1      -5.945   3.930 121.219  0.00  0.00    +0.000 A 
ATOM     13  C   UNL     1      -6.274   3.475 122.495  0.00  0.00    +0.000 A 
ENDBRANCH   3   8
ENDBRANCH   1   3
BRANCH   1  14
ATOM     14  O   UNL     1      -7.213   3.265 126.352  0.00  0.00    +0.000 OA
BRANCH  14  15
ATOM     15  C   UNL     1      -7.956   2.991 127.555  0.00  0.00    +0.000 C 
BRANCH  15  16
ATOM     16  C   UNL     1      -8.005   4.246 128.404  0.00  0.00    +0.000 C 
BRANCH  16  17
ATOM     17  O   UNL     1      -9.092   4.174 129.331  0.00  0.00    +0.000 OA
BRANCH  17  18
ATOM     18  C   UNL     1      -9.484   5.500 129.693  0.00  0.00    +0.000 C 
BRANCH  18  19
ATOM     19  C   UNL     1     -11.011   5.638 129.791  0.00  0.00    +0.000 C 
BRANCH  19  20
ATOM     20  N   UNL     1     -11.544   6.833 129.066  0.00  0.00    +0.000 NA
BRANCH  20  22
ATOM     21  C   UNL     1     -12.911   7.543 131.089  0.00  0.00    +0.000 C 
ATOM     22  C   UNL     1     -11.838   7.888 130.061  0.00  0.00    +0.000 C 
ENDBRANCH  20  22
BRANCH  20  23
ATOM     23  C   UNL     1     -10.584   7.253 128.025  0.00  0.00    +0.000 C 
ATOM     24  C   UNL     1     -11.123   7.396 126.610  0.00  0.00    +0.000 C 
ENDBRANCH  20  23
ENDBRANCH  19  20
ENDBRANCH  18  19
ENDBRANCH  17  18
ENDBRANCH  16  17
ENDBRANCH  15  16
ENDBRANCH  14  15
ENDBRANCH   1  14
TORSDOF 11
ENDMDL
MODEL 7
REMARK VINA RESULT:      -6.3      2.676      7.108
REMARK  Name = Pentoxyverine
REMARK  13 active torsions:
REMARK  status: ('A' for Active; 'I' for Inactive)
REMARK    1  A    between atoms: C_1  and  C_2
REMARK    2  A    between atoms: C_2  and  N_3
REMARK    3  A    between atoms: N_3  and  C_4
REMARK    4  A    between atoms: N_3  and  C_6
REMARK    5  A    between atoms: C_4  and  C_5
REMARK    6  A    between atoms: C_6  and  C_7
REMARK    7  A    between atoms: C_7  and  O_8
REMARK    8  A    between atoms: O_8  and  C_9
REMARK    9  A    between atoms: C_9  and  C_10
REMARK   10  A    between atoms: C_10  and  O_11
REMARK   11  A    between atoms: O_11  and  C_12
REMARK   12  A    between atoms: C_12  and  C_14
REMARK   13  A    between atoms: C_14  and  C_19
REMARK                            x       y       z     vdW  Elec       q    Type
REMARK                         _______ _______ _______ _____ _____    ______ ____
ROOT
ATOM      1  C   UNL     1      -7.955   3.418 125.023  0.00  0.00    +0.000 C 
ATOM      2  O   UNL     1      -8.731   4.315 125.310  0.00  0.00    +0.000 OA
ENDROOT
BRANCH   1   3
ATOM      3  C   UNL     1      -8.151   2.418 123.842  0.00  0.00    +0.000 C 
ATOM      4  C   UNL     1      -7.397   1.094 124.104  0.00  0.00    +0.000 C 
ATOM      5  C   UNL     1      -8.056   0.078 123.170  0.00  0.00    +0.000 C 
ATOM      6  C   UNL     1      -9.506   0.531 123.037  0.00  0.00    +0.000 C 
ATOM      7  C   UNL     1      -9.601   1.889 123.741  0.00  0.00    +0.000 C 
BRANCH   3   8
ATOM      8  C   UNL     1      -7.733   3.130 122.539  0.00  0.00    +0.000 A 
ATOM      9  C   UNL     1      -8.653   3.507 121.548  0.00  0.00    +0.000 A 
ATOM     10  C   UNL     1      -8.222   3.900 120.282  0.00  0.00    +0.000 A 
ATOM     11  C   UNL     1      -6.864   4.008 120.010  0.00  0.00    +0.000 A 
ATOM     12  C   UNL     1      -5.932   3.690 120.992  0.00  0.00    +0.000 A 
ATOM     13  C   UNL     1      -6.361   3.259 122.246  0.00  0.00    +0.000 A 
ENDBRANCH   3   8
ENDBRANCH   1   3
BRANCH   1  14
ATOM     14  O   UNL     1      -6.814   3.186 125.737  0.00  0.00    +0.000 OA
BRANCH  14  15
ATOM     15  C   UNL     1      -6.940   3.582 127.116  0.00  0.00    +0.000 C 
BRANCH  15  16
ATOM     16  C   UNL     1      -6.936   2.344 127.990  0.00  0.00    +0.000 C 
BRANCH  16  17
ATOM     17  O   UNL     1      -6.011   1.380 127.477  0.00  0.00    +0.000 OA
BRANCH  17  18
ATOM     18  C   UNL     1      -6.586   0.077 127.590  0.00  0.00    +0.000 C 
BRANCH  18  19
ATOM     19  C   UNL     1      -5.735  -0.988 126.881  0.00  0.00    +0.000 C 
BRANCH  19  20
ATOM     20  N   UNL     1      -6.501  -1.777 125.867  0.00  0.00    +0.000 NA
BRANCH  20  22
ATOM     21  C   UNL     1      -5.623  -2.626 123.636  0.00  0.00    +0.000 C 
ATOM     22  C   UNL     1      -5.553  -2.667 125.160  0.00  0.00    +0.000 C 
ENDBRANCH  20  22
BRANCH  20  23
ATOM     23  C   UNL     1      -7.608  -2.497 126.527  0.00  0.00    +0.000 C 
ATOM     24  C   UNL     1      -8.979  -2.395 125.878  0.00  0.00    +0.000 C 
ENDBRANCH  20  23
ENDBRANCH  19  20
ENDBRANCH  18  19
ENDBRANCH  17  18
ENDBRANCH  16  17
ENDBRANCH  15  16
ENDBRANCH  14  15
ENDBRANCH   1  14
TORSDOF 11
ENDMDL
MODEL 8
REMARK VINA RESULT:      -6.3      2.995      3.804
REMARK  Name = Pentoxyverine
REMARK  13 active torsions:
REMARK  status: ('A' for Active; 'I' for Inactive)
REMARK    1  A    between atoms: C_1  and  C_2
REMARK    2  A    between atoms: C_2  and  N_3
REMARK    3  A    between atoms: N_3  and  C_4
REMARK    4  A    between atoms: N_3  and  C_6
REMARK    5  A    between atoms: C_4  and  C_5
REMARK    6  A    between atoms: C_6  and  C_7
REMARK    7  A    between atoms: C_7  and  O_8
REMARK    8  A    between atoms: O_8  and  C_9
REMARK    9  A    between atoms: C_9  and  C_10
REMARK   10  A    between atoms: C_10  and  O_11
REMARK   11  A    between atoms: O_11  and  C_12
REMARK   12  A    between atoms: C_12  and  C_14
REMARK   13  A    between atoms: C_14  and  C_19
REMARK                            x       y       z     vdW  Elec       q    Type
REMARK                         _______ _______ _______ _____ _____    ______ ____
ROOT
ATOM      1  C   UNL     1      -8.531  -0.707 125.016  0.00  0.00    +0.000 C 
ATOM      2  O   UNL     1      -9.741  -0.825 125.121  0.00  0.00    +0.000 OA
ENDROOT
BRANCH   1   3
ATOM      3  C   UNL     1      -7.507  -1.871 125.179  0.00  0.00    +0.000 C 
ATOM      4  C   UNL     1      -7.600  -2.862 123.995  0.00  0.00    +0.000 C 
ATOM      5  C   UNL     1      -6.273  -3.622 124.018  0.00  0.00    +0.000 C 
ATOM      6  C   UNL     1      -5.251  -2.636 124.573  0.00  0.00    +0.000 C 
ATOM      7  C   UNL     1      -6.041  -1.404 125.027  0.00  0.00    +0.000 C 
BRANCH   3   8
ATOM      8  C   UNL     1      -7.739  -2.520 126.559  0.00  0.00    +0.000 A 
ATOM      9  C   UNL     1      -8.633  -3.583 126.761  0.00  0.00    +0.000 A 
ATOM     10  C   UNL     1      -9.015  -3.964 128.045  0.00  0.00    +0.000 A 
ATOM     11  C   UNL     1      -8.446  -3.349 129.154  0.00  0.00    +0.000 A 
ATOM     12  C   UNL     1      -7.518  -2.328 128.981  0.00  0.00    +0.000 A 
ATOM     13  C   UNL     1      -7.164  -1.920 127.697  0.00  0.00    +0.000 A 
ENDBRANCH   3   8
ENDBRANCH   1   3
BRANCH   1  14
ATOM     14  O   UNL     1      -7.938   0.495 124.749  0.00  0.00    +0.000 OA
BRANCH  14  15
ATOM     15  C   UNL     1      -8.525   1.575 125.500  0.00  0.00    +0.000 C 
BRANCH  15  16
ATOM     16  C   UNL     1      -7.491   2.666 125.690  0.00  0.00    +0.000 C 
BRANCH  16  17
ATOM     17  O   UNL     1      -6.241   2.268 125.119  0.00  0.00    +0.000 OA
BRANCH  17  18
ATOM     18  C   UNL     1      -5.192   2.558 126.045  0.00  0.00    +0.000 C 
BRANCH  18  19
ATOM     19  C   UNL     1      -4.953   4.069 126.184  0.00  0.00    +0.000 C 
BRANCH  19  20
ATOM     20  N   UNL     1      -3.598   4.406 126.721  0.00  0.00    +0.000 NA
BRANCH  20  22
ATOM     21  C   UNL     1      -2.963   5.066 129.093  0.00  0.00    +0.000 C 
ATOM     22  C   UNL     1      -3.764   5.370 127.831  0.00  0.00    +0.000 C 
ENDBRANCH  20  22
BRANCH  20  23
ATOM     23  C   UNL     1      -2.895   3.167 127.115  0.00  0.00    +0.000 C 
ATOM     24  C   UNL     1      -1.521   2.934 126.508  0.00  0.00    +0.000 C 
ENDBRANCH  20  23
ENDBRANCH  19  20
ENDBRANCH  18  19
ENDBRANCH  17  18
ENDBRANCH  16  17
ENDBRANCH  15  16
ENDBRANCH  14  15
ENDBRANCH   1  14
TORSDOF 11
ENDMDL
MODEL 9
REMARK VINA RESULT:      -6.2      3.960      7.039
REMARK  Name = Pentoxyverine
REMARK  13 active torsions:
REMARK  status: ('A' for Active; 'I' for Inactive)
REMARK    1  A    between atoms: C_1  and  C_2
REMARK    2  A    between atoms: C_2  and  N_3
REMARK    3  A    between atoms: N_3  and  C_4
REMARK    4  A    between atoms: N_3  and  C_6
REMARK    5  A    between atoms: C_4  and  C_5
REMARK    6  A    between atoms: C_6  and  C_7
REMARK    7  A    between atoms: C_7  and  O_8
REMARK    8  A    between atoms: O_8  and  C_9
REMARK    9  A    between atoms: C_9  and  C_10
REMARK   10  A    between atoms: C_10  and  O_11
REMARK   11  A    between atoms: O_11  and  C_12
REMARK   12  A    between atoms: C_12  and  C_14
REMARK   13  A    between atoms: C_14  and  C_19
REMARK                            x       y       z     vdW  Elec       q    Type
REMARK                         _______ _______ _______ _____ _____    ______ ____
ROOT
ATOM      1  C   UNL     1      -8.259   3.088 125.133  0.00  0.00    +0.000 C 
ATOM      2  O   UNL     1      -8.746   4.202 125.233  0.00  0.00    +0.000 OA
ENDROOT
BRANCH   1   3
ATOM      3  C   UNL     1      -8.375   2.178 123.872  0.00  0.00    +0.000 C 
ATOM      4  C   UNL     1      -7.656   0.828 124.094  0.00  0.00    +0.000 C 
ATOM      5  C   UNL     1      -8.252  -0.109 123.042  0.00  0.00    +0.000 C 
ATOM      6  C   UNL     1      -9.683   0.374 122.834  0.00  0.00    +0.000 C 
ATOM      7  C   UNL     1      -9.818   1.680 123.625  0.00  0.00    +0.000 C 
BRANCH   3   8
ATOM      8  C   UNL     1      -7.853   2.975 122.659  0.00  0.00    +0.000 A 
ATOM      9  C   UNL     1      -8.683   3.391 121.606  0.00  0.00    +0.000 A 
ATOM     10  C   UNL     1      -8.142   3.867 120.413  0.00  0.00    +0.000 A 
ATOM     11  C   UNL     1      -6.767   4.019 120.281  0.00  0.00    +0.000 A 
ATOM     12  C   UNL     1      -5.926   3.662 121.330  0.00  0.00    +0.000 A 
ATOM     13  C   UNL     1      -6.463   3.149 122.509  0.00  0.00    +0.000 A 
ENDBRANCH   3   8
ENDBRANCH   1   3
BRANCH   1  14
ATOM     14  O   UNL     1      -7.556   2.507 126.150  0.00  0.00    +0.000 OA
BRANCH  14  15
ATOM     15  C   UNL     1      -7.992   2.959 127.447  0.00  0.00    +0.000 C 
BRANCH  15  16
ATOM     16  C   UNL     1      -6.777   3.265 128.299  0.00  0.00    +0.000 C 
BRANCH  16  17
ATOM     17  O   UNL     1      -6.558   4.678 128.358  0.00  0.00    +0.000 OA
BRANCH  17  18
ATOM     18  C   UNL     1      -5.167   4.925 128.576  0.00  0.00    +0.000 C 
BRANCH  18  19
ATOM     19  C   UNL     1      -4.449   5.338 127.282  0.00  0.00    +0.000 C 
BRANCH  19  20
ATOM     20  N   UNL     1      -2.965   5.437 127.435  0.00  0.00    +0.000 NA
BRANCH  20  22
ATOM     21  C   UNL     1      -1.934   6.327 129.583  0.00  0.00    +0.000 C 
ATOM     22  C   UNL     1      -2.663   6.618 128.274  0.00  0.00    +0.000 C 
ENDBRANCH  20  22
BRANCH  20  23
ATOM     23  C   UNL     1      -2.434   4.172 127.982  0.00  0.00    +0.000 C 
ATOM     24  C   UNL     1      -2.067   3.090 126.979  0.00  0.00    +0.000 C 
ENDBRANCH  20  23
ENDBRANCH  19  20
ENDBRANCH  18  19
ENDBRANCH  17  18
ENDBRANCH  16  17
ENDBRANCH  15  16
ENDBRANCH  14  15
ENDBRANCH   1  14
TORSDOF 11
ENDMDL
