MODEL 1
REMARK VINA RESULT:      -5.4      0.000      0.000
REMARK  Name = Pentolinium
REMARK  8 active torsions:
REMARK  status: ('A' for Active; 'I' for Inactive)
REMARK    1  A    between atoms: C_1  and  N_2
REMARK    2  A    between atoms: N_2  and  C_3
REMARK    3  A    between atoms: C_3  and  C_4
REMARK    4  A    between atoms: C_4  and  C_5
REMARK    5  A    between atoms: C_5  and  C_6
REMARK    6  A    between atoms: C_6  and  C_7
REMARK    7  A    between atoms: C_7  and  N_8
REMARK    8  A    between atoms: N_8  and  C_9
REMARK                            x       y       z     vdW  Elec       q    Type
REMARK                         _______ _______ _______ _____ _____    ______ ____
ROOT
ATOM      1  C   UNL     1      -8.928  -3.690 127.317  0.00  0.00    +0.000 C 
ENDROOT
BRANCH   1   2
ATOM      2  C   UNL     1      -7.962  -2.649 127.872  0.00  0.00    +0.000 C 
BRANCH   2   3
ATOM      3  C   UNL     1      -7.804  -2.818 129.366  0.00  0.00    +0.000 C 
BRANCH   3   5
ATOM      4  C   UNL     1      -6.350  -1.715 130.952  0.00  0.00    +0.000 C 
ATOM      5  N   UNL     1      -6.358  -2.774 129.834  0.00  0.00    +0.000 N 
ATOM      6  C   UNL     1      -5.829  -4.107 130.384  0.00  0.00    +0.000 C 
ATOM      7  C   UNL     1      -4.325  -3.982 130.264  0.00  0.00    +0.000 C 
ATOM      8  C   UNL     1      -4.113  -3.240 128.962  0.00  0.00    +0.000 C 
ATOM      9  C   UNL     1      -5.345  -2.370 128.745  0.00  0.00    +0.000 C 
ENDBRANCH   3   5
ENDBRANCH   2   3
ENDBRANCH   1   2
BRANCH   1  10
ATOM     10  C   UNL     1      -9.592  -3.022 126.133  0.00  0.00    +0.000 C 
BRANCH  10  11
ATOM     11  C   UNL     1      -8.674  -2.088 125.385  0.00  0.00    +0.000 C 
BRANCH  11  12
ATOM     12  N   UNL     1      -8.195  -2.693 124.059  0.00  0.00    +0.000 N 
ATOM     13  C   UNL     1      -9.456  -3.303 123.439  0.00  0.00    +0.000 C 
ATOM     14  C   UNL     1      -7.101  -3.760 124.229  0.00  0.00    +0.000 C 
ATOM     15  C   UNL     1      -5.786  -3.003 124.135  0.00  0.00    +0.000 C 
ATOM     16  C   UNL     1      -6.055  -1.872 123.165  0.00  0.00    +0.000 C 
ATOM     17  C   UNL     1      -7.568  -1.666 123.100  0.00  0.00    +0.000 C 
ENDBRANCH  11  12
ENDBRANCH  10  11
ENDBRANCH   1  10
TORSDOF 6
ENDMDL
MODEL 2
REMARK VINA RESULT:      -5.4      0.761      5.990
REMARK  Name = Pentolinium
REMARK  8 active torsions:
REMARK  status: ('A' for Active; 'I' for Inactive)
REMARK    1  A    between atoms: C_1  and  N_2
REMARK    2  A    between atoms: N_2  and  C_3
REMARK    3  A    between atoms: C_3  and  C_4
REMARK    4  A    between atoms: C_4  and  C_5
REMARK    5  A    between atoms: C_5  and  C_6
REMARK    6  A    between atoms: C_6  and  C_7
REMARK    7  A    between atoms: C_7  and  N_8
REMARK    8  A    between atoms: N_8  and  C_9
REMARK                            x       y       z     vdW  Elec       q    Type
REMARK                         _______ _______ _______ _____ _____    ______ ____
ROOT
ATOM      1  C   UNL     1      -8.751  -3.781 127.825  0.00  0.00    +0.000 C 
ENDROOT
BRANCH   1   2
ATOM      2  C   UNL     1      -8.041  -2.843 126.854  0.00  0.00    +0.000 C 
BRANCH   2   3
ATOM      3  C   UNL     1      -8.938  -2.518 125.682  0.00  0.00    +0.000 C 
BRANCH   3   5
ATOM      4  C   UNL     1      -9.249  -3.113 123.358  0.00  0.00    +0.000 C 
ATOM      5  N   UNL     1      -8.217  -2.531 124.343  0.00  0.00    +0.000 N 
ATOM      6  C   UNL     1      -7.763  -1.147 123.854  0.00  0.00    +0.000 C 
ATOM      7  C   UNL     1      -6.659  -1.452 122.865  0.00  0.00    +0.000 C 
ATOM      8  C   UNL     1      -5.926  -2.629 123.472  0.00  0.00    +0.000 C 
ATOM      9  C   UNL     1      -6.941  -3.395 124.311  0.00  0.00    +0.000 C 
ENDBRANCH   3   5
ENDBRANCH   2   3
ENDBRANCH   1   2
BRANCH   1  10
ATOM     10  C   UNL     1      -8.427  -3.245 129.202  0.00  0.00    +0.000 C 
BRANCH  10  11
ATOM     11  C   UNL     1      -7.656  -1.949 129.169  0.00  0.00    +0.000 C 
BRANCH  11  12
ATOM     12  N   UNL     1      -6.444  -1.977 130.109  0.00  0.00    +0.000 N 
ATOM     13  C   UNL     1      -6.813  -1.010 131.239  0.00  0.00    +0.000 C 
ATOM     14  C   UNL     1      -5.131  -1.549 129.433  0.00  0.00    +0.000 C 
ATOM     15  C   UNL     1      -4.512  -2.836 128.912  0.00  0.00    +0.000 C 
ATOM     16  C   UNL     1      -4.921  -3.899 129.910  0.00  0.00    +0.000 C 
ATOM     17  C   UNL     1      -6.133  -3.373 130.678  0.00  0.00    +0.000 C 
ENDBRANCH  11  12
ENDBRANCH  10  11
ENDBRANCH   1  10
TORSDOF 6
ENDMDL
MODEL 3
REMARK VINA RESULT:      -5.4      8.814     11.336
REMARK  Name = Pentolinium
REMARK  8 active torsions:
REMARK  status: ('A' for Active; 'I' for Inactive)
REMARK    1  A    between atoms: C_1  and  N_2
REMARK    2  A    between atoms: N_2  and  C_3
REMARK    3  A    between atoms: C_3  and  C_4
REMARK    4  A    between atoms: C_4  and  C_5
REMARK    5  A    between atoms: C_5  and  C_6
REMARK    6  A    between atoms: C_6  and  C_7
REMARK    7  A    between atoms: C_7  and  N_8
REMARK    8  A    between atoms: N_8  and  C_9
REMARK                            x       y       z     vdW  Elec       q    Type
REMARK                         _______ _______ _______ _____ _____    ______ ____
ROOT
ATOM      1  C   UNL     1     -10.140   6.231 132.225  0.00  0.00    +0.000 C 
ENDROOT
BRANCH   1   2
ATOM      2  C   UNL     1     -10.957   5.886 130.984  0.00  0.00    +0.000 C 
BRANCH   2   3
ATOM      3  C   UNL     1     -12.103   6.858 130.818  0.00  0.00    +0.000 C 
BRANCH   3   5
ATOM      4  C   UNL     1     -12.735   8.991 129.870  0.00  0.00    +0.000 C 
ATOM      5  N   UNL     1     -12.037   7.661 129.529  0.00  0.00    +0.000 N 
ATOM      6  C   UNL     1     -10.612   7.942 129.029  0.00  0.00    +0.000 C 
ATOM      7  C   UNL     1     -10.791   8.234 127.555  0.00  0.00    +0.000 C 
ATOM      8  C   UNL     1     -11.876   7.276 127.112  0.00  0.00    +0.000 C 
ATOM      9  C   UNL     1     -12.751   7.007 128.330  0.00  0.00    +0.000 C 
ENDBRANCH   3   5
ENDBRANCH   2   3
ENDBRANCH   1   2
BRANCH   1  10
ATOM     10  C   UNL     1      -8.695   6.097 131.798  0.00  0.00    +0.000 C 
BRANCH  10  11
ATOM     11  C   UNL     1      -8.479   5.019 130.764  0.00  0.00    +0.000 C 
BRANCH  11  12
ATOM     12  N   UNL     1      -7.815   3.774 131.363  0.00  0.00    +0.000 N 
ATOM     13  C   UNL     1      -6.539   3.583 130.535  0.00  0.00    +0.000 C 
ATOM     14  C   UNL     1      -8.697   2.516 131.301  0.00  0.00    +0.000 C 
ATOM     15  C   UNL     1      -9.464   2.500 132.613  0.00  0.00    +0.000 C 
ATOM     16  C   UNL     1      -8.520   3.111 133.626  0.00  0.00    +0.000 C 
ATOM     17  C   UNL     1      -7.469   3.912 132.857  0.00  0.00    +0.000 C 
ENDBRANCH  11  12
ENDBRANCH  10  11
ENDBRANCH   1  10
TORSDOF 6
ENDMDL
MODEL 4
REMARK VINA RESULT:      -5.3      1.241      6.027
REMARK  Name = Pentolinium
REMARK  8 active torsions:
REMARK  status: ('A' for Active; 'I' for Inactive)
REMARK    1  A    between atoms: C_1  and  N_2
REMARK    2  A    between atoms: N_2  and  C_3
REMARK    3  A    between atoms: C_3  and  C_4
REMARK    4  A    between atoms: C_4  and  C_5
REMARK    5  A    between atoms: C_5  and  C_6
REMARK    6  A    between atoms: C_6  and  C_7
REMARK    7  A    between atoms: C_7  and  N_8
REMARK    8  A    between atoms: N_8  and  C_9
REMARK                            x       y       z     vdW  Elec       q    Type
REMARK                         _______ _______ _______ _____ _____    ______ ____
ROOT
ATOM      1  C   UNL     1      -8.991  -3.915 128.055  0.00  0.00    +0.000 C 
ENDROOT
BRANCH   1   2
ATOM      2  C   UNL     1      -9.162  -3.386 126.635  0.00  0.00    +0.000 C 
BRANCH   2   3
ATOM      3  C   UNL     1      -8.395  -2.095 126.456  0.00  0.00    +0.000 C 
BRANCH   3   5
ATOM      4  C   UNL     1      -8.251  -1.120 124.248  0.00  0.00    +0.000 C 
ATOM      5  N   UNL     1      -7.521  -2.075 125.212  0.00  0.00    +0.000 N 
ATOM      6  C   UNL     1      -6.091  -1.571 125.450  0.00  0.00    +0.000 C 
ATOM      7  C   UNL     1      -5.304  -2.134 124.286  0.00  0.00    +0.000 C 
ATOM      8  C   UNL     1      -5.897  -3.510 124.064  0.00  0.00    +0.000 C 
ATOM      9  C   UNL     1      -7.346  -3.446 124.530  0.00  0.00    +0.000 C 
ENDBRANCH   3   5
ENDBRANCH   2   3
ENDBRANCH   1   2
BRANCH   1  10
ATOM     10  C   UNL     1      -7.755  -3.224 128.589  0.00  0.00    +0.000 C 
BRANCH  10  11
ATOM     11  C   UNL     1      -7.800  -2.994 130.079  0.00  0.00    +0.000 C 
BRANCH  11  12
ATOM     12  N   UNL     1      -6.396  -2.891 130.687  0.00  0.00    +0.000 N 
ATOM     13  C   UNL     1      -5.971  -1.441 130.428  0.00  0.00    +0.000 C 
ATOM     14  C   UNL     1      -5.384  -3.872 130.071  0.00  0.00    +0.000 C 
ATOM     15  C   UNL     1      -5.458  -5.118 130.938  0.00  0.00    +0.000 C 
ATOM     16  C   UNL     1      -5.761  -4.608 132.331  0.00  0.00    +0.000 C 
ATOM     17  C   UNL     1      -6.347  -3.203 132.193  0.00  0.00    +0.000 C 
ENDBRANCH  11  12
ENDBRANCH  10  11
ENDBRANCH   1  10
TORSDOF 6
ENDMDL
MODEL 5
REMARK VINA RESULT:      -5.3      1.172      2.306
REMARK  Name = Pentolinium
REMARK  8 active torsions:
REMARK  status: ('A' for Active; 'I' for Inactive)
REMARK    1  A    between atoms: C_1  and  N_2
REMARK    2  A    between atoms: N_2  and  C_3
REMARK    3  A    between atoms: C_3  and  C_4
REMARK    4  A    between atoms: C_4  and  C_5
REMARK    5  A    between atoms: C_5  and  C_6
REMARK    6  A    between atoms: C_6  and  C_7
REMARK    7  A    between atoms: C_7  and  N_8
REMARK    8  A    between atoms: N_8  and  C_9
REMARK                            x       y       z     vdW  Elec       q    Type
REMARK                         _______ _______ _______ _____ _____    ______ ____
ROOT
ATOM      1  C   UNL     1      -8.631  -3.676 128.288  0.00  0.00    +0.000 C 
ENDROOT
BRANCH   1   2
ATOM      2  C   UNL     1      -7.381  -2.887 128.664  0.00  0.00    +0.000 C 
BRANCH   2   3
ATOM      3  C   UNL     1      -7.010  -3.140 130.107  0.00  0.00    +0.000 C 
BRANCH   3   5
ATOM      4  C   UNL     1      -5.436  -4.847 130.784  0.00  0.00    +0.000 C 
ATOM      5  N   UNL     1      -5.524  -3.380 130.320  0.00  0.00    +0.000 N 
ATOM      6  C   UNL     1      -4.664  -3.187 129.062  0.00  0.00    +0.000 C 
ATOM      7  C   UNL     1      -3.273  -2.939 129.604  0.00  0.00    +0.000 C 
ATOM      8  C   UNL     1      -3.497  -2.104 130.846  0.00  0.00    +0.000 C 
ATOM      9  C   UNL     1      -4.874  -2.472 131.383  0.00  0.00    +0.000 C 
ENDBRANCH   3   5
ENDBRANCH   2   3
ENDBRANCH   1   2
BRANCH   1  10
ATOM     10  C   UNL     1      -8.969  -3.236 126.880  0.00  0.00    +0.000 C 
BRANCH  10  11
ATOM     11  C   UNL     1      -8.097  -2.108 126.385  0.00  0.00    +0.000 C 
BRANCH  11  12
ATOM     12  N   UNL     1      -7.534  -2.389 124.986  0.00  0.00    +0.000 N 
ATOM     13  C   UNL     1      -6.036  -2.617 125.214  0.00  0.00    +0.000 C 
ATOM     14  C   UNL     1      -7.765  -1.243 123.988  0.00  0.00    +0.000 C 
ATOM     15  C   UNL     1      -9.086  -1.564 123.309  0.00  0.00    +0.000 C 
ATOM     16  C   UNL     1      -9.140  -3.076 123.253  0.00  0.00    +0.000 C 
ATOM     17  C   UNL     1      -8.164  -3.614 124.299  0.00  0.00    +0.000 C 
ENDBRANCH  11  12
ENDBRANCH  10  11
ENDBRANCH   1  10
TORSDOF 6
ENDMDL
MODEL 6
REMARK VINA RESULT:      -5.2      8.846     11.540
REMARK  Name = Pentolinium
REMARK  8 active torsions:
REMARK  status: ('A' for Active; 'I' for Inactive)
REMARK    1  A    between atoms: C_1  and  N_2
REMARK    2  A    between atoms: N_2  and  C_3
REMARK    3  A    between atoms: C_3  and  C_4
REMARK    4  A    between atoms: C_4  and  C_5
REMARK    5  A    between atoms: C_5  and  C_6
REMARK    6  A    between atoms: C_6  and  C_7
REMARK    7  A    between atoms: C_7  and  N_8
REMARK    8  A    between atoms: N_8  and  C_9
REMARK                            x       y       z     vdW  Elec       q    Type
REMARK                         _______ _______ _______ _____ _____    ______ ____
ROOT
ATOM      1  C   UNL     1      -7.175   6.842 131.199  0.00  0.00    +0.000 C 
ENDROOT
BRANCH   1   2
ATOM      2  C   UNL     1      -8.354   5.934 130.865  0.00  0.00    +0.000 C 
BRANCH   2   3
ATOM      3  C   UNL     1      -9.565   6.317 131.685  0.00  0.00    +0.000 C 
BRANCH   3   5
ATOM      4  C   UNL     1     -11.054   5.032 130.278  0.00  0.00    +0.000 C 
ATOM      5  N   UNL     1     -10.840   6.440 130.866  0.00  0.00    +0.000 N 
ATOM      6  C   UNL     1     -12.077   6.852 131.676  0.00  0.00    +0.000 C 
ATOM      7  C   UNL     1     -13.023   7.420 130.640  0.00  0.00    +0.000 C 
ATOM      8  C   UNL     1     -12.120   8.161 129.676  0.00  0.00    +0.000 C 
ATOM      9  C   UNL     1     -10.766   7.464 129.716  0.00  0.00    +0.000 C 
ENDBRANCH   3   5
ENDBRANCH   2   3
ENDBRANCH   1   2
BRANCH   1  10
ATOM     10  C   UNL     1      -6.366   6.079 132.224  0.00  0.00    +0.000 C 
BRANCH  10  11
ATOM     11  C   UNL     1      -6.310   4.596 131.953  0.00  0.00    +0.000 C 
BRANCH  11  12
ATOM     12  N   UNL     1      -6.536   3.771 133.226  0.00  0.00    +0.000 N 
ATOM     13  C   UNL     1      -5.128   3.378 133.685  0.00  0.00    +0.000 C 
ATOM     14  C   UNL     1      -7.404   2.521 133.003  0.00  0.00    +0.000 C 
ATOM     15  C   UNL     1      -8.830   2.971 133.274  0.00  0.00    +0.000 C 
ATOM     16  C   UNL     1      -8.709   4.027 134.352  0.00  0.00    +0.000 C 
ATOM     17  C   UNL     1      -7.269   4.538 134.341  0.00  0.00    +0.000 C 
ENDBRANCH  11  12
ENDBRANCH  10  11
ENDBRANCH   1  10
TORSDOF 6
ENDMDL
MODEL 7
REMARK VINA RESULT:      -5.1      9.030     10.528
REMARK  Name = Pentolinium
REMARK  8 active torsions:
REMARK  status: ('A' for Active; 'I' for Inactive)
REMARK    1  A    between atoms: C_1  and  N_2
REMARK    2  A    between atoms: N_2  and  C_3
REMARK    3  A    between atoms: C_3  and  C_4
REMARK    4  A    between atoms: C_4  and  C_5
REMARK    5  A    between atoms: C_5  and  C_6
REMARK    6  A    between atoms: C_6  and  C_7
REMARK    7  A    between atoms: C_7  and  N_8
REMARK    8  A    between atoms: N_8  and  C_9
REMARK                            x       y       z     vdW  Elec       q    Type
REMARK                         _______ _______ _______ _____ _____    ______ ____
ROOT
ATOM      1  C   UNL     1      -9.033   7.164 130.578  0.00  0.00    +0.000 C 
ENDROOT
BRANCH   1   2
ATOM      2  C   UNL     1      -7.879   6.197 130.828  0.00  0.00    +0.000 C 
BRANCH   2   3
ATOM      3  C   UNL     1      -7.969   5.618 132.221  0.00  0.00    +0.000 C 
BRANCH   3   5
ATOM      4  C   UNL     1      -6.717   3.600 132.683  0.00  0.00    +0.000 C 
ATOM      5  N   UNL     1      -8.105   4.103 132.242  0.00  0.00    +0.000 N 
ATOM      6  C   UNL     1      -9.174   3.577 133.211  0.00  0.00    +0.000 C 
ATOM      7  C   UNL     1      -9.499   2.196 132.683  0.00  0.00    +0.000 C 
ATOM      8  C   UNL     1      -9.448   2.349 131.177  0.00  0.00    +0.000 C 
ATOM      9  C   UNL     1      -8.465   3.474 130.882  0.00  0.00    +0.000 C 
ENDBRANCH   3   5
ENDBRANCH   2   3
ENDBRANCH   1   2
BRANCH   1  10
ATOM     10  C   UNL     1      -9.781   6.589 129.395  0.00  0.00    +0.000 C 
BRANCH  10  11
ATOM     11  C   UNL     1     -10.387   7.646 128.505  0.00  0.00    +0.000 C 
BRANCH  11  12
ATOM     12  N   UNL     1     -11.918   7.569 128.482  0.00  0.00    +0.000 N 
ATOM     13  C   UNL     1     -12.262   7.209 127.032  0.00  0.00    +0.000 C 
ATOM     14  C   UNL     1     -12.608   8.880 128.895  0.00  0.00    +0.000 C 
ATOM     15  C   UNL     1     -12.818   8.765 130.396  0.00  0.00    +0.000 C 
ATOM     16  C   UNL     1     -13.056   7.290 130.646  0.00  0.00    +0.000 C 
ATOM     17  C   UNL     1     -12.501   6.521 129.447  0.00  0.00    +0.000 C 
ENDBRANCH  11  12
ENDBRANCH  10  11
ENDBRANCH   1  10
TORSDOF 6
ENDMDL
MODEL 8
REMARK VINA RESULT:      -5.0      1.521      2.320
REMARK  Name = Pentolinium
REMARK  8 active torsions:
REMARK  status: ('A' for Active; 'I' for Inactive)
REMARK    1  A    between atoms: C_1  and  N_2
REMARK    2  A    between atoms: N_2  and  C_3
REMARK    3  A    between atoms: C_3  and  C_4
REMARK    4  A    between atoms: C_4  and  C_5
REMARK    5  A    between atoms: C_5  and  C_6
REMARK    6  A    between atoms: C_6  and  C_7
REMARK    7  A    between atoms: C_7  and  N_8
REMARK    8  A    between atoms: N_8  and  C_9
REMARK                            x       y       z     vdW  Elec       q    Type
REMARK                         _______ _______ _______ _____ _____    ______ ____
ROOT
ATOM      1  C   UNL     1      -8.752  -3.242 127.109  0.00  0.00    +0.000 C 
ENDROOT
BRANCH   1   2
ATOM      2  C   UNL     1      -8.402  -3.710 128.518  0.00  0.00    +0.000 C 
BRANCH   2   3
ATOM      3  C   UNL     1      -8.081  -2.528 129.403  0.00  0.00    +0.000 C 
BRANCH   3   5
ATOM      4  C   UNL     1      -6.078  -1.470 130.251  0.00  0.00    +0.000 C 
ATOM      5  N   UNL     1      -6.904  -2.768 130.335  0.00  0.00    +0.000 N 
ATOM      6  C   UNL     1      -7.295  -3.035 131.796  0.00  0.00    +0.000 C 
ATOM      7  C   UNL     1      -6.095  -3.753 132.373  0.00  0.00    +0.000 C 
ATOM      8  C   UNL     1      -5.616  -4.645 131.247  0.00  0.00    +0.000 C 
ATOM      9  C   UNL     1      -6.012  -3.963 129.944  0.00  0.00    +0.000 C 
ENDBRANCH   3   5
ENDBRANCH   2   3
ENDBRANCH   1   2
BRANCH   1  10
ATOM     10  C   UNL     1      -7.907  -2.007 126.881  0.00  0.00    +0.000 C 
BRANCH  10  11
ATOM     11  C   UNL     1      -8.058  -1.432 125.495  0.00  0.00    +0.000 C 
BRANCH  11  12
ATOM     12  N   UNL     1      -6.708  -1.022 124.893  0.00  0.00    +0.000 N 
ATOM     13  C   UNL     1      -6.256   0.171 125.743  0.00  0.00    +0.000 C 
ATOM     14  C   UNL     1      -6.789  -0.632 123.408  0.00  0.00    +0.000 C 
ATOM     15  C   UNL     1      -6.520  -1.917 122.642  0.00  0.00    +0.000 C 
ATOM     16  C   UNL     1      -5.548  -2.692 123.508  0.00  0.00    +0.000 C 
ATOM     17  C   UNL     1      -5.648  -2.137 124.928  0.00  0.00    +0.000 C 
ENDBRANCH  11  12
ENDBRANCH  10  11
ENDBRANCH   1  10
TORSDOF 6
ENDMDL
MODEL 9
REMARK VINA RESULT:      -4.9      1.424      6.420
REMARK  Name = Pentolinium
REMARK  8 active torsions:
REMARK  status: ('A' for Active; 'I' for Inactive)
REMARK    1  A    between atoms: C_1  and  N_2
REMARK    2  A    between atoms: N_2  and  C_3
REMARK    3  A    between atoms: C_3  and  C_4
REMARK    4  A    between atoms: C_4  and  C_5
REMARK    5  A    between atoms: C_5  and  C_6
REMARK    6  A    between atoms: C_6  and  C_7
REMARK    7  A    between atoms: C_7  and  N_8
REMARK    8  A    between atoms: N_8  and  C_9
REMARK                            x       y       z     vdW  Elec       q    Type
REMARK                         _______ _______ _______ _____ _____    ______ ____
ROOT
ATOM      1  C   UNL     1      -8.890  -3.621 128.092  0.00  0.00    +0.000 C 
ENDROOT
BRANCH   1   2
ATOM      2  C   UNL     1      -8.534  -3.807 126.620  0.00  0.00    +0.000 C 
BRANCH   2   3
ATOM      3  C   UNL     1      -8.875  -2.562 125.833  0.00  0.00    +0.000 C 
BRANCH   3   5
ATOM      4  C   UNL     1      -9.300  -3.075 123.508  0.00  0.00    +0.000 C 
ATOM      5  N   UNL     1      -8.225  -2.515 124.459  0.00  0.00    +0.000 N 
ATOM      6  C   UNL     1      -7.815  -1.108 123.999  0.00  0.00    +0.000 C 
ATOM      7  C   UNL     1      -6.760  -1.359 122.944  0.00  0.00    +0.000 C 
ATOM      8  C   UNL     1      -5.982  -2.547 123.468  0.00  0.00    +0.000 C 
ATOM      9  C   UNL     1      -6.942  -3.359 124.329  0.00  0.00    +0.000 C 
ENDBRANCH   3   5
ENDBRANCH   2   3
ENDBRANCH   1   2
BRANCH   1  10
ATOM     10  C   UNL     1      -7.702  -2.905 128.698  0.00  0.00    +0.000 C 
BRANCH  10  11
ATOM     11  C   UNL     1      -7.733  -2.876 130.206  0.00  0.00    +0.000 C 
BRANCH  11  12
ATOM     12  N   UNL     1      -7.082  -1.607 130.770  0.00  0.00    +0.000 N 
ATOM     13  C   UNL     1      -5.626  -2.006 131.033  0.00  0.00    +0.000 C 
ATOM     14  C   UNL     1      -7.747  -1.095 132.059  0.00  0.00    +0.000 C 
ATOM     15  C   UNL     1      -8.810  -0.112 131.597  0.00  0.00    +0.000 C 
ATOM     16  C   UNL     1      -8.239   0.523 130.346  0.00  0.00    +0.000 C 
ATOM     17  C   UNL     1      -7.144  -0.402 129.815  0.00  0.00    +0.000 C 
ENDBRANCH  11  12
ENDBRANCH  10  11
ENDBRANCH   1  10
TORSDOF 6
ENDMDL
