MODEL 1
REMARK VINA RESULT:      -7.6      0.000      0.000
REMARK  Name = Pentamidine
REMARK  10 active torsions:
REMARK  status: ('A' for Active; 'I' for Inactive)
REMARK    1  A    between atoms: C_2  and  C_4
REMARK    2  A    between atoms: C_7  and  O_8
REMARK    3  A    between atoms: O_8  and  C_9
REMARK    4  A    between atoms: C_9  and  C_10
REMARK    5  A    between atoms: C_10  and  C_11
REMARK    6  A    between atoms: C_11  and  C_12
REMARK    7  A    between atoms: C_12  and  C_13
REMARK    8  A    between atoms: C_13  and  O_14
REMARK    9  A    between atoms: O_14  and  C_15
REMARK   10  A    between atoms: C_18  and  C_21
REMARK                            x       y       z     vdW  Elec       q    Type
REMARK                         _______ _______ _______ _____ _____    ______ ____
ROOT
ATOM      1  C   UNL     1      -9.204  -1.082 123.092  0.00  0.00    +0.000 C 
ENDROOT
BRANCH   1   2
ATOM      2  C   UNL     1      -8.713  -2.518 122.890  0.00  0.00    +0.000 C 
BRANCH   2   3
ATOM      3  C   UNL     1      -9.238  -3.431 123.995  0.00  0.00    +0.000 C 
BRANCH   3   4
ATOM      4  O   UNL     1      -9.752  -2.644 125.075  0.00  0.00    +0.000 OA
BRANCH   4   8
ATOM      5  C   UNL     1      -7.693  -3.080 128.685  0.00  0.00    +0.000 A 
ATOM      6  C   UNL     1      -7.344  -2.090 127.763  0.00  0.00    +0.000 A 
ATOM      7  C   UNL     1      -8.082  -1.950 126.579  0.00  0.00    +0.000 A 
ATOM      8  C   UNL     1      -9.138  -2.824 126.290  0.00  0.00    +0.000 A 
ATOM      9  C   UNL     1      -9.488  -3.798 127.228  0.00  0.00    +0.000 A 
ATOM     10  C   UNL     1      -8.769  -3.928 128.418  0.00  0.00    +0.000 A 
BRANCH   5  12
ATOM     11  N   UNL     1      -7.373  -2.401 131.034  0.00  0.00    +0.000 N 
ATOM     12  C   UNL     1      -7.001  -3.203 129.996  0.00  0.00    +0.000 C 
ATOM     13  N   UNL     1      -6.026  -4.042 130.111  0.00  0.00    +0.000 NA
ATOM     14  H   UNL     1      -7.021  -2.589 131.963  0.00  0.00    +0.000 HD
ATOM     15  H   UNL     1      -8.282  -1.952 131.004  0.00  0.00    +0.000 HD
ATOM     16  H   UNL     1      -5.609  -3.963 131.040  0.00  0.00    +0.000 HD
ENDBRANCH   5  12
ENDBRANCH   4   8
ENDBRANCH   3   4
ENDBRANCH   2   3
ENDBRANCH   1   2
BRANCH   1  17
ATOM     17  C   UNL     1      -8.045  -0.106 123.279  0.00  0.00    +0.000 C 
BRANCH  17  18
ATOM     18  C   UNL     1      -8.511   1.196 123.934  0.00  0.00    +0.000 C 
BRANCH  18  19
ATOM     19  O   UNL     1      -9.009   2.046 122.900  0.00  0.00    +0.000 OA
BRANCH  19  20
ATOM     20  C   UNL     1      -8.074   2.843 122.302  0.00  0.00    +0.000 A 
ATOM     21  C   UNL     1      -8.432   3.367 121.064  0.00  0.00    +0.000 A 
ATOM     22  C   UNL     1      -7.514   4.110 120.315  0.00  0.00    +0.000 A 
ATOM     23  C   UNL     1      -6.239   4.393 120.821  0.00  0.00    +0.000 A 
ATOM     24  C   UNL     1      -5.874   3.832 122.055  0.00  0.00    +0.000 A 
ATOM     25  C   UNL     1      -6.786   3.055 122.787  0.00  0.00    +0.000 A 
BRANCH  23  26
ATOM     26  C   UNL     1      -5.319   5.309 120.059  0.00  0.00    +0.000 C 
ATOM     27  N   UNL     1      -5.405   5.436 118.705  0.00  0.00    +0.000 N 
ATOM     28  N   UNL     1      -4.413   6.047 120.611  0.00  0.00    +0.000 NA
ATOM     29  H   UNL     1      -6.151   5.061 118.143  0.00  0.00    +0.000 HD
ATOM     30  H   UNL     1      -4.845   6.173 118.296  0.00  0.00    +0.000 HD
ATOM     31  H   UNL     1      -4.371   5.935 121.624  0.00  0.00    +0.000 HD
ENDBRANCH  23  26
ENDBRANCH  19  20
ENDBRANCH  18  19
ENDBRANCH  17  18
ENDBRANCH   1  17
TORSDOF 10
ENDMDL
MODEL 2
REMARK VINA RESULT:      -7.4      3.225      6.372
REMARK  Name = Pentamidine
REMARK  10 active torsions:
REMARK  status: ('A' for Active; 'I' for Inactive)
REMARK    1  A    between atoms: C_2  and  C_4
REMARK    2  A    between atoms: C_7  and  O_8
REMARK    3  A    between atoms: O_8  and  C_9
REMARK    4  A    between atoms: C_9  and  C_10
REMARK    5  A    between atoms: C_10  and  C_11
REMARK    6  A    between atoms: C_11  and  C_12
REMARK    7  A    between atoms: C_12  and  C_13
REMARK    8  A    between atoms: C_13  and  O_14
REMARK    9  A    between atoms: O_14  and  C_15
REMARK   10  A    between atoms: C_18  and  C_21
REMARK                            x       y       z     vdW  Elec       q    Type
REMARK                         _______ _______ _______ _____ _____    ______ ____
ROOT
ATOM      1  C   UNL     1      -8.147  -3.266 124.602  0.00  0.00    +0.000 C 
ENDROOT
BRANCH   1   2
ATOM      2  C   UNL     1      -9.172  -3.117 123.476  0.00  0.00    +0.000 C 
BRANCH   2   3
ATOM      3  C   UNL     1      -9.052  -1.748 122.811  0.00  0.00    +0.000 C 
BRANCH   3   4
ATOM      4  O   UNL     1      -9.715  -0.759 123.606  0.00  0.00    +0.000 OA
BRANCH   4   8
ATOM      5  C   UNL     1      -7.537   2.790 123.947  0.00  0.00    +0.000 A 
ATOM      6  C   UNL     1      -6.989   1.654 123.344  0.00  0.00    +0.000 A 
ATOM      7  C   UNL     1      -7.763   0.493 123.216  0.00  0.00    +0.000 A 
ATOM      8  C   UNL     1      -9.067   0.446 123.724  0.00  0.00    +0.000 A 
ATOM      9  C   UNL     1      -9.609   1.593 124.307  0.00  0.00    +0.000 A 
ATOM     10  C   UNL     1      -8.849   2.758 124.421  0.00  0.00    +0.000 A 
BRANCH   5  12
ATOM     11  N   UNL     1      -6.992   4.918 125.068  0.00  0.00    +0.000 N 
ATOM     12  C   UNL     1      -6.787   4.073 124.019  0.00  0.00    +0.000 C 
ATOM     13  N   UNL     1      -5.983   4.381 123.057  0.00  0.00    +0.000 NA
ATOM     14  H   UNL     1      -6.374   5.706 125.205  0.00  0.00    +0.000 HD
ATOM     15  H   UNL     1      -7.413   4.553 125.916  0.00  0.00    +0.000 HD
ATOM     16  H   UNL     1      -5.598   5.313 123.211  0.00  0.00    +0.000 HD
ENDBRANCH   5  12
ENDBRANCH   4   8
ENDBRANCH   3   4
ENDBRANCH   2   3
ENDBRANCH   1   2
BRANCH   1  17
ATOM     17  C   UNL     1      -8.811  -3.298 125.976  0.00  0.00    +0.000 C 
BRANCH  17  18
ATOM     18  C   UNL     1      -7.966  -2.570 127.023  0.00  0.00    +0.000 C 
BRANCH  18  19
ATOM     19  O   UNL     1      -8.326  -1.189 126.986  0.00  0.00    +0.000 OA
BRANCH  19  20
ATOM     20  C   UNL     1      -7.277  -0.316 126.909  0.00  0.00    +0.000 A 
ATOM     21  C   UNL     1      -7.516   0.959 127.409  0.00  0.00    +0.000 A 
ATOM     22  C   UNL     1      -6.549   1.962 127.288  0.00  0.00    +0.000 A 
ATOM     23  C   UNL     1      -5.301   1.689 126.716  0.00  0.00    +0.000 A 
ATOM     24  C   UNL     1      -5.080   0.409 126.184  0.00  0.00    +0.000 A 
ATOM     25  C   UNL     1      -6.067  -0.586 126.274  0.00  0.00    +0.000 A 
BRANCH  23  26
ATOM     26  C   UNL     1      -4.228   2.745 126.723  0.00  0.00    +0.000 C 
ATOM     27  N   UNL     1      -2.908   2.415 126.677  0.00  0.00    +0.000 N 
ATOM     28  N   UNL     1      -4.464   4.016 126.749  0.00  0.00    +0.000 NA
ATOM     29  H   UNL     1      -2.556   1.491 126.493  0.00  0.00    +0.000 HD
ATOM     30  H   UNL     1      -2.266   3.187 126.545  0.00  0.00    +0.000 HD
ATOM     31  H   UNL     1      -5.459   4.235 126.782  0.00  0.00    +0.000 HD
ENDBRANCH  23  26
ENDBRANCH  19  20
ENDBRANCH  18  19
ENDBRANCH  17  18
ENDBRANCH   1  17
TORSDOF 10
ENDMDL
MODEL 3
REMARK VINA RESULT:      -7.4      3.594      6.288
REMARK  Name = Pentamidine
REMARK  10 active torsions:
REMARK  status: ('A' for Active; 'I' for Inactive)
REMARK    1  A    between atoms: C_2  and  C_4
REMARK    2  A    between atoms: C_7  and  O_8
REMARK    3  A    between atoms: O_8  and  C_9
REMARK    4  A    between atoms: C_9  and  C_10
REMARK    5  A    between atoms: C_10  and  C_11
REMARK    6  A    between atoms: C_11  and  C_12
REMARK    7  A    between atoms: C_12  and  C_13
REMARK    8  A    between atoms: C_13  and  O_14
REMARK    9  A    between atoms: O_14  and  C_15
REMARK   10  A    between atoms: C_18  and  C_21
REMARK                            x       y       z     vdW  Elec       q    Type
REMARK                         _______ _______ _______ _____ _____    ______ ____
ROOT
ATOM      1  C   UNL     1      -7.871  -2.399 127.321  0.00  0.00    +0.000 C 
ENDROOT
BRANCH   1   2
ATOM      2  C   UNL     1      -8.824  -3.221 126.449  0.00  0.00    +0.000 C 
BRANCH   2   3
ATOM      3  C   UNL     1      -9.145  -2.482 125.152  0.00  0.00    +0.000 C 
BRANCH   3   4
ATOM      4  O   UNL     1      -9.600  -1.157 125.446  0.00  0.00    +0.000 OA
BRANCH   4   8
ATOM      5  C   UNL     1      -8.158   1.975 123.085  0.00  0.00    +0.000 A 
ATOM      6  C   UNL     1      -9.405   2.050 123.712  0.00  0.00    +0.000 A 
ATOM      7  C   UNL     1      -9.839   0.994 124.526  0.00  0.00    +0.000 A 
ATOM      8  C   UNL     1      -9.054  -0.155 124.682  0.00  0.00    +0.000 A 
ATOM      9  C   UNL     1      -7.802  -0.209 124.065  0.00  0.00    +0.000 A 
ATOM     10  C   UNL     1      -7.357   0.848 123.269  0.00  0.00    +0.000 A 
BRANCH   5  12
ATOM     11  N   UNL     1      -8.412   3.740 121.381  0.00  0.00    +0.000 N 
ATOM     12  C   UNL     1      -7.616   3.110 122.292  0.00  0.00    +0.000 C 
ATOM     13  N   UNL     1      -6.381   3.449 122.451  0.00  0.00    +0.000 NA
ATOM     14  H   UNL     1      -8.104   4.606 120.960  0.00  0.00    +0.000 HD
ATOM     15  H   UNL     1      -9.419   3.636 121.457  0.00  0.00    +0.000 HD
ATOM     16  H   UNL     1      -6.137   4.191 121.793  0.00  0.00    +0.000 HD
ENDBRANCH   5  12
ENDBRANCH   4   8
ENDBRANCH   3   4
ENDBRANCH   2   3
ENDBRANCH   1   2
BRANCH   1  17
ATOM     17  C   UNL     1      -6.450  -2.397 126.764  0.00  0.00    +0.000 C 
BRANCH  17  18
ATOM     18  C   UNL     1      -5.689  -1.135 127.177  0.00  0.00    +0.000 C 
BRANCH  18  19
ATOM     19  O   UNL     1      -6.572  -0.337 127.964  0.00  0.00    +0.000 OA
BRANCH  19  20
ATOM     20  C   UNL     1      -6.884   0.883 127.433  0.00  0.00    +0.000 A 
ATOM     21  C   UNL     1      -5.905   1.459 126.630  0.00  0.00    +0.000 A 
ATOM     22  C   UNL     1      -6.075   2.749 126.118  0.00  0.00    +0.000 A 
ATOM     23  C   UNL     1      -7.256   3.464 126.354  0.00  0.00    +0.000 A 
ATOM     24  C   UNL     1      -8.224   2.889 127.193  0.00  0.00    +0.000 A 
ATOM     25  C   UNL     1      -8.034   1.608 127.735  0.00  0.00    +0.000 A 
BRANCH  23  26
ATOM     26  C   UNL     1      -7.473   4.792 125.680  0.00  0.00    +0.000 C 
ATOM     27  N   UNL     1      -6.495   5.378 124.936  0.00  0.00    +0.000 N 
ATOM     28  N   UNL     1      -8.581   5.457 125.731  0.00  0.00    +0.000 NA
ATOM     29  H   UNL     1      -5.638   4.928 124.662  0.00  0.00    +0.000 HD
ATOM     30  H   UNL     1      -6.774   6.197 124.409  0.00  0.00    +0.000 HD
ATOM     31  H   UNL     1      -9.296   4.996 126.293  0.00  0.00    +0.000 HD
ENDBRANCH  23  26
ENDBRANCH  19  20
ENDBRANCH  18  19
ENDBRANCH  17  18
ENDBRANCH   1  17
TORSDOF 10
ENDMDL
MODEL 4
REMARK VINA RESULT:      -7.3      3.594      4.944
REMARK  Name = Pentamidine
REMARK  10 active torsions:
REMARK  status: ('A' for Active; 'I' for Inactive)
REMARK    1  A    between atoms: C_2  and  C_4
REMARK    2  A    between atoms: C_7  and  O_8
REMARK    3  A    between atoms: O_8  and  C_9
REMARK    4  A    between atoms: C_9  and  C_10
REMARK    5  A    between atoms: C_10  and  C_11
REMARK    6  A    between atoms: C_11  and  C_12
REMARK    7  A    between atoms: C_12  and  C_13
REMARK    8  A    between atoms: C_13  and  O_14
REMARK    9  A    between atoms: O_14  and  C_15
REMARK   10  A    between atoms: C_18  and  C_21
REMARK                            x       y       z     vdW  Elec       q    Type
REMARK                         _______ _______ _______ _____ _____    ______ ____
ROOT
ATOM      1  C   UNL     1      -8.315  -3.533 124.397  0.00  0.00    +0.000 C 
ENDROOT
BRANCH   1   2
ATOM      2  C   UNL     1      -8.734  -3.128 125.812  0.00  0.00    +0.000 C 
BRANCH   2   3
ATOM      3  C   UNL     1      -7.559  -2.515 126.571  0.00  0.00    +0.000 C 
BRANCH   3   4
ATOM      4  O   UNL     1      -7.959  -1.279 127.171  0.00  0.00    +0.000 OA
BRANCH   4   8
ATOM      5  C   UNL     1      -5.061   1.708 126.791  0.00  0.00    +0.000 A 
ATOM      6  C   UNL     1      -4.894   0.451 126.202  0.00  0.00    +0.000 A 
ATOM      7  C   UNL     1      -5.905  -0.512 126.321  0.00  0.00    +0.000 A 
ATOM      8  C   UNL     1      -7.062  -0.244 127.062  0.00  0.00    +0.000 A 
ATOM      9  C   UNL     1      -7.225   1.021 127.630  0.00  0.00    +0.000 A 
ATOM     10  C   UNL     1      -6.230   1.991 127.498  0.00  0.00    +0.000 A 
BRANCH   5  12
ATOM     11  N   UNL     1      -2.739   2.539 126.839  0.00  0.00    +0.000 N 
ATOM     12  C   UNL     1      -4.059   2.793 126.611  0.00  0.00    +0.000 C 
ATOM     13  N   UNL     1      -4.469   3.972 126.281  0.00  0.00    +0.000 NA
ATOM     14  H   UNL     1      -2.044   3.219 126.565  0.00  0.00    +0.000 HD
ATOM     15  H   UNL     1      -2.419   1.576 126.839  0.00  0.00    +0.000 HD
ATOM     16  H   UNL     1      -3.680   4.620 126.264  0.00  0.00    +0.000 HD
ENDBRANCH   5  12
ENDBRANCH   4   8
ENDBRANCH   3   4
ENDBRANCH   2   3
ENDBRANCH   1   2
BRANCH   1  17
ATOM     17  C   UNL     1      -7.010  -2.862 123.976  0.00  0.00    +0.000 C 
BRANCH  17  18
ATOM     18  C   UNL     1      -7.225  -1.914 122.795  0.00  0.00    +0.000 C 
BRANCH  18  19
ATOM     19  O   UNL     1      -8.408  -1.159 123.056  0.00  0.00    +0.000 OA
BRANCH  19  20
ATOM     20  C   UNL     1      -8.199   0.111 123.514  0.00  0.00    +0.000 A 
ATOM     21  C   UNL     1      -9.247   0.672 124.235  0.00  0.00    +0.000 A 
ATOM     22  C   UNL     1      -9.183   2.003 124.663  0.00  0.00    +0.000 A 
ATOM     23  C   UNL     1      -8.041   2.777 124.425  0.00  0.00    +0.000 A 
ATOM     24  C   UNL     1      -7.002   2.214 123.667  0.00  0.00    +0.000 A 
ATOM     25  C   UNL     1      -7.085   0.890 123.208  0.00  0.00    +0.000 A 
BRANCH  23  26
ATOM     26  C   UNL     1      -7.939   4.159 125.013  0.00  0.00    +0.000 C 
ATOM     27  N   UNL     1      -6.879   4.970 124.740  0.00  0.00    +0.000 N 
ATOM     28  N   UNL     1      -8.833   4.684 125.786  0.00  0.00    +0.000 NA
ATOM     29  H   UNL     1      -6.183   4.783 124.039  0.00  0.00    +0.000 HD
ATOM     30  H   UNL     1      -6.962   5.926 125.064  0.00  0.00    +0.000 HD
ATOM     31  H   UNL     1      -9.615   4.058 125.973  0.00  0.00    +0.000 HD
ENDBRANCH  23  26
ENDBRANCH  19  20
ENDBRANCH  18  19
ENDBRANCH  17  18
ENDBRANCH   1  17
TORSDOF 10
ENDMDL
MODEL 5
REMARK VINA RESULT:      -7.3      3.278      4.661
REMARK  Name = Pentamidine
REMARK  10 active torsions:
REMARK  status: ('A' for Active; 'I' for Inactive)
REMARK    1  A    between atoms: C_2  and  C_4
REMARK    2  A    between atoms: C_7  and  O_8
REMARK    3  A    between atoms: O_8  and  C_9
REMARK    4  A    between atoms: C_9  and  C_10
REMARK    5  A    between atoms: C_10  and  C_11
REMARK    6  A    between atoms: C_11  and  C_12
REMARK    7  A    between atoms: C_12  and  C_13
REMARK    8  A    between atoms: C_13  and  O_14
REMARK    9  A    between atoms: O_14  and  C_15
REMARK   10  A    between atoms: C_18  and  C_21
REMARK                            x       y       z     vdW  Elec       q    Type
REMARK                         _______ _______ _______ _____ _____    ______ ____
ROOT
ATOM      1  C   UNL     1      -8.470  -3.597 124.851  0.00  0.00    +0.000 C 
ENDROOT
BRANCH   1   2
ATOM      2  C   UNL     1      -9.067  -3.020 126.137  0.00  0.00    +0.000 C 
BRANCH   2   3
ATOM      3  C   UNL     1      -7.970  -2.469 127.044  0.00  0.00    +0.000 C 
BRANCH   3   4
ATOM      4  O   UNL     1      -7.143  -1.558 126.312  0.00  0.00    +0.000 OA
BRANCH   4   8
ATOM      5  C   UNL     1      -7.340   2.388 127.673  0.00  0.00    +0.000 A 
ATOM      6  C   UNL     1      -8.459   1.552 127.700  0.00  0.00    +0.000 A 
ATOM      7  C   UNL     1      -8.345   0.223 127.269  0.00  0.00    +0.000 A 
ATOM      8  C   UNL     1      -7.130  -0.263 126.770  0.00  0.00    +0.000 A 
ATOM      9  C   UNL     1      -6.015   0.577 126.767  0.00  0.00    +0.000 A 
ATOM     10  C   UNL     1      -6.118   1.896 127.213  0.00  0.00    +0.000 A 
BRANCH   5  12
ATOM     11  N   UNL     1      -6.563   4.134 129.233  0.00  0.00    +0.000 N 
ATOM     12  C   UNL     1      -7.390   3.775 128.210  0.00  0.00    +0.000 C 
ATOM     13  N   UNL     1      -8.252   4.602 127.721  0.00  0.00    +0.000 NA
ATOM     14  H   UNL     1      -6.479   5.108 129.491  0.00  0.00    +0.000 HD
ATOM     15  H   UNL     1      -5.740   3.570 129.418  0.00  0.00    +0.000 HD
ATOM     16  H   UNL     1      -8.214   5.484 128.234  0.00  0.00    +0.000 HD
ENDBRANCH   5  12
ENDBRANCH   4   8
ENDBRANCH   3   4
ENDBRANCH   2   3
ENDBRANCH   1   2
BRANCH   1  17
ATOM     17  C   UNL     1      -9.294  -3.221 123.622  0.00  0.00    +0.000 C 
BRANCH  17  18
ATOM     18  C   UNL     1      -8.801  -1.915 122.997  0.00  0.00    +0.000 C 
BRANCH  18  19
ATOM     19  O   UNL     1      -9.665  -0.869 123.441  0.00  0.00    +0.000 OA
BRANCH  19  20
ATOM     20  C   UNL     1      -9.074   0.355 123.582  0.00  0.00    +0.000 A 
ATOM     21  C   UNL     1      -7.719   0.409 123.271  0.00  0.00    +0.000 A 
ATOM     22  C   UNL     1      -6.990   1.585 123.476  0.00  0.00    +0.000 A 
ATOM     23  C   UNL     1      -7.619   2.745 123.942  0.00  0.00    +0.000 A 
ATOM     24  C   UNL     1      -8.978   2.673 124.285  0.00  0.00    +0.000 A 
ATOM     25  C   UNL     1      -9.699   1.480 124.113  0.00  0.00    +0.000 A 
BRANCH  23  26
ATOM     26  C   UNL     1      -6.845   4.034 124.024  0.00  0.00    +0.000 C 
ATOM     27  N   UNL     1      -5.831   4.308 123.157  0.00  0.00    +0.000 N 
ATOM     28  N   UNL     1      -7.083   4.968 124.885  0.00  0.00    +0.000 NA
ATOM     29  H   UNL     1      -5.622   3.769 122.334  0.00  0.00    +0.000 HD
ATOM     30  H   UNL     1      -5.461   5.250 123.197  0.00  0.00    +0.000 HD
ATOM     31  H   UNL     1      -7.847   4.738 125.520  0.00  0.00    +0.000 HD
ENDBRANCH  23  26
ENDBRANCH  19  20
ENDBRANCH  18  19
ENDBRANCH  17  18
ENDBRANCH   1  17
TORSDOF 10
ENDMDL
MODEL 6
REMARK VINA RESULT:      -7.1      8.953     10.691
REMARK  Name = Pentamidine
REMARK  10 active torsions:
REMARK  status: ('A' for Active; 'I' for Inactive)
REMARK    1  A    between atoms: C_2  and  C_4
REMARK    2  A    between atoms: C_7  and  O_8
REMARK    3  A    between atoms: O_8  and  C_9
REMARK    4  A    between atoms: C_9  and  C_10
REMARK    5  A    between atoms: C_10  and  C_11
REMARK    6  A    between atoms: C_11  and  C_12
REMARK    7  A    between atoms: C_12  and  C_13
REMARK    8  A    between atoms: C_13  and  O_14
REMARK    9  A    between atoms: O_14  and  C_15
REMARK   10  A    between atoms: C_18  and  C_21
REMARK                            x       y       z     vdW  Elec       q    Type
REMARK                         _______ _______ _______ _____ _____    ______ ____
ROOT
ATOM      1  C   UNL     1      -6.890   5.868 132.075  0.00  0.00    +0.000 C 
ENDROOT
BRANCH   1   2
ATOM      2  C   UNL     1      -7.611   4.730 131.349  0.00  0.00    +0.000 C 
BRANCH   2   3
ATOM      3  C   UNL     1      -9.075   4.655 131.776  0.00  0.00    +0.000 C 
BRANCH   3   4
ATOM      4  O   UNL     1      -9.525   5.946 132.200  0.00  0.00    +0.000 OA
BRANCH   4   8
ATOM      5  C   UNL     1     -12.153   7.876 129.586  0.00  0.00    +0.000 A 
ATOM      6  C   UNL     1     -12.605   7.289 130.771  0.00  0.00    +0.000 A 
ATOM      7  C   UNL     1     -11.687   6.683 131.641  0.00  0.00    +0.000 A 
ATOM      8  C   UNL     1     -10.327   6.620 131.312  0.00  0.00    +0.000 A 
ATOM      9  C   UNL     1      -9.886   7.227 130.134  0.00  0.00    +0.000 A 
ATOM     10  C   UNL     1     -10.793   7.849 129.274  0.00  0.00    +0.000 A 
BRANCH   5  12
ATOM     11  N   UNL     1     -13.222   9.962 128.819  0.00  0.00    +0.000 N 
ATOM     12  C   UNL     1     -13.075   8.613 128.681  0.00  0.00    +0.000 C 
ATOM     13  N   UNL     1     -13.754   7.950 127.806  0.00  0.00    +0.000 NA
ATOM     14  H   UNL     1     -13.717  10.487 128.111  0.00  0.00    +0.000 HD
ATOM     15  H   UNL     1     -12.508  10.484 129.317  0.00  0.00    +0.000 HD
ATOM     16  H   UNL     1     -14.389   8.578 127.311  0.00  0.00    +0.000 HD
ENDBRANCH   5  12
ENDBRANCH   4   8
ENDBRANCH   3   4
ENDBRANCH   2   3
ENDBRANCH   1   2
BRANCH   1  17
ATOM     17  C   UNL     1      -6.263   6.859 131.097  0.00  0.00    +0.000 C 
BRANCH  17  18
ATOM     18  C   UNL     1      -4.785   7.096 131.412  0.00  0.00    +0.000 C 
BRANCH  18  19
ATOM     19  O   UNL     1      -4.175   5.821 131.607  0.00  0.00    +0.000 OA
BRANCH  19  20
ATOM     20  C   UNL     1      -3.785   5.181 130.464  0.00  0.00    +0.000 A 
ATOM     21  C   UNL     1      -4.086   3.824 130.400  0.00  0.00    +0.000 A 
ATOM     22  C   UNL     1      -3.644   3.049 129.324  0.00  0.00    +0.000 A 
ATOM     23  C   UNL     1      -2.942   3.632 128.261  0.00  0.00    +0.000 A 
ATOM     24  C   UNL     1      -2.614   4.994 128.349  0.00  0.00    +0.000 A 
ATOM     25  C   UNL     1      -3.028   5.762 129.450  0.00  0.00    +0.000 A 
BRANCH  23  26
ATOM     26  C   UNL     1      -2.598   2.806 127.050  0.00  0.00    +0.000 C 
ATOM     27  N   UNL     1      -3.561   2.165 126.332  0.00  0.00    +0.000 N 
ATOM     28  N   UNL     1      -1.398   2.658 126.593  0.00  0.00    +0.000 NA
ATOM     29  H   UNL     1      -4.550   2.303 126.452  0.00  0.00    +0.000 HD
ATOM     30  H   UNL     1      -3.256   1.751 125.459  0.00  0.00    +0.000 HD
ATOM     31  H   UNL     1      -0.697   3.148 127.148  0.00  0.00    +0.000 HD
ENDBRANCH  23  26
ENDBRANCH  19  20
ENDBRANCH  18  19
ENDBRANCH  17  18
ENDBRANCH   1  17
TORSDOF 10
ENDMDL
MODEL 7
REMARK VINA RESULT:      -6.8      6.976      8.287
REMARK  Name = Pentamidine
REMARK  10 active torsions:
REMARK  status: ('A' for Active; 'I' for Inactive)
REMARK    1  A    between atoms: C_2  and  C_4
REMARK    2  A    between atoms: C_7  and  O_8
REMARK    3  A    between atoms: O_8  and  C_9
REMARK    4  A    between atoms: C_9  and  C_10
REMARK    5  A    between atoms: C_10  and  C_11
REMARK    6  A    between atoms: C_11  and  C_12
REMARK    7  A    between atoms: C_12  and  C_13
REMARK    8  A    between atoms: C_13  and  O_14
REMARK    9  A    between atoms: O_14  and  C_15
REMARK   10  A    between atoms: C_18  and  C_21
REMARK                            x       y       z     vdW  Elec       q    Type
REMARK                         _______ _______ _______ _____ _____    ______ ____
ROOT
ATOM      1  C   UNL     1      -8.578   1.390 130.680  0.00  0.00    +0.000 C 
ENDROOT
BRANCH   1   2
ATOM      2  C   UNL     1      -8.693  -0.049 131.186  0.00  0.00    +0.000 C 
BRANCH   2   3
ATOM      3  C   UNL     1      -7.396  -0.816 130.939  0.00  0.00    +0.000 C 
BRANCH   3   4
ATOM      4  O   UNL     1      -7.692  -2.164 130.557  0.00  0.00    +0.000 OA
BRANCH   4   8
ATOM      5  C   UNL     1      -8.346  -3.033 126.523  0.00  0.00    +0.000 A 
ATOM      6  C   UNL     1      -8.889  -3.828 127.536  0.00  0.00    +0.000 A 
ATOM      7  C   UNL     1      -8.678  -3.483 128.878  0.00  0.00    +0.000 A 
ATOM      8  C   UNL     1      -7.891  -2.374 129.215  0.00  0.00    +0.000 A 
ATOM      9  C   UNL     1      -7.370  -1.578 128.192  0.00  0.00    +0.000 A 
ATOM     10  C   UNL     1      -7.593  -1.906 126.854  0.00  0.00    +0.000 A 
BRANCH   5  12
ATOM     11  N   UNL     1      -7.614  -3.724 124.271  0.00  0.00    +0.000 N 
ATOM     12  C   UNL     1      -8.623  -3.305 125.087  0.00  0.00    +0.000 C 
ATOM     13  N   UNL     1      -9.812  -3.095 124.630  0.00  0.00    +0.000 NA
ATOM     14  H   UNL     1      -7.829  -4.062 123.343  0.00  0.00    +0.000 HD
ATOM     15  H   UNL     1      -6.780  -4.123 124.689  0.00  0.00    +0.000 HD
ATOM     16  H   UNL     1      -9.831  -3.257 123.622  0.00  0.00    +0.000 HD
ENDBRANCH   5  12
ENDBRANCH   4   8
ENDBRANCH   3   4
ENDBRANCH   2   3
ENDBRANCH   1   2
BRANCH   1  17
ATOM     17  C   UNL     1      -9.181   2.390 131.664  0.00  0.00    +0.000 C 
BRANCH  17  18
ATOM     18  C   UNL     1     -10.182   3.320 130.976  0.00  0.00    +0.000 C 
BRANCH  18  19
ATOM     19  O   UNL     1      -9.899   4.652 131.404  0.00  0.00    +0.000 OA
BRANCH  19  20
ATOM     20  C   UNL     1     -10.692   5.620 130.855  0.00  0.00    +0.000 A 
ATOM     21  C   UNL     1     -10.310   6.071 129.596  0.00  0.00    +0.000 A 
ATOM     22  C   UNL     1     -10.988   7.131 128.986  0.00  0.00    +0.000 A 
ATOM     23  C   UNL     1     -12.099   7.719 129.600  0.00  0.00    +0.000 A 
ATOM     24  C   UNL     1     -12.458   7.281 130.885  0.00  0.00    +0.000 A 
ATOM     25  C   UNL     1     -11.752   6.241 131.511  0.00  0.00    +0.000 A 
BRANCH  23  26
ATOM     26  C   UNL     1     -12.896   8.763 128.864  0.00  0.00    +0.000 C 
ATOM     27  N   UNL     1     -13.817   8.418 127.922  0.00  0.00    +0.000 N 
ATOM     28  N   UNL     1     -12.790  10.035 129.072  0.00  0.00    +0.000 NA
ATOM     29  H   UNL     1     -14.137   7.480 127.752  0.00  0.00    +0.000 HD
ATOM     30  H   UNL     1     -14.400   9.173 127.580  0.00  0.00    +0.000 HD
ATOM     31  H   UNL     1     -12.096  10.265 129.782  0.00  0.00    +0.000 HD
ENDBRANCH  23  26
ENDBRANCH  19  20
ENDBRANCH  18  19
ENDBRANCH  17  18
ENDBRANCH   1  17
TORSDOF 10
ENDMDL
MODEL 8
REMARK VINA RESULT:      -6.8      3.626      5.740
REMARK  Name = Pentamidine
REMARK  10 active torsions:
REMARK  status: ('A' for Active; 'I' for Inactive)
REMARK    1  A    between atoms: C_2  and  C_4
REMARK    2  A    between atoms: C_7  and  O_8
REMARK    3  A    between atoms: O_8  and  C_9
REMARK    4  A    between atoms: C_9  and  C_10
REMARK    5  A    between atoms: C_10  and  C_11
REMARK    6  A    between atoms: C_11  and  C_12
REMARK    7  A    between atoms: C_12  and  C_13
REMARK    8  A    between atoms: C_13  and  O_14
REMARK    9  A    between atoms: O_14  and  C_15
REMARK   10  A    between atoms: C_18  and  C_21
REMARK                            x       y       z     vdW  Elec       q    Type
REMARK                         _______ _______ _______ _____ _____    ______ ____
ROOT
ATOM      1  C   UNL     1      -8.570  -3.339 128.828  0.00  0.00    +0.000 C 
ENDROOT
BRANCH   1   2
ATOM      2  C   UNL     1      -7.107  -3.245 129.268  0.00  0.00    +0.000 C 
BRANCH   2   3
ATOM      3  C   UNL     1      -6.779  -1.839 129.764  0.00  0.00    +0.000 C 
BRANCH   3   4
ATOM      4  O   UNL     1      -7.783  -0.920 129.321  0.00  0.00    +0.000 OA
BRANCH   4   8
ATOM      5  C   UNL     1      -6.158   2.454 127.466  0.00  0.00    +0.000 A 
ATOM      6  C   UNL     1      -5.424   1.272 127.601  0.00  0.00    +0.000 A 
ATOM      7  C   UNL     1      -6.016   0.150 128.196  0.00  0.00    +0.000 A 
ATOM      8  C   UNL     1      -7.322   0.214 128.697  0.00  0.00    +0.000 A 
ATOM      9  C   UNL     1      -8.051   1.395 128.539  0.00  0.00    +0.000 A 
ATOM     10  C   UNL     1      -7.473   2.509 127.930  0.00  0.00    +0.000 A 
BRANCH   5  12
ATOM     11  N   UNL     1      -5.034   3.484 125.527  0.00  0.00    +0.000 N 
ATOM     12  C   UNL     1      -5.605   3.638 126.756  0.00  0.00    +0.000 C 
ATOM     13  N   UNL     1      -5.639   4.789 127.341  0.00  0.00    +0.000 NA
ATOM     14  H   UNL     1      -4.805   4.299 124.976  0.00  0.00    +0.000 HD
ATOM     15  H   UNL     1      -5.247   2.650 124.990  0.00  0.00    +0.000 HD
ATOM     16  H   UNL     1      -5.163   5.484 126.765  0.00  0.00    +0.000 HD
ENDBRANCH   5  12
ENDBRANCH   4   8
ENDBRANCH   3   4
ENDBRANCH   2   3
ENDBRANCH   1   2
BRANCH   1  17
ATOM     17  C   UNL     1      -8.699  -3.809 127.380  0.00  0.00    +0.000 C 
BRANCH  17  18
ATOM     18  C   UNL     1      -8.148  -2.768 126.403  0.00  0.00    +0.000 C 
BRANCH  18  19
ATOM     19  O   UNL     1      -9.225  -1.906 126.038  0.00  0.00    +0.000 OA
BRANCH  19  20
ATOM     20  C   UNL     1      -8.853  -0.698 125.519  0.00  0.00    +0.000 A 
ATOM     21  C   UNL     1      -9.833   0.290 125.526  0.00  0.00    +0.000 A 
ATOM     22  C   UNL     1      -9.594   1.531 124.926  0.00  0.00    +0.000 A 
ATOM     23  C   UNL     1      -8.348   1.825 124.361  0.00  0.00    +0.000 A 
ATOM     24  C   UNL     1      -7.376   0.813 124.328  0.00  0.00    +0.000 A 
ATOM     25  C   UNL     1      -7.632  -0.445 124.898  0.00  0.00    +0.000 A 
BRANCH  23  26
ATOM     26  C   UNL     1      -8.070   3.213 123.846  0.00  0.00    +0.000 C 
ATOM     27  N   UNL     1      -7.756   3.434 122.539  0.00  0.00    +0.000 N 
ATOM     28  N   UNL     1      -8.125   4.279 124.574  0.00  0.00    +0.000 NA
ATOM     29  H   UNL     1      -7.826   2.745 121.810  0.00  0.00    +0.000 HD
ATOM     30  H   UNL     1      -7.722   4.405 122.254  0.00  0.00    +0.000 HD
ATOM     31  H   UNL     1      -8.363   4.086 125.546  0.00  0.00    +0.000 HD
ENDBRANCH  23  26
ENDBRANCH  19  20
ENDBRANCH  18  19
ENDBRANCH  17  18
ENDBRANCH   1  17
TORSDOF 10
ENDMDL
MODEL 9
REMARK VINA RESULT:      -6.8      2.956     10.087
REMARK  Name = Pentamidine
REMARK  10 active torsions:
REMARK  status: ('A' for Active; 'I' for Inactive)
REMARK    1  A    between atoms: C_2  and  C_4
REMARK    2  A    between atoms: C_7  and  O_8
REMARK    3  A    between atoms: O_8  and  C_9
REMARK    4  A    between atoms: C_9  and  C_10
REMARK    5  A    between atoms: C_10  and  C_11
REMARK    6  A    between atoms: C_11  and  C_12
REMARK    7  A    between atoms: C_12  and  C_13
REMARK    8  A    between atoms: C_13  and  O_14
REMARK    9  A    between atoms: O_14  and  C_15
REMARK   10  A    between atoms: C_18  and  C_21
REMARK                            x       y       z     vdW  Elec       q    Type
REMARK                         _______ _______ _______ _____ _____    ______ ____
ROOT
ATOM      1  C   UNL     1      -9.052  -3.229 126.123  0.00  0.00    +0.000 C 
ENDROOT
BRANCH   1   2
ATOM      2  C   UNL     1      -8.403  -3.710 124.823  0.00  0.00    +0.000 C 
BRANCH   2   3
ATOM      3  C   UNL     1      -9.162  -3.178 123.609  0.00  0.00    +0.000 C 
BRANCH   3   4
ATOM      4  O   UNL     1      -8.286  -2.394 122.793  0.00  0.00    +0.000 OA
BRANCH   4   8
ATOM      5  C   UNL     1      -8.202   1.686 123.689  0.00  0.00    +0.000 A 
ATOM      6  C   UNL     1      -9.399   1.032 123.386  0.00  0.00    +0.000 A 
ATOM      7  C   UNL     1      -9.392  -0.345 123.127  0.00  0.00    +0.000 A 
ATOM      8  C   UNL     1      -8.190  -1.065 123.125  0.00  0.00    +0.000 A 
ATOM      9  C   UNL     1      -7.003  -0.402 123.448  0.00  0.00    +0.000 A 
ATOM     10  C   UNL     1      -7.008   0.965 123.726  0.00  0.00    +0.000 A 
BRANCH   5  12
ATOM     11  N   UNL     1      -7.250   3.955 123.500  0.00  0.00    +0.000 N 
ATOM     12  C   UNL     1      -8.174   3.126 124.065  0.00  0.00    +0.000 C 
ATOM     13  N   UNL     1      -9.003   3.554 124.958  0.00  0.00    +0.000 NA
ATOM     14  H   UNL     1      -7.330   4.954 123.628  0.00  0.00    +0.000 HD
ATOM     15  H   UNL     1      -6.798   3.668 122.638  0.00  0.00    +0.000 HD
ATOM     16  H   UNL     1      -8.818   4.537 125.159  0.00  0.00    +0.000 HD
ENDBRANCH   5  12
ENDBRANCH   4   8
ENDBRANCH   3   4
ENDBRANCH   2   3
ENDBRANCH   1   2
BRANCH   1  17
ATOM     17  C   UNL     1      -8.101  -2.363 126.947  0.00  0.00    +0.000 C 
BRANCH  17  18
ATOM     18  C   UNL     1      -8.079  -2.796 128.414  0.00  0.00    +0.000 C 
BRANCH  18  19
ATOM     19  O   UNL     1      -6.719  -3.039 128.773  0.00  0.00    +0.000 OA
BRANCH  19  20
ATOM     20  C   UNL     1      -6.527  -3.500 130.044  0.00  0.00    +0.000 A 
ATOM     21  C   UNL     1      -7.252  -2.851 131.038  0.00  0.00    +0.000 A 
ATOM     22  C   UNL     1      -7.056  -3.172 132.385  0.00  0.00    +0.000 A 
ATOM     23  C   UNL     1      -6.171  -4.192 132.757  0.00  0.00    +0.000 A 
ATOM     24  C   UNL     1      -5.419  -4.819 131.751  0.00  0.00    +0.000 A 
ATOM     25  C   UNL     1      -5.591  -4.468 130.402  0.00  0.00    +0.000 A 
BRANCH  23  26
ATOM     26  C   UNL     1      -6.080  -4.613 134.200  0.00  0.00    +0.000 C 
ATOM     27  N   UNL     1      -5.501  -3.811 135.137  0.00  0.00    +0.000 N 
ATOM     28  N   UNL     1      -6.547  -5.727 134.659  0.00  0.00    +0.000 NA
ATOM     29  H   UNL     1      -5.233  -2.854 134.983  0.00  0.00    +0.000 HD
ATOM     30  H   UNL     1      -5.607  -4.112 136.098  0.00  0.00    +0.000 HD
ATOM     31  H   UNL     1      -6.976  -6.306 133.938  0.00  0.00    +0.000 HD
ENDBRANCH  23  26
ENDBRANCH  19  20
ENDBRANCH  18  19
ENDBRANCH  17  18
ENDBRANCH   1  17
TORSDOF 10
ENDMDL
