MODEL 1
REMARK VINA RESULT:      -7.1      0.000      0.000
REMARK  Name = Perazine
REMARK  5 active torsions:
REMARK  status: ('A' for Active; 'I' for Inactive)
REMARK    1  A    between atoms: C_1  and  N_2
REMARK    2  A    between atoms: N_5  and  C_6
REMARK    3  A    between atoms: C_6  and  C_7
REMARK    4  A    between atoms: C_7  and  C_8
REMARK    5  A    between atoms: C_8  and  N_9
REMARK                            x       y       z     vdW  Elec       q    Type
REMARK                         _______ _______ _______ _____ _____    ______ ____
ROOT
ATOM      1  N   UNL     1      -6.365  -1.206 126.183  0.00  0.00    +0.000 N 
ATOM      2  C   UNL     1      -6.878  -1.477 124.892  0.00  0.00    +0.000 A 
ATOM      3  C   UNL     1      -6.085  -1.323 123.744  0.00  0.00    +0.000 A 
ATOM      4  C   UNL     1      -6.514  -1.797 122.505  0.00  0.00    +0.000 A 
ATOM      5  C   UNL     1      -7.761  -2.403 122.383  0.00  0.00    +0.000 A 
ATOM      6  C   UNL     1      -8.590  -2.519 123.496  0.00  0.00    +0.000 A 
ATOM      7  C   UNL     1      -8.156  -2.063 124.745  0.00  0.00    +0.000 A 
ATOM      8  S   UNL     1      -9.246  -2.267 126.154  0.00  0.00    +0.000 S 
ATOM      9  C   UNL     1      -8.011  -2.546 127.416  0.00  0.00    +0.000 A 
ATOM     10  C   UNL     1      -8.349  -3.331 128.528  0.00  0.00    +0.000 A 
ATOM     11  C   UNL     1      -7.416  -3.581 129.533  0.00  0.00    +0.000 A 
ATOM     12  C   UNL     1      -6.115  -3.125 129.383  0.00  0.00    +0.000 A 
ATOM     13  C   UNL     1      -5.764  -2.452 128.220  0.00  0.00    +0.000 A 
ATOM     14  C   UNL     1      -6.709  -2.028 127.276  0.00  0.00    +0.000 A 
ENDROOT
BRANCH   1  15
ATOM     15  C   UNL     1      -5.390  -0.091 126.294  0.00  0.00    +0.000 C 
BRANCH  15  16
ATOM     16  C   UNL     1      -6.031   1.259 126.548  0.00  0.00    +0.000 C 
BRANCH  16  17
ATOM     17  C   UNL     1      -5.541   2.381 125.667  0.00  0.00    +0.000 C 
BRANCH  17  22
ATOM     18  C   UNL     1      -5.821   3.355 121.027  0.00  0.00    +0.000 C 
ATOM     19  N   UNL     1      -6.463   3.523 122.319  0.00  0.00    +0.000 NA
ATOM     20  C   UNL     1      -5.597   4.262 123.259  0.00  0.00    +0.000 C 
ATOM     21  C   UNL     1      -6.272   4.440 124.637  0.00  0.00    +0.000 C 
ATOM     22  N   UNL     1      -6.715   3.165 125.228  0.00  0.00    +0.000 NA
ATOM     23  C   UNL     1      -7.559   2.449 124.236  0.00  0.00    +0.000 C 
ATOM     24  C   UNL     1      -6.834   2.221 122.899  0.00  0.00    +0.000 C 
ENDBRANCH  17  22
ENDBRANCH  16  17
ENDBRANCH  15  16
ENDBRANCH   1  15
TORSDOF 4
ENDMDL
MODEL 2
REMARK VINA RESULT:      -7.0      1.900      2.380
REMARK  Name = Perazine
REMARK  5 active torsions:
REMARK  status: ('A' for Active; 'I' for Inactive)
REMARK    1  A    between atoms: C_1  and  N_2
REMARK    2  A    between atoms: N_5  and  C_6
REMARK    3  A    between atoms: C_6  and  C_7
REMARK    4  A    between atoms: C_7  and  C_8
REMARK    5  A    between atoms: C_8  and  N_9
REMARK                            x       y       z     vdW  Elec       q    Type
REMARK                         _______ _______ _______ _____ _____    ______ ____
ROOT
ATOM      1  N   UNL     1      -6.053  -1.593 126.868  0.00  0.00    +0.000 N 
ATOM      2  C   UNL     1      -6.947  -2.090 125.891  0.00  0.00    +0.000 A 
ATOM      3  C   UNL     1      -6.680  -1.952 124.519  0.00  0.00    +0.000 A 
ATOM      4  C   UNL     1      -7.441  -2.629 123.566  0.00  0.00    +0.000 A 
ATOM      5  C   UNL     1      -8.506  -3.431 123.965  0.00  0.00    +0.000 A 
ATOM      6  C   UNL     1      -8.825  -3.542 125.316  0.00  0.00    +0.000 A 
ATOM      7  C   UNL     1      -8.054  -2.881 126.277  0.00  0.00    +0.000 A 
ATOM      8  S   UNL     1      -8.484  -3.084 128.005  0.00  0.00    +0.000 S 
ATOM      9  C   UNL     1      -6.841  -3.017 128.706  0.00  0.00    +0.000 A 
ATOM     10  C   UNL     1      -6.588  -3.709 129.899  0.00  0.00    +0.000 A 
ATOM     11  C   UNL     1      -5.320  -3.691 130.478  0.00  0.00    +0.000 A 
ATOM     12  C   UNL     1      -4.278  -3.060 129.815  0.00  0.00    +0.000 A 
ATOM     13  C   UNL     1      -4.516  -2.482 128.575  0.00  0.00    +0.000 A 
ATOM     14  C   UNL     1      -5.805  -2.324 128.049  0.00  0.00    +0.000 A 
ENDROOT
BRANCH   1  15
ATOM     15  C   UNL     1      -5.335  -0.335 126.540  0.00  0.00    +0.000 C 
BRANCH  15  16
ATOM     16  C   UNL     1      -6.126   0.920 126.851  0.00  0.00    +0.000 C 
BRANCH  16  17
ATOM     17  C   UNL     1      -6.671   1.652 125.649  0.00  0.00    +0.000 C 
BRANCH  17  22
ATOM     18  C   UNL     1     -10.213   0.786 122.606  0.00  0.00    +0.000 C 
ATOM     19  N   UNL     1      -9.850   1.425 123.858  0.00  0.00    +0.000 NA
ATOM     20  C   UNL     1      -8.833   2.475 123.651  0.00  0.00    +0.000 C 
ATOM     21  C   UNL     1      -8.438   3.157 124.981  0.00  0.00    +0.000 C 
ATOM     22  N   UNL     1      -7.997   2.198 126.009  0.00  0.00    +0.000 NA
ATOM     23  C   UNL     1      -9.040   1.149 126.160  0.00  0.00    +0.000 C 
ATOM     24  C   UNL     1      -9.359   0.438 124.835  0.00  0.00    +0.000 C 
ENDBRANCH  17  22
ENDBRANCH  16  17
ENDBRANCH  15  16
ENDBRANCH   1  15
TORSDOF 4
ENDMDL
MODEL 3
REMARK VINA RESULT:      -6.7      2.486      5.017
REMARK  Name = Perazine
REMARK  5 active torsions:
REMARK  status: ('A' for Active; 'I' for Inactive)
REMARK    1  A    between atoms: C_1  and  N_2
REMARK    2  A    between atoms: N_5  and  C_6
REMARK    3  A    between atoms: C_6  and  C_7
REMARK    4  A    between atoms: C_7  and  C_8
REMARK    5  A    between atoms: C_8  and  N_9
REMARK                            x       y       z     vdW  Elec       q    Type
REMARK                         _______ _______ _______ _____ _____    ______ ____
ROOT
ATOM      1  N   UNL     1      -7.746  -0.087 126.439  0.00  0.00    +0.000 N 
ATOM      2  C   UNL     1      -7.910  -1.368 127.017  0.00  0.00    +0.000 A 
ATOM      3  C   UNL     1      -7.934  -1.542 128.410  0.00  0.00    +0.000 A 
ATOM      4  C   UNL     1      -8.314  -2.759 128.977  0.00  0.00    +0.000 A 
ATOM      5  C   UNL     1      -8.644  -3.836 128.160  0.00  0.00    +0.000 A 
ATOM      6  C   UNL     1      -8.575  -3.705 126.775  0.00  0.00    +0.000 A 
ATOM      7  C   UNL     1      -8.214  -2.482 126.202  0.00  0.00    +0.000 A 
ATOM      8  S   UNL     1      -8.174  -2.356 124.414  0.00  0.00    +0.000 S 
ATOM      9  C   UNL     1      -8.700  -0.655 124.249  0.00  0.00    +0.000 A 
ATOM     10  C   UNL     1      -9.389  -0.272 123.090  0.00  0.00    +0.000 A 
ATOM     11  C   UNL     1      -9.824   1.042 122.921  0.00  0.00    +0.000 A 
ATOM     12  C   UNL     1      -9.655   1.953 123.953  0.00  0.00    +0.000 A 
ATOM     13  C   UNL     1      -9.078   1.528 125.143  0.00  0.00    +0.000 A 
ATOM     14  C   UNL     1      -8.469   0.274 125.283  0.00  0.00    +0.000 A 
ENDROOT
BRANCH   1  15
ATOM     15  C   UNL     1      -6.861   0.863 127.159  0.00  0.00    +0.000 C 
BRANCH  15  16
ATOM     16  C   UNL     1      -5.605   1.231 126.393  0.00  0.00    +0.000 C 
BRANCH  16  17
ATOM     17  C   UNL     1      -4.518   1.882 127.213  0.00  0.00    +0.000 C 
BRANCH  17  22
ATOM     18  C   UNL     1      -3.695   6.381 128.491  0.00  0.00    +0.000 C 
ATOM     19  N   UNL     1      -3.445   5.366 127.484  0.00  0.00    +0.000 NA
ATOM     20  C   UNL     1      -4.702   4.912 126.854  0.00  0.00    +0.000 C 
ATOM     21  C   UNL     1      -4.444   3.828 125.784  0.00  0.00    +0.000 C 
ATOM     22  N   UNL     1      -3.674   2.682 126.301  0.00  0.00    +0.000 NA
ATOM     23  C   UNL     1      -2.436   3.193 126.946  0.00  0.00    +0.000 C 
ATOM     24  C   UNL     1      -2.728   4.215 128.057  0.00  0.00    +0.000 C 
ENDBRANCH  17  22
ENDBRANCH  16  17
ENDBRANCH  15  16
ENDBRANCH   1  15
TORSDOF 4
ENDMDL
MODEL 4
REMARK VINA RESULT:      -6.6      2.352      3.356
REMARK  Name = Perazine
REMARK  5 active torsions:
REMARK  status: ('A' for Active; 'I' for Inactive)
REMARK    1  A    between atoms: C_1  and  N_2
REMARK    2  A    between atoms: N_5  and  C_6
REMARK    3  A    between atoms: C_6  and  C_7
REMARK    4  A    between atoms: C_7  and  C_8
REMARK    5  A    between atoms: C_8  and  N_9
REMARK                            x       y       z     vdW  Elec       q    Type
REMARK                         _______ _______ _______ _____ _____    ______ ____
ROOT
ATOM      1  N   UNL     1      -5.955  -1.644 127.034  0.00  0.00    +0.000 N 
ATOM      2  C   UNL     1      -6.888  -2.104 126.075  0.00  0.00    +0.000 A 
ATOM      3  C   UNL     1      -6.651  -1.960 124.699  0.00  0.00    +0.000 A 
ATOM      4  C   UNL     1      -7.454  -2.605 123.759  0.00  0.00    +0.000 A 
ATOM      5  C   UNL     1      -8.533  -3.378 124.177  0.00  0.00    +0.000 A 
ATOM      6  C   UNL     1      -8.823  -3.492 125.534  0.00  0.00    +0.000 A 
ATOM      7  C   UNL     1      -8.009  -2.864 126.482  0.00  0.00    +0.000 A 
ATOM      8  S   UNL     1      -8.403  -3.070 128.218  0.00  0.00    +0.000 S 
ATOM      9  C   UNL     1      -6.742  -3.061 128.879  0.00  0.00    +0.000 A 
ATOM     10  C   UNL     1      -6.482  -3.771 130.059  0.00  0.00    +0.000 A 
ATOM     11  C   UNL     1      -5.199  -3.798 130.607  0.00  0.00    +0.000 A 
ATOM     12  C   UNL     1      -4.155  -3.192 129.924  0.00  0.00    +0.000 A 
ATOM     13  C   UNL     1      -4.406  -2.595 128.695  0.00  0.00    +0.000 A 
ATOM     14  C   UNL     1      -5.702  -2.393 128.202  0.00  0.00    +0.000 A 
ENDROOT
BRANCH   1  15
ATOM     15  C   UNL     1      -5.208  -0.404 126.700  0.00  0.00    +0.000 C 
BRANCH  15  16
ATOM     16  C   UNL     1      -5.872   0.865 127.196  0.00  0.00    +0.000 C 
BRANCH  16  17
ATOM     17  C   UNL     1      -4.929   1.946 127.662  0.00  0.00    +0.000 C 
BRANCH  17  22
ATOM     18  C   UNL     1      -2.588   6.006 128.431  0.00  0.00    +0.000 C 
ATOM     19  N   UNL     1      -3.050   5.072 127.420  0.00  0.00    +0.000 NA
ATOM     20  C   UNL     1      -4.523   4.965 127.419  0.00  0.00    +0.000 C 
ATOM     21  C   UNL     1      -5.021   3.970 126.347  0.00  0.00    +0.000 C 
ATOM     22  N   UNL     1      -4.401   2.639 126.467  0.00  0.00    +0.000 NA
ATOM     23  C   UNL     1      -2.924   2.803 126.491  0.00  0.00    +0.000 C 
ATOM     24  C   UNL     1      -2.452   3.740 127.614  0.00  0.00    +0.000 C 
ENDBRANCH  17  22
ENDBRANCH  16  17
ENDBRANCH  15  16
ENDBRANCH   1  15
TORSDOF 4
ENDMDL
MODEL 5
REMARK VINA RESULT:      -6.5      3.561      6.153
REMARK  Name = Perazine
REMARK  5 active torsions:
REMARK  status: ('A' for Active; 'I' for Inactive)
REMARK    1  A    between atoms: C_1  and  N_2
REMARK    2  A    between atoms: N_5  and  C_6
REMARK    3  A    between atoms: C_6  and  C_7
REMARK    4  A    between atoms: C_7  and  C_8
REMARK    5  A    between atoms: C_8  and  N_9
REMARK                            x       y       z     vdW  Elec       q    Type
REMARK                         _______ _______ _______ _____ _____    ______ ____
ROOT
ATOM      1  N   UNL     1      -6.326   3.312 124.590  0.00  0.00    +0.000 N 
ATOM      2  C   UNL     1      -6.175   3.756 123.255  0.00  0.00    +0.000 A 
ATOM      3  C   UNL     1      -5.012   4.421 122.834  0.00  0.00    +0.000 A 
ATOM      4  C   UNL     1      -4.769   4.660 121.482  0.00  0.00    +0.000 A 
ATOM      5  C   UNL     1      -5.701   4.268 120.526  0.00  0.00    +0.000 A 
ATOM      6  C   UNL     1      -6.888   3.656 120.922  0.00  0.00    +0.000 A 
ATOM      7  C   UNL     1      -7.127   3.396 122.274  0.00  0.00    +0.000 A 
ATOM      8  S   UNL     1      -8.653   2.573 122.729  0.00  0.00    +0.000 S 
ATOM      9  C   UNL     1      -8.050   1.628 124.122  0.00  0.00    +0.000 A 
ATOM     10  C   UNL     1      -8.674   0.411 124.431  0.00  0.00    +0.000 A 
ATOM     11  C   UNL     1      -8.232  -0.363 125.504  0.00  0.00    +0.000 A 
ATOM     12  C   UNL     1      -7.107   0.033 126.211  0.00  0.00    +0.000 A 
ATOM     13  C   UNL     1      -6.428   1.178 125.816  0.00  0.00    +0.000 A 
ATOM     14  C   UNL     1      -6.940   2.072 124.866  0.00  0.00    +0.000 A 
ENDROOT
BRANCH   1  15
ATOM     15  C   UNL     1      -5.728   4.163 125.650  0.00  0.00    +0.000 C 
BRANCH  15  16
ATOM     16  C   UNL     1      -4.295   3.803 125.990  0.00  0.00    +0.000 C 
BRANCH  16  17
ATOM     17  C   UNL     1      -3.894   4.041 127.424  0.00  0.00    +0.000 C 
BRANCH  17  22
ATOM     18  C   UNL     1      -1.824   6.242 131.088  0.00  0.00    +0.000 C 
ATOM     19  N   UNL     1      -2.916   6.293 130.133  0.00  0.00    +0.000 NA
ATOM     20  C   UNL     1      -3.813   5.129 130.279  0.00  0.00    +0.000 C 
ATOM     21  C   UNL     1      -4.976   5.173 129.263  0.00  0.00    +0.000 C 
ATOM     22  N   UNL     1      -4.515   5.306 127.869  0.00  0.00    +0.000 NA
ATOM     23  C   UNL     1      -3.598   6.473 127.781  0.00  0.00    +0.000 C 
ATOM     24  C   UNL     1      -2.410   6.364 128.752  0.00  0.00    +0.000 C 
ENDBRANCH  17  22
ENDBRANCH  16  17
ENDBRANCH  15  16
ENDBRANCH   1  15
TORSDOF 4
ENDMDL
MODEL 6
REMARK VINA RESULT:      -6.3      3.465      5.678
REMARK  Name = Perazine
REMARK  5 active torsions:
REMARK  status: ('A' for Active; 'I' for Inactive)
REMARK    1  A    between atoms: C_1  and  N_2
REMARK    2  A    between atoms: N_5  and  C_6
REMARK    3  A    between atoms: C_6  and  C_7
REMARK    4  A    between atoms: C_7  and  C_8
REMARK    5  A    between atoms: C_8  and  N_9
REMARK                            x       y       z     vdW  Elec       q    Type
REMARK                         _______ _______ _______ _____ _____    ______ ____
ROOT
ATOM      1  N   UNL     1      -7.715   0.414 125.438  0.00  0.00    +0.000 N 
ATOM      2  C   UNL     1      -7.433   1.546 124.637  0.00  0.00    +0.000 A 
ATOM      3  C   UNL     1      -6.388   2.426 124.960  0.00  0.00    +0.000 A 
ATOM      4  C   UNL     1      -5.970   3.407 124.061  0.00  0.00    +0.000 A 
ATOM      5  C   UNL     1      -6.612   3.549 122.835  0.00  0.00    +0.000 A 
ATOM      6  C   UNL     1      -7.687   2.723 122.513  0.00  0.00    +0.000 A 
ATOM      7  C   UNL     1      -8.097   1.725 123.402  0.00  0.00    +0.000 A 
ATOM      8  S   UNL     1      -9.463   0.666 122.926  0.00  0.00    +0.000 S 
ATOM      9  C   UNL     1      -8.921  -0.847 123.710  0.00  0.00    +0.000 A 
ATOM     10  C   UNL     1      -9.308  -2.072 123.150  0.00  0.00    +0.000 A 
ATOM     11  C   UNL     1      -8.904  -3.277 123.724  0.00  0.00    +0.000 A 
ATOM     12  C   UNL     1      -8.033  -3.259 124.804  0.00  0.00    +0.000 A 
ATOM     13  C   UNL     1      -7.562  -2.039 125.272  0.00  0.00    +0.000 A 
ATOM     14  C   UNL     1      -8.082  -0.811 124.842  0.00  0.00    +0.000 A 
ENDROOT
BRANCH   1  15
ATOM     15  C   UNL     1      -7.512   0.562 126.902  0.00  0.00    +0.000 C 
BRANCH  15  16
ATOM     16  C   UNL     1      -8.648   1.276 127.608  0.00  0.00    +0.000 C 
BRANCH  16  17
ATOM     17  C   UNL     1      -8.276   1.954 128.904  0.00  0.00    +0.000 C 
BRANCH  17  22
ATOM     18  C   UNL     1      -7.172   4.850 132.502  0.00  0.00    +0.000 C 
ATOM     19  N   UNL     1      -8.041   4.656 131.355  0.00  0.00    +0.000 NA
ATOM     20  C   UNL     1      -8.869   3.443 131.506  0.00  0.00    +0.000 C 
ATOM     21  C   UNL     1      -9.792   3.227 130.286  0.00  0.00    +0.000 C 
ATOM     22  N   UNL     1      -9.060   3.203 129.008  0.00  0.00    +0.000 NA
ATOM     23  C   UNL     1      -8.223   4.428 128.916  0.00  0.00    +0.000 C 
ATOM     24  C   UNL     1      -7.262   4.577 130.107  0.00  0.00    +0.000 C 
ENDBRANCH  17  22
ENDBRANCH  16  17
ENDBRANCH  15  16
ENDBRANCH   1  15
TORSDOF 4
ENDMDL
MODEL 7
REMARK VINA RESULT:      -6.2      2.624      4.504
REMARK  Name = Perazine
REMARK  5 active torsions:
REMARK  status: ('A' for Active; 'I' for Inactive)
REMARK    1  A    between atoms: C_1  and  N_2
REMARK    2  A    between atoms: N_5  and  C_6
REMARK    3  A    between atoms: C_6  and  C_7
REMARK    4  A    between atoms: C_7  and  C_8
REMARK    5  A    between atoms: C_8  and  N_9
REMARK                            x       y       z     vdW  Elec       q    Type
REMARK                         _______ _______ _______ _____ _____    ______ ____
ROOT
ATOM      1  N   UNL     1      -6.609   0.344 124.771  0.00  0.00    +0.000 N 
ATOM      2  C   UNL     1      -7.168   1.406 124.022  0.00  0.00    +0.000 A 
ATOM      3  C   UNL     1      -6.374   2.462 123.547  0.00  0.00    +0.000 A 
ATOM      4  C   UNL     1      -6.877   3.384 122.629  0.00  0.00    +0.000 A 
ATOM      5  C   UNL     1      -8.195   3.288 122.194  0.00  0.00    +0.000 A 
ATOM      6  C   UNL     1      -9.020   2.282 122.692  0.00  0.00    +0.000 A 
ATOM      7  C   UNL     1      -8.515   1.343 123.597  0.00  0.00    +0.000 A 
ATOM      8  S   UNL     1      -9.607   0.046 124.180  0.00  0.00    +0.000 S 
ATOM      9  C   UNL     1      -8.408  -1.270 124.340  0.00  0.00    +0.000 A 
ATOM     10  C   UNL     1      -8.836  -2.595 124.180  0.00  0.00    +0.000 A 
ATOM     11  C   UNL     1      -7.935  -3.654 124.289  0.00  0.00    +0.000 A 
ATOM     12  C   UNL     1      -6.585  -3.383 124.462  0.00  0.00    +0.000 A 
ATOM     13  C   UNL     1      -6.159  -2.061 124.497  0.00  0.00    +0.000 A 
ATOM     14  C   UNL     1      -7.049  -0.981 124.573  0.00  0.00    +0.000 A 
ENDROOT
BRANCH   1  15
ATOM     15  C   UNL     1      -5.492   0.688 125.688  0.00  0.00    +0.000 C 
BRANCH  15  16
ATOM     16  C   UNL     1      -5.944   1.165 127.053  0.00  0.00    +0.000 C 
BRANCH  16  17
ATOM     17  C   UNL     1      -5.217   2.374 127.588  0.00  0.00    +0.000 C 
BRANCH  17  22
ATOM     18  C   UNL     1      -3.729   6.491 129.430  0.00  0.00    +0.000 C 
ATOM     19  N   UNL     1      -4.732   5.854 128.595  0.00  0.00    +0.000 NA
ATOM     20  C   UNL     1      -5.507   4.852 129.354  0.00  0.00    +0.000 C 
ATOM     21  C   UNL     1      -6.573   4.167 128.470  0.00  0.00    +0.000 C 
ATOM     22  N   UNL     1      -6.009   3.574 127.244  0.00  0.00    +0.000 NA
ATOM     23  C   UNL     1      -5.219   4.613 126.533  0.00  0.00    +0.000 C 
ATOM     24  C   UNL     1      -4.117   5.224 127.415  0.00  0.00    +0.000 C 
ENDBRANCH  17  22
ENDBRANCH  16  17
ENDBRANCH  15  16
ENDBRANCH   1  15
TORSDOF 4
ENDMDL
MODEL 8
REMARK VINA RESULT:      -6.2      3.259      4.579
REMARK  Name = Perazine
REMARK  5 active torsions:
REMARK  status: ('A' for Active; 'I' for Inactive)
REMARK    1  A    between atoms: C_1  and  N_2
REMARK    2  A    between atoms: N_5  and  C_6
REMARK    3  A    between atoms: C_6  and  C_7
REMARK    4  A    between atoms: C_7  and  C_8
REMARK    5  A    between atoms: C_8  and  N_9
REMARK                            x       y       z     vdW  Elec       q    Type
REMARK                         _______ _______ _______ _____ _____    ______ ____
ROOT
ATOM      1  N   UNL     1      -6.060  -1.798 127.370  0.00  0.00    +0.000 N 
ATOM      2  C   UNL     1      -7.151  -2.145 126.539  0.00  0.00    +0.000 A 
ATOM      3  C   UNL     1      -7.113  -1.924 125.153  0.00  0.00    +0.000 A 
ATOM      4  C   UNL     1      -8.085  -2.463 124.311  0.00  0.00    +0.000 A 
ATOM      5  C   UNL     1      -9.135  -3.206 124.844  0.00  0.00    +0.000 A 
ATOM      6  C   UNL     1      -9.226  -3.393 126.221  0.00  0.00    +0.000 A 
ATOM      7  C   UNL     1      -8.243  -2.872 127.068  0.00  0.00    +0.000 A 
ATOM      8  S   UNL     1      -8.386  -3.171 128.829  0.00  0.00    +0.000 S 
ATOM      9  C   UNL     1      -6.648  -3.291 129.229  0.00  0.00    +0.000 A 
ATOM     10  C   UNL     1      -6.259  -4.090 130.313  0.00  0.00    +0.000 A 
ATOM     11  C   UNL     1      -4.913  -4.218 130.656  0.00  0.00    +0.000 A 
ATOM     12  C   UNL     1      -3.947  -3.624 129.858  0.00  0.00    +0.000 A 
ATOM     13  C   UNL     1      -4.341  -2.935 128.718  0.00  0.00    +0.000 A 
ATOM     14  C   UNL     1      -5.681  -2.634 128.441  0.00  0.00    +0.000 A 
ENDROOT
BRANCH   1  15
ATOM     15  C   UNL     1      -5.296  -0.580 126.997  0.00  0.00    +0.000 C 
BRANCH  15  16
ATOM     16  C   UNL     1      -5.977   0.715 127.392  0.00  0.00    +0.000 C 
BRANCH  16  17
ATOM     17  C   UNL     1      -5.632   1.231 128.767  0.00  0.00    +0.000 C 
BRANCH  17  22
ATOM     18  C   UNL     1      -8.790   3.959 131.034  0.00  0.00    +0.000 C 
ATOM     19  N   UNL     1      -8.272   2.610 130.886  0.00  0.00    +0.000 NA
ATOM     20  C   UNL     1      -6.843   2.541 131.250  0.00  0.00    +0.000 C 
ATOM     21  C   UNL     1      -6.283   1.109 131.090  0.00  0.00    +0.000 C 
ATOM     22  N   UNL     1      -6.508   0.551 129.745  0.00  0.00    +0.000 NA
ATOM     23  C   UNL     1      -7.953   0.669 129.417  0.00  0.00    +0.000 C 
ATOM     24  C   UNL     1      -8.464   2.117 129.512  0.00  0.00    +0.000 C 
ENDBRANCH  17  22
ENDBRANCH  16  17
ENDBRANCH  15  16
ENDBRANCH   1  15
TORSDOF 4
ENDMDL
MODEL 9
REMARK VINA RESULT:      -6.1      3.242      6.889
REMARK  Name = Perazine
REMARK  5 active torsions:
REMARK  status: ('A' for Active; 'I' for Inactive)
REMARK    1  A    between atoms: C_1  and  N_2
REMARK    2  A    between atoms: N_5  and  C_6
REMARK    3  A    between atoms: C_6  and  C_7
REMARK    4  A    between atoms: C_7  and  C_8
REMARK    5  A    between atoms: C_8  and  N_9
REMARK                            x       y       z     vdW  Elec       q    Type
REMARK                         _______ _______ _______ _____ _____    ______ ____
ROOT
ATOM      1  N   UNL     1      -7.730  -1.787 127.554  0.00  0.00    +0.000 N 
ATOM      2  C   UNL     1      -7.932  -2.296 126.249  0.00  0.00    +0.000 A 
ATOM      3  C   UNL     1      -9.083  -3.031 125.923  0.00  0.00    +0.000 A 
ATOM      4  C   UNL     1      -9.387  -3.341 124.598  0.00  0.00    +0.000 A 
ATOM      5  C   UNL     1      -8.527  -2.951 123.575  0.00  0.00    +0.000 A 
ATOM      6  C   UNL     1      -7.351  -2.268 123.878  0.00  0.00    +0.000 A 
ATOM      7  C   UNL     1      -7.051  -1.938 125.203  0.00  0.00    +0.000 A 
ATOM      8  S   UNL     1      -5.543  -1.029 125.536  0.00  0.00    +0.000 S 
ATOM      9  C   UNL     1      -6.114  -0.050 126.920  0.00  0.00    +0.000 A 
ATOM     10  C   UNL     1      -5.533   1.206 127.143  0.00  0.00    +0.000 A 
ATOM     11  C   UNL     1      -5.952   2.006 128.205  0.00  0.00    +0.000 A 
ATOM     12  C   UNL     1      -7.018   1.593 128.990  0.00  0.00    +0.000 A 
ATOM     13  C   UNL     1      -7.663   0.401 128.682  0.00  0.00    +0.000 A 
ATOM     14  C   UNL     1      -7.161  -0.510 127.743  0.00  0.00    +0.000 A 
ENDROOT
BRANCH   1  15
ATOM     15  C   UNL     1      -8.229  -2.616 128.681  0.00  0.00    +0.000 C 
BRANCH  15  16
ATOM     16  C   UNL     1      -7.252  -3.680 129.139  0.00  0.00    +0.000 C 
BRANCH  16  17
ATOM     17  C   UNL     1      -6.704  -3.495 130.532  0.00  0.00    +0.000 C 
BRANCH  17  22
ATOM     18  C   UNL     1      -2.885  -1.610 132.634  0.00  0.00    +0.000 C 
ATOM     19  N   UNL     1      -3.436  -2.803 132.016  0.00  0.00    +0.000 NA
ATOM     20  C   UNL     1      -3.794  -2.562 130.604  0.00  0.00    +0.000 C 
ATOM     21  C   UNL     1      -4.386  -3.827 129.942  0.00  0.00    +0.000 C 
ATOM     22  N   UNL     1      -5.531  -4.381 130.685  0.00  0.00    +0.000 NA
ATOM     23  C   UNL     1      -5.128  -4.580 132.102  0.00  0.00    +0.000 C 
ATOM     24  C   UNL     1      -4.613  -3.288 132.756  0.00  0.00    +0.000 C 
ENDBRANCH  17  22
ENDBRANCH  16  17
ENDBRANCH  15  16
ENDBRANCH   1  15
TORSDOF 4
ENDMDL
