MODEL 1
REMARK VINA RESULT:      -6.5      0.000      0.000
REMARK  Name = Peramivir
REMARK  12 active torsions:
REMARK  status: ('A' for Active; 'I' for Inactive)
REMARK    1  A    between atoms: C_2  and  C_3
REMARK    2  A    between atoms: C_3  and  N_4
REMARK    3  A    between atoms: C_3  and  C_8
REMARK    4  A    between atoms: C_5  and  C_6
REMARK    5  A    between atoms: C_8  and  C_9
REMARK    6  A    between atoms: C_8  and  C_11
REMARK    7  A    between atoms: C_9  and  C_10
REMARK    8  A    between atoms: C_11  and  C_12
REMARK    9  A    between atoms: C_13  and  O_14
REMARK   10  A    between atoms: C_15  and  C_22
REMARK   11  A    between atoms: C_17  and  N_18
REMARK   12  A    between atoms: C_22  and  O_23
REMARK                            x       y       z     vdW  Elec       q    Type
REMARK                         _______ _______ _______ _____ _____    ______ ____
ROOT
ATOM      1  C   UNL     1      -6.514   1.447 123.699  0.00  0.00    +0.000 C 
ATOM      2  C   UNL     1      -6.246   2.566 124.789  0.00  0.00    +0.000 C 
ATOM      3  C   UNL     1      -7.627   3.187 125.002  0.00  0.00    +0.000 C 
ATOM      4  C   UNL     1      -8.128   3.154 123.570  0.00  0.00    +0.000 C 
ATOM      5  C   UNL     1      -7.300   2.283 122.651  0.00  0.00    +0.000 C 
ENDROOT
BRANCH   5   6
ATOM      6  N   UNL     1      -6.476   3.104 121.743  0.00  0.00    +0.000 N 
ATOM      7  C   UNL     1      -6.843   3.899 120.690  0.00  0.00    +0.000 C 
ATOM      8  N   UNL     1      -8.136   4.021 120.328  0.00  0.00    +0.000 N 
ATOM      9  N   UNL     1      -6.020   4.644 120.042  0.00  0.00    +0.000 NA
ATOM     10  H   UNL     1      -5.478   2.929 121.820  0.00  0.00    +0.000 HD
ATOM     11  H   UNL     1      -8.701   3.187 120.222  0.00  0.00    +0.000 HD
ATOM     12  H   UNL     1      -8.364   4.797 119.724  0.00  0.00    +0.000 HD
ATOM     13  H   UNL     1      -5.076   4.508 120.394  0.00  0.00    +0.000 HD
ENDBRANCH   5   6
BRANCH   2  14
ATOM     14  O   UNL     1      -5.356   2.223 125.829  0.00  0.00    +0.000 OA
ATOM     15  H   UNL     1      -5.435   2.696 126.666  0.00  0.00    +0.000 HD
ENDBRANCH   2  14
BRANCH   3  16
ATOM     16  C   UNL     1      -7.841   4.508 125.710  0.00  0.00    +0.000 C 
ATOM     17  O   UNL     1      -7.022   4.899 126.561  0.00  0.00    +0.000 OA
BRANCH  16  18
ATOM     18  O   UNL     1      -9.012   5.151 125.570  0.00  0.00    +0.000 OA
ATOM     19  H   UNL     1      -9.414   5.237 124.685  0.00  0.00    +0.000 HD
ENDBRANCH  16  18
ENDBRANCH   3  16
BRANCH   1  20
ATOM     20  C   UNL     1      -7.324   0.058 124.010  0.00  0.00    +0.000 C 
BRANCH  20  21
ATOM     21  N   UNL     1      -7.346  -0.291 125.448  0.00  0.00    +0.000 N 
ATOM     22  C   UNL     1      -8.347  -0.153 126.363  0.00  0.00    +0.000 C 
ATOM     23  C   UNL     1      -9.695   0.332 125.913  0.00  0.00    +0.000 C 
ATOM     24  O   UNL     1      -8.098  -0.351 127.553  0.00  0.00    +0.000 OA
ATOM     25  H   UNL     1      -6.479  -0.591 125.887  0.00  0.00    +0.000 HD
ENDBRANCH  20  21
BRANCH  20  26
ATOM     26  C   UNL     1      -6.994  -1.266 123.204  0.00  0.00    +0.000 C 
BRANCH  26  27
ATOM     27  C   UNL     1      -6.141  -2.210 124.059  0.00  0.00    +0.000 C 
ATOM     28  C   UNL     1      -5.133  -3.032 123.269  0.00  0.00    +0.000 C 
ENDBRANCH  26  27
BRANCH  26  29
ATOM     29  C   UNL     1      -8.280  -1.918 122.632  0.00  0.00    +0.000 C 
ATOM     30  C   UNL     1      -8.981  -2.940 123.518  0.00  0.00    +0.000 C 
ENDBRANCH  26  29
ENDBRANCH  20  26
ENDBRANCH   1  20
TORSDOF 9
ENDMDL
MODEL 2
REMARK VINA RESULT:      -6.3      3.347      5.098
REMARK  Name = Peramivir
REMARK  12 active torsions:
REMARK  status: ('A' for Active; 'I' for Inactive)
REMARK    1  A    between atoms: C_2  and  C_3
REMARK    2  A    between atoms: C_3  and  N_4
REMARK    3  A    between atoms: C_3  and  C_8
REMARK    4  A    between atoms: C_5  and  C_6
REMARK    5  A    between atoms: C_8  and  C_9
REMARK    6  A    between atoms: C_8  and  C_11
REMARK    7  A    between atoms: C_9  and  C_10
REMARK    8  A    between atoms: C_11  and  C_12
REMARK    9  A    between atoms: C_13  and  O_14
REMARK   10  A    between atoms: C_15  and  C_22
REMARK   11  A    between atoms: C_17  and  N_18
REMARK   12  A    between atoms: C_22  and  O_23
REMARK                            x       y       z     vdW  Elec       q    Type
REMARK                         _______ _______ _______ _____ _____    ______ ____
ROOT
ATOM      1  C   UNL     1      -8.806   0.237 125.732  0.00  0.00    +0.000 C 
ATOM      2  C   UNL     1      -9.169   1.135 124.477  0.00  0.00    +0.000 C 
ATOM      3  C   UNL     1      -7.800   1.508 123.904  0.00  0.00    +0.000 C 
ATOM      4  C   UNL     1      -7.042   1.704 125.205  0.00  0.00    +0.000 C 
ATOM      5  C   UNL     1      -7.761   1.158 126.420  0.00  0.00    +0.000 C 
ENDROOT
BRANCH   5   6
ATOM      6  N   UNL     1      -8.316   2.251 127.242  0.00  0.00    +0.000 N 
ATOM      7  C   UNL     1      -8.567   2.308 128.587  0.00  0.00    +0.000 C 
ATOM      8  N   UNL     1      -8.315   1.252 129.386  0.00  0.00    +0.000 N 
ATOM      9  N   UNL     1      -8.963   3.370 129.191  0.00  0.00    +0.000 NA
ATOM     10  H   UNL     1      -8.709   3.016 126.700  0.00  0.00    +0.000 HD
ATOM     11  H   UNL     1      -8.638   0.333 129.109  0.00  0.00    +0.000 HD
ATOM     12  H   UNL     1      -8.283   1.436 130.379  0.00  0.00    +0.000 HD
ATOM     13  H   UNL     1      -9.105   4.121 128.519  0.00  0.00    +0.000 HD
ENDBRANCH   5   6
BRANCH   2  14
ATOM     14  O   UNL     1     -10.268   0.708 123.702  0.00  0.00    +0.000 OA
ATOM     15  H   UNL     1     -10.096   0.120 122.956  0.00  0.00    +0.000 HD
ENDBRANCH   2  14
BRANCH   3  16
ATOM     16  C   UNL     1      -7.601   2.616 122.892  0.00  0.00    +0.000 C 
ATOM     17  O   UNL     1      -6.479   2.806 122.389  0.00  0.00    +0.000 OA
BRANCH  16  18
ATOM     18  O   UNL     1      -8.578   3.516 122.695  0.00  0.00    +0.000 OA
ATOM     19  H   UNL     1      -9.186   3.737 123.427  0.00  0.00    +0.000 HD
ENDBRANCH  16  18
ENDBRANCH   3  16
BRANCH   1  20
ATOM     20  C   UNL     1      -8.205  -1.281 125.614  0.00  0.00    +0.000 C 
BRANCH  20  21
ATOM     21  N   UNL     1      -9.115  -2.212 124.910  0.00  0.00    +0.000 N 
ATOM     22  C   UNL     1      -9.128  -2.597 123.603  0.00  0.00    +0.000 C 
ATOM     23  C   UNL     1      -8.035  -2.127 122.686  0.00  0.00    +0.000 C 
ATOM     24  O   UNL     1     -10.082  -3.255 123.185  0.00  0.00    +0.000 OA
ATOM     25  H   UNL     1      -9.926  -2.568 125.411  0.00  0.00    +0.000 HD
ENDBRANCH  20  21
BRANCH  20  26
ATOM     26  C   UNL     1      -7.654  -2.032 126.896  0.00  0.00    +0.000 C 
BRANCH  26  27
ATOM     27  C   UNL     1      -8.454  -3.316 127.145  0.00  0.00    +0.000 C 
ATOM     28  C   UNL     1      -8.678  -3.640 128.615  0.00  0.00    +0.000 C 
ENDBRANCH  26  27
BRANCH  26  29
ATOM     29  C   UNL     1      -6.120  -2.248 126.812  0.00  0.00    +0.000 C 
ATOM     30  C   UNL     1      -5.458  -1.939 125.475  0.00  0.00    +0.000 C 
ENDBRANCH  26  29
ENDBRANCH  20  26
ENDBRANCH   1  20
TORSDOF 9
ENDMDL
MODEL 3
REMARK VINA RESULT:      -6.3      2.383      3.041
REMARK  Name = Peramivir
REMARK  12 active torsions:
REMARK  status: ('A' for Active; 'I' for Inactive)
REMARK    1  A    between atoms: C_2  and  C_3
REMARK    2  A    between atoms: C_3  and  N_4
REMARK    3  A    between atoms: C_3  and  C_8
REMARK    4  A    between atoms: C_5  and  C_6
REMARK    5  A    between atoms: C_8  and  C_9
REMARK    6  A    between atoms: C_8  and  C_11
REMARK    7  A    between atoms: C_9  and  C_10
REMARK    8  A    between atoms: C_11  and  C_12
REMARK    9  A    between atoms: C_13  and  O_14
REMARK   10  A    between atoms: C_15  and  C_22
REMARK   11  A    between atoms: C_17  and  N_18
REMARK   12  A    between atoms: C_22  and  O_23
REMARK                            x       y       z     vdW  Elec       q    Type
REMARK                         _______ _______ _______ _____ _____    ______ ____
ROOT
ATOM      1  C   UNL     1      -6.422   0.125 125.298  0.00  0.00    +0.000 C 
ATOM      2  C   UNL     1      -6.155   1.117 126.505  0.00  0.00    +0.000 C 
ATOM      3  C   UNL     1      -7.465   1.071 127.294  0.00  0.00    +0.000 C 
ATOM      4  C   UNL     1      -8.441   1.000 126.133  0.00  0.00    +0.000 C 
ATOM      5  C   UNL     1      -7.791   0.672 124.807  0.00  0.00    +0.000 C 
ENDROOT
BRANCH   5   6
ATOM      6  N   UNL     1      -7.728   1.864 123.939  0.00  0.00    +0.000 N 
ATOM      7  C   UNL     1      -8.609   2.322 122.997  0.00  0.00    +0.000 C 
ATOM      8  N   UNL     1      -9.748   1.652 122.727  0.00  0.00    +0.000 N 
ATOM      9  N   UNL     1      -8.472   3.440 122.379  0.00  0.00    +0.000 NA
ATOM     10  H   UNL     1      -6.821   2.325 123.938  0.00  0.00    +0.000 HD
ATOM     11  H   UNL     1      -9.710   0.652 122.571  0.00  0.00    +0.000 HD
ATOM     12  H   UNL     1     -10.460   2.158 122.220  0.00  0.00    +0.000 HD
ATOM     13  H   UNL     1      -7.603   3.887 122.658  0.00  0.00    +0.000 HD
ENDBRANCH   5   6
BRANCH   2  14
ATOM     14  O   UNL     1      -4.871   1.059 127.088  0.00  0.00    +0.000 OA
ATOM     15  H   UNL     1      -4.167   1.580 126.684  0.00  0.00    +0.000 HD
ENDBRANCH   2  14
BRANCH   3  16
ATOM     16  C   UNL     1      -7.828   2.087 128.356  0.00  0.00    +0.000 C 
ATOM     17  O   UNL     1      -9.014   2.431 128.510  0.00  0.00    +0.000 OA
BRANCH  16  18
ATOM     18  O   UNL     1      -6.853   2.765 128.983  0.00  0.00    +0.000 OA
ATOM     19  H   UNL     1      -5.928   2.460 128.910  0.00  0.00    +0.000 HD
ENDBRANCH  16  18
ENDBRANCH   3  16
BRANCH   1  20
ATOM     20  C   UNL     1      -6.511  -1.501 125.466  0.00  0.00    +0.000 C 
BRANCH  20  21
ATOM     21  N   UNL     1      -5.555  -2.034 126.463  0.00  0.00    +0.000 N 
ATOM     22  C   UNL     1      -5.770  -2.438 127.747  0.00  0.00    +0.000 C 
ATOM     23  C   UNL     1      -7.173  -2.468 128.285  0.00  0.00    +0.000 C 
ATOM     24  O   UNL     1      -4.800  -2.691 128.462  0.00  0.00    +0.000 OA
ATOM     25  H   UNL     1      -4.564  -2.026 126.236  0.00  0.00    +0.000 HD
ENDBRANCH  20  21
BRANCH  20  26
ATOM     26  C   UNL     1      -6.451  -2.448 124.196  0.00  0.00    +0.000 C 
BRANCH  26  27
ATOM     27  C   UNL     1      -4.998  -2.817 123.876  0.00  0.00    +0.000 C 
ATOM     28  C   UNL     1      -4.743  -4.313 123.762  0.00  0.00    +0.000 C 
ENDBRANCH  26  27
BRANCH  26  29
ATOM     29  C   UNL     1      -7.394  -3.669 124.354  0.00  0.00    +0.000 C 
ATOM     30  C   UNL     1      -8.887  -3.406 124.197  0.00  0.00    +0.000 C 
ENDBRANCH  26  29
ENDBRANCH  20  26
ENDBRANCH   1  20
TORSDOF 9
ENDMDL
MODEL 4
REMARK VINA RESULT:      -6.1      3.196      4.452
REMARK  Name = Peramivir
REMARK  12 active torsions:
REMARK  status: ('A' for Active; 'I' for Inactive)
REMARK    1  A    between atoms: C_2  and  C_3
REMARK    2  A    between atoms: C_3  and  N_4
REMARK    3  A    between atoms: C_3  and  C_8
REMARK    4  A    between atoms: C_5  and  C_6
REMARK    5  A    between atoms: C_8  and  C_9
REMARK    6  A    between atoms: C_8  and  C_11
REMARK    7  A    between atoms: C_9  and  C_10
REMARK    8  A    between atoms: C_11  and  C_12
REMARK    9  A    between atoms: C_13  and  O_14
REMARK   10  A    between atoms: C_15  and  C_22
REMARK   11  A    between atoms: C_17  and  N_18
REMARK   12  A    between atoms: C_22  and  O_23
REMARK                            x       y       z     vdW  Elec       q    Type
REMARK                         _______ _______ _______ _____ _____    ______ ____
ROOT
ATOM      1  C   UNL     1      -8.711   0.135 125.617  0.00  0.00    +0.000 C 
ATOM      2  C   UNL     1      -9.084   1.100 124.416  0.00  0.00    +0.000 C 
ATOM      3  C   UNL     1      -7.722   1.587 123.920  0.00  0.00    +0.000 C 
ATOM      4  C   UNL     1      -7.018   1.729 125.258  0.00  0.00    +0.000 C 
ATOM      5  C   UNL     1      -7.742   1.060 126.405  0.00  0.00    +0.000 C 
ENDROOT
BRANCH   5   6
ATOM      6  N   UNL     1      -8.384   2.059 127.281  0.00  0.00    +0.000 N 
ATOM      7  C   UNL     1      -8.602   2.041 128.633  0.00  0.00    +0.000 C 
ATOM      8  N   UNL     1      -8.220   0.990 129.385  0.00  0.00    +0.000 N 
ATOM      9  N   UNL     1      -9.089   3.034 129.286  0.00  0.00    +0.000 NA
ATOM     10  H   UNL     1      -8.869   2.797 126.778  0.00  0.00    +0.000 HD
ATOM     11  H   UNL     1      -8.454   0.053 129.081  0.00  0.00    +0.000 HD
ATOM     12  H   UNL     1      -8.180   1.141 130.383  0.00  0.00    +0.000 HD
ATOM     13  H   UNL     1      -9.326   3.789 128.647  0.00  0.00    +0.000 HD
ENDBRANCH   5   6
BRANCH   2  14
ATOM     14  O   UNL     1     -10.133   0.671 123.574  0.00  0.00    +0.000 OA
ATOM     15  H   UNL     1     -10.627  -0.117 123.832  0.00  0.00    +0.000 HD
ENDBRANCH   2  14
BRANCH   3  16
ATOM     16  C   UNL     1      -7.553   2.773 122.996  0.00  0.00    +0.000 C 
ATOM     17  O   UNL     1      -6.422   3.253 122.795  0.00  0.00    +0.000 OA
BRANCH  16  18
ATOM     18  O   UNL     1      -8.640   3.432 122.560  0.00  0.00    +0.000 OA
ATOM     19  H   UNL     1      -8.534   4.280 122.087  0.00  0.00    +0.000 HD
ENDBRANCH  16  18
ENDBRANCH   3  16
BRANCH   1  20
ATOM     20  C   UNL     1      -8.022  -1.336 125.415  0.00  0.00    +0.000 C 
BRANCH  20  21
ATOM     21  N   UNL     1      -7.175  -1.742 126.559  0.00  0.00    +0.000 N 
ATOM     22  C   UNL     1      -7.424  -2.643 127.551  0.00  0.00    +0.000 C 
ATOM     23  C   UNL     1      -8.685  -3.459 127.506  0.00  0.00    +0.000 C 
ATOM     24  O   UNL     1      -6.649  -2.707 128.506  0.00  0.00    +0.000 OA
ATOM     25  H   UNL     1      -6.311  -1.233 126.727  0.00  0.00    +0.000 HD
ENDBRANCH  20  21
BRANCH  20  26
ATOM     26  C   UNL     1      -7.225  -1.678 124.088  0.00  0.00    +0.000 C 
BRANCH  26  27
ATOM     27  C   UNL     1      -5.764  -2.007 124.415  0.00  0.00    +0.000 C 
ATOM     28  C   UNL     1      -5.198  -3.183 123.633  0.00  0.00    +0.000 C 
ENDBRANCH  26  27
BRANCH  26  29
ATOM     29  C   UNL     1      -7.949  -2.769 123.256  0.00  0.00    +0.000 C 
ATOM     30  C   UNL     1      -9.326  -3.201 123.745  0.00  0.00    +0.000 C 
ENDBRANCH  26  29
ENDBRANCH  20  26
ENDBRANCH   1  20
TORSDOF 9
ENDMDL
MODEL 5
REMARK VINA RESULT:      -5.9      2.849      4.907
REMARK  Name = Peramivir
REMARK  12 active torsions:
REMARK  status: ('A' for Active; 'I' for Inactive)
REMARK    1  A    between atoms: C_2  and  C_3
REMARK    2  A    between atoms: C_3  and  N_4
REMARK    3  A    between atoms: C_3  and  C_8
REMARK    4  A    between atoms: C_5  and  C_6
REMARK    5  A    between atoms: C_8  and  C_9
REMARK    6  A    between atoms: C_8  and  C_11
REMARK    7  A    between atoms: C_9  and  C_10
REMARK    8  A    between atoms: C_11  and  C_12
REMARK    9  A    between atoms: C_13  and  O_14
REMARK   10  A    between atoms: C_15  and  C_22
REMARK   11  A    between atoms: C_17  and  N_18
REMARK   12  A    between atoms: C_22  and  O_23
REMARK                            x       y       z     vdW  Elec       q    Type
REMARK                         _______ _______ _______ _____ _____    ______ ____
ROOT
ATOM      1  C   UNL     1      -7.251   0.313 126.381  0.00  0.00    +0.000 C 
ATOM      2  C   UNL     1      -7.348   1.843 126.784  0.00  0.00    +0.000 C 
ATOM      3  C   UNL     1      -6.355   2.520 125.838  0.00  0.00    +0.000 C 
ATOM      4  C   UNL     1      -5.270   1.458 125.831  0.00  0.00    +0.000 C 
ATOM      5  C   UNL     1      -5.708   0.131 126.410  0.00  0.00    +0.000 C 
ENDROOT
BRANCH   5   6
ATOM      6  N   UNL     1      -5.117  -0.085 127.745  0.00  0.00    +0.000 N 
ATOM      7  C   UNL     1      -4.955  -1.238 128.466  0.00  0.00    +0.000 C 
ATOM      8  N   UNL     1      -5.375  -2.425 127.983  0.00  0.00    +0.000 N 
ATOM      9  N   UNL     1      -4.327  -1.294 129.585  0.00  0.00    +0.000 NA
ATOM     10  H   UNL     1      -4.944   0.772 128.263  0.00  0.00    +0.000 HD
ATOM     11  H   UNL     1      -6.308  -2.499 127.595  0.00  0.00    +0.000 HD
ATOM     12  H   UNL     1      -5.010  -3.250 128.435  0.00  0.00    +0.000 HD
ATOM     13  H   UNL     1      -4.026  -0.363 129.862  0.00  0.00    +0.000 HD
ENDBRANCH   5   6
BRANCH   2  14
ATOM     14  O   UNL     1      -8.641   2.332 127.067  0.00  0.00    +0.000 OA
ATOM     15  H   UNL     1      -9.335   2.181 126.414  0.00  0.00    +0.000 HD
ENDBRANCH   2  14
BRANCH   3  16
ATOM     16  C   UNL     1      -5.848   3.931 126.042  0.00  0.00    +0.000 C 
ATOM     17  O   UNL     1      -4.681   4.226 125.726  0.00  0.00    +0.000 OA
BRANCH  16  18
ATOM     18  O   UNL     1      -6.585   4.803 126.750  0.00  0.00    +0.000 OA
ATOM     19  H   UNL     1      -6.808   5.672 126.365  0.00  0.00    +0.000 HD
ENDBRANCH  16  18
ENDBRANCH   3  16
BRANCH   1  20
ATOM     20  C   UNL     1      -7.847  -0.292 124.981  0.00  0.00    +0.000 C 
BRANCH  20  21
ATOM     21  N   UNL     1      -9.272   0.044 124.764  0.00  0.00    +0.000 N 
ATOM     22  C   UNL     1      -9.829   1.041 124.019  0.00  0.00    +0.000 C 
ATOM     23  C   UNL     1      -8.942   1.922 123.186  0.00  0.00    +0.000 C 
ATOM     24  O   UNL     1     -11.039   1.248 124.111  0.00  0.00    +0.000 OA
ATOM     25  H   UNL     1      -9.975  -0.453 125.305  0.00  0.00    +0.000 HD
ENDBRANCH  20  21
BRANCH  20  26
ATOM     26  C   UNL     1      -7.659  -1.824 124.619  0.00  0.00    +0.000 C 
BRANCH  26  27
ATOM     27  C   UNL     1      -9.003  -2.557 124.698  0.00  0.00    +0.000 C 
ATOM     28  C   UNL     1      -9.430  -3.223 123.398  0.00  0.00    +0.000 C 
ENDBRANCH  26  27
BRANCH  26  29
ATOM     29  C   UNL     1      -6.919  -2.002 123.268  0.00  0.00    +0.000 C 
ATOM     30  C   UNL     1      -5.532  -2.630 123.324  0.00  0.00    +0.000 C 
ENDBRANCH  26  29
ENDBRANCH  20  26
ENDBRANCH   1  20
TORSDOF 9
ENDMDL
MODEL 6
REMARK VINA RESULT:      -5.9      3.107      4.483
REMARK  Name = Peramivir
REMARK  12 active torsions:
REMARK  status: ('A' for Active; 'I' for Inactive)
REMARK    1  A    between atoms: C_2  and  C_3
REMARK    2  A    between atoms: C_3  and  N_4
REMARK    3  A    between atoms: C_3  and  C_8
REMARK    4  A    between atoms: C_5  and  C_6
REMARK    5  A    between atoms: C_8  and  C_9
REMARK    6  A    between atoms: C_8  and  C_11
REMARK    7  A    between atoms: C_9  and  C_10
REMARK    8  A    between atoms: C_11  and  C_12
REMARK    9  A    between atoms: C_13  and  O_14
REMARK   10  A    between atoms: C_15  and  C_22
REMARK   11  A    between atoms: C_17  and  N_18
REMARK   12  A    between atoms: C_22  and  O_23
REMARK                            x       y       z     vdW  Elec       q    Type
REMARK                         _______ _______ _______ _____ _____    ______ ____
ROOT
ATOM      1  C   UNL     1      -7.732  -0.028 125.802  0.00  0.00    +0.000 C 
ATOM      2  C   UNL     1      -8.829   0.937 125.187  0.00  0.00    +0.000 C 
ATOM      3  C   UNL     1      -8.208   1.372 123.858  0.00  0.00    +0.000 C 
ATOM      4  C   UNL     1      -6.762   1.502 124.300  0.00  0.00    +0.000 C 
ATOM      5  C   UNL     1      -6.474   0.870 125.644  0.00  0.00    +0.000 C 
ENDROOT
BRANCH   5   6
ATOM      6  N   UNL     1      -6.290   1.899 126.686  0.00  0.00    +0.000 N 
ATOM      7  C   UNL     1      -5.144   2.423 127.220  0.00  0.00    +0.000 C 
ATOM      8  N   UNL     1      -3.930   1.999 126.813  0.00  0.00    +0.000 N 
ATOM      9  N   UNL     1      -5.131   3.395 128.060  0.00  0.00    +0.000 NA
ATOM     10  H   UNL     1      -7.144   2.140 127.182  0.00  0.00    +0.000 HD
ATOM     11  H   UNL     1      -3.747   1.005 126.752  0.00  0.00    +0.000 HD
ATOM     12  H   UNL     1      -3.144   2.586 127.053  0.00  0.00    +0.000 HD
ATOM     13  H   UNL     1      -6.083   3.666 128.292  0.00  0.00    +0.000 HD
ENDBRANCH   5   6
BRANCH   2  14
ATOM     14  O   UNL     1     -10.173   0.536 125.346  0.00  0.00    +0.000 OA
ATOM     15  H   UNL     1     -10.583   0.663 126.210  0.00  0.00    +0.000 HD
ENDBRANCH   2  14
BRANCH   3  16
ATOM     16  C   UNL     1      -8.723   2.542 123.048  0.00  0.00    +0.000 C 
ATOM     17  O   UNL     1      -9.388   2.342 122.015  0.00  0.00    +0.000 OA
BRANCH  16  18
ATOM     18  O   UNL     1      -8.288   3.782 123.327  0.00  0.00    +0.000 OA
ATOM     19  H   UNL     1      -8.650   4.544 122.836  0.00  0.00    +0.000 HD
ENDBRANCH  16  18
ENDBRANCH   3  16
BRANCH   1  20
ATOM     20  C   UNL     1      -7.414  -1.525 125.217  0.00  0.00    +0.000 C 
BRANCH  20  21
ATOM     21  N   UNL     1      -8.622  -2.223 124.723  0.00  0.00    +0.000 N 
ATOM     22  C   UNL     1      -9.038  -2.446 123.445  0.00  0.00    +0.000 C 
ATOM     23  C   UNL     1      -8.154  -2.038 122.300  0.00  0.00    +0.000 C 
ATOM     24  O   UNL     1     -10.166  -2.904 123.257  0.00  0.00    +0.000 OA
ATOM     25  H   UNL     1      -9.324  -2.512 125.399  0.00  0.00    +0.000 HD
ENDBRANCH  20  21
BRANCH  20  26
ATOM     26  C   UNL     1      -6.580  -2.565 126.074  0.00  0.00    +0.000 C 
BRANCH  26  27
ATOM     27  C   UNL     1      -5.154  -2.684 125.524  0.00  0.00    +0.000 C 
ATOM     28  C   UNL     1      -5.077  -2.828 124.011  0.00  0.00    +0.000 C 
ENDBRANCH  26  27
BRANCH  26  29
ATOM     29  C   UNL     1      -6.648  -2.237 127.589  0.00  0.00    +0.000 C 
ATOM     30  C   UNL     1      -7.811  -2.840 128.368  0.00  0.00    +0.000 C 
ENDBRANCH  26  29
ENDBRANCH  20  26
ENDBRANCH   1  20
TORSDOF 9
ENDMDL
MODEL 7
REMARK VINA RESULT:      -5.8      3.242      4.362
REMARK  Name = Peramivir
REMARK  12 active torsions:
REMARK  status: ('A' for Active; 'I' for Inactive)
REMARK    1  A    between atoms: C_2  and  C_3
REMARK    2  A    between atoms: C_3  and  N_4
REMARK    3  A    between atoms: C_3  and  C_8
REMARK    4  A    between atoms: C_5  and  C_6
REMARK    5  A    between atoms: C_8  and  C_9
REMARK    6  A    between atoms: C_8  and  C_11
REMARK    7  A    between atoms: C_9  and  C_10
REMARK    8  A    between atoms: C_11  and  C_12
REMARK    9  A    between atoms: C_13  and  O_14
REMARK   10  A    between atoms: C_15  and  C_22
REMARK   11  A    between atoms: C_17  and  N_18
REMARK   12  A    between atoms: C_22  and  O_23
REMARK                            x       y       z     vdW  Elec       q    Type
REMARK                         _______ _______ _______ _____ _____    ______ ____
ROOT
ATOM      1  C   UNL     1      -6.795   0.596 126.791  0.00  0.00    +0.000 C 
ATOM      2  C   UNL     1      -7.922   1.686 126.558  0.00  0.00    +0.000 C 
ATOM      3  C   UNL     1      -7.617   2.213 125.155  0.00  0.00    +0.000 C 
ATOM      4  C   UNL     1      -6.100   2.206 125.222  0.00  0.00    +0.000 C 
ATOM      5  C   UNL     1      -5.543   1.423 126.390  0.00  0.00    +0.000 C 
ENDROOT
BRANCH   5   6
ATOM      6  N   UNL     1      -5.016   2.327 127.431  0.00  0.00    +0.000 N 
ATOM      7  C   UNL     1      -3.754   2.828 127.613  0.00  0.00    +0.000 C 
ATOM      8  N   UNL     1      -2.750   2.503 126.775  0.00  0.00    +0.000 N 
ATOM      9  N   UNL     1      -3.457   3.693 128.515  0.00  0.00    +0.000 NA
ATOM     10  H   UNL     1      -5.652   2.474 128.210  0.00  0.00    +0.000 HD
ATOM     11  H   UNL     1      -2.602   1.531 126.533  0.00  0.00    +0.000 HD
ATOM     12  H   UNL     1      -1.927   3.086 126.810  0.00  0.00    +0.000 HD
ATOM     13  H   UNL     1      -4.275   3.898 129.084  0.00  0.00    +0.000 HD
ENDBRANCH   5   6
BRANCH   2  14
ATOM     14  O   UNL     1      -9.213   1.358 127.024  0.00  0.00    +0.000 OA
ATOM     15  H   UNL     1      -9.383   1.423 127.972  0.00  0.00    +0.000 HD
ENDBRANCH   2  14
BRANCH   3  16
ATOM     16  C   UNL     1      -8.213   3.491 124.603  0.00  0.00    +0.000 C 
ATOM     17  O   UNL     1      -8.757   4.307 125.369  0.00  0.00    +0.000 OA
BRANCH  16  18
ATOM     18  O   UNL     1      -8.337   3.642 123.274  0.00  0.00    +0.000 OA
ATOM     19  H   UNL     1      -8.781   2.950 122.748  0.00  0.00    +0.000 HD
ENDBRANCH  16  18
ENDBRANCH   3  16
BRANCH   1  20
ATOM     20  C   UNL     1      -6.765  -0.851 126.024  0.00  0.00    +0.000 C 
BRANCH  20  21
ATOM     21  N   UNL     1      -8.024  -1.614 126.175  0.00  0.00    +0.000 N 
ATOM     22  C   UNL     1      -9.028  -1.827 125.278  0.00  0.00    +0.000 C 
ATOM     23  C   UNL     1      -8.875  -1.328 123.869  0.00  0.00    +0.000 C 
ATOM     24  O   UNL     1     -10.071  -2.354 125.665  0.00  0.00    +0.000 OA
ATOM     25  H   UNL     1      -8.267  -1.969 127.096  0.00  0.00    +0.000 HD
ENDBRANCH  20  21
BRANCH  20  26
ATOM     26  C   UNL     1      -5.566  -1.861 126.254  0.00  0.00    +0.000 C 
BRANCH  26  27
ATOM     27  C   UNL     1      -5.678  -2.514 127.636  0.00  0.00    +0.000 C 
ATOM     28  C   UNL     1      -4.928  -1.780 128.738  0.00  0.00    +0.000 C 
ENDBRANCH  26  27
BRANCH  26  29
ATOM     29  C   UNL     1      -5.443  -2.872 125.084  0.00  0.00    +0.000 C 
ATOM     30  C   UNL     1      -5.409  -2.289 123.676  0.00  0.00    +0.000 C 
ENDBRANCH  26  29
ENDBRANCH  20  26
ENDBRANCH   1  20
TORSDOF 9
ENDMDL
MODEL 8
REMARK VINA RESULT:      -5.8      1.507      2.128
REMARK  Name = Peramivir
REMARK  12 active torsions:
REMARK  status: ('A' for Active; 'I' for Inactive)
REMARK    1  A    between atoms: C_2  and  C_3
REMARK    2  A    between atoms: C_3  and  N_4
REMARK    3  A    between atoms: C_3  and  C_8
REMARK    4  A    between atoms: C_5  and  C_6
REMARK    5  A    between atoms: C_8  and  C_9
REMARK    6  A    between atoms: C_8  and  C_11
REMARK    7  A    between atoms: C_9  and  C_10
REMARK    8  A    between atoms: C_11  and  C_12
REMARK    9  A    between atoms: C_13  and  O_14
REMARK   10  A    between atoms: C_15  and  C_22
REMARK   11  A    between atoms: C_17  and  N_18
REMARK   12  A    between atoms: C_22  and  O_23
REMARK                            x       y       z     vdW  Elec       q    Type
REMARK                         _______ _______ _______ _____ _____    ______ ____
ROOT
ATOM      1  C   UNL     1      -6.679   1.423 123.821  0.00  0.00    +0.000 C 
ATOM      2  C   UNL     1      -6.444   2.390 125.055  0.00  0.00    +0.000 C 
ATOM      3  C   UNL     1      -7.742   3.197 125.120  0.00  0.00    +0.000 C 
ATOM      4  C   UNL     1      -7.995   3.365 123.632  0.00  0.00    +0.000 C 
ATOM      5  C   UNL     1      -7.152   2.457 122.763  0.00  0.00    +0.000 C 
ENDROOT
BRANCH   5   6
ATOM      6  N   UNL     1      -6.081   3.215 122.087  0.00  0.00    +0.000 N 
ATOM      7  C   UNL     1      -6.104   3.931 120.921  0.00  0.00    +0.000 C 
ATOM      8  N   UNL     1      -7.228   4.021 120.182  0.00  0.00    +0.000 N 
ATOM      9  N   UNL     1      -5.113   4.631 120.497  0.00  0.00    +0.000 NA
ATOM     10  H   UNL     1      -5.155   3.049 122.471  0.00  0.00    +0.000 HD
ATOM     11  H   UNL     1      -7.750   3.180 119.970  0.00  0.00    +0.000 HD
ATOM     12  H   UNL     1      -7.253   4.752 119.485  0.00  0.00    +0.000 HD
ATOM     13  H   UNL     1      -4.319   4.525 121.124  0.00  0.00    +0.000 HD
ENDBRANCH   5   6
BRANCH   2  14
ATOM     14  O   UNL     1      -5.798   1.827 126.176  0.00  0.00    +0.000 OA
ATOM     15  H   UNL     1      -6.348   1.433 126.864  0.00  0.00    +0.000 HD
ENDBRANCH   2  14
BRANCH   3  16
ATOM     16  C   UNL     1      -7.886   4.471 125.925  0.00  0.00    +0.000 C 
ATOM     17  O   UNL     1      -7.253   4.612 126.988  0.00  0.00    +0.000 OA
BRANCH  16  18
ATOM     18  O   UNL     1      -8.847   5.352 125.604  0.00  0.00    +0.000 OA
ATOM     19  H   UNL     1      -8.935   5.656 124.680  0.00  0.00    +0.000 HD
ENDBRANCH  16  18
ENDBRANCH   3  16
BRANCH   1  20
ATOM     20  C   UNL     1      -7.714   0.155 123.851  0.00  0.00    +0.000 C 
BRANCH  20  21
ATOM     21  N   UNL     1      -9.050   0.509 124.381  0.00  0.00    +0.000 N 
ATOM     22  C   UNL     1     -10.230   0.688 123.722  0.00  0.00    +0.000 C 
ATOM     23  C   UNL     1     -10.298   0.415 122.246  0.00  0.00    +0.000 C 
ATOM     24  O   UNL     1     -11.192   1.148 124.337  0.00  0.00    +0.000 OA
ATOM     25  H   UNL     1      -9.130   0.761 125.362  0.00  0.00    +0.000 HD
ENDBRANCH  20  21
BRANCH  20  26
ATOM     26  C   UNL     1      -7.288  -1.220 124.515  0.00  0.00    +0.000 C 
BRANCH  26  27
ATOM     27  C   UNL     1      -8.015  -2.386 123.836  0.00  0.00    +0.000 C 
ATOM     28  C   UNL     1      -9.051  -3.073 124.714  0.00  0.00    +0.000 C 
ENDBRANCH  26  27
BRANCH  26  29
ATOM     29  C   UNL     1      -5.745  -1.375 124.558  0.00  0.00    +0.000 C 
ATOM     30  C   UNL     1      -5.166  -2.634 123.926  0.00  0.00    +0.000 C 
ENDBRANCH  26  29
ENDBRANCH  20  26
ENDBRANCH   1  20
TORSDOF 9
ENDMDL
MODEL 9
REMARK VINA RESULT:      -5.8      3.304      5.420
REMARK  Name = Peramivir
REMARK  12 active torsions:
REMARK  status: ('A' for Active; 'I' for Inactive)
REMARK    1  A    between atoms: C_2  and  C_3
REMARK    2  A    between atoms: C_3  and  N_4
REMARK    3  A    between atoms: C_3  and  C_8
REMARK    4  A    between atoms: C_5  and  C_6
REMARK    5  A    between atoms: C_8  and  C_9
REMARK    6  A    between atoms: C_8  and  C_11
REMARK    7  A    between atoms: C_9  and  C_10
REMARK    8  A    between atoms: C_11  and  C_12
REMARK    9  A    between atoms: C_13  and  O_14
REMARK   10  A    between atoms: C_15  and  C_22
REMARK   11  A    between atoms: C_17  and  N_18
REMARK   12  A    between atoms: C_22  and  O_23
REMARK                            x       y       z     vdW  Elec       q    Type
REMARK                         _______ _______ _______ _____ _____    ______ ____
ROOT
ATOM      1  C   UNL     1      -5.851   4.732 125.362  0.00  0.00    +0.000 C 
ATOM      2  C   UNL     1      -7.393   4.673 124.996  0.00  0.00    +0.000 C 
ATOM      3  C   UNL     1      -7.643   3.182 124.768  0.00  0.00    +0.000 C 
ATOM      4  C   UNL     1      -6.341   2.823 124.075  0.00  0.00    +0.000 C 
ATOM      5  C   UNL     1      -5.272   3.887 124.194  0.00  0.00    +0.000 C 
ENDROOT
BRANCH   5   6
ATOM      6  N   UNL     1      -5.093   4.604 122.916  0.00  0.00    +0.000 N 
ATOM      7  C   UNL     1      -5.428   4.236 121.640  0.00  0.00    +0.000 C 
ATOM      8  N   UNL     1      -6.010   3.046 121.390  0.00  0.00    +0.000 N 
ATOM      9  N   UNL     1      -5.302   5.010 120.622  0.00  0.00    +0.000 NA
ATOM     10  H   UNL     1      -4.496   5.424 122.983  0.00  0.00    +0.000 HD
ATOM     11  H   UNL     1      -5.617   2.207 121.798  0.00  0.00    +0.000 HD
ATOM     12  H   UNL     1      -6.452   2.942 120.487  0.00  0.00    +0.000 HD
ATOM     13  H   UNL     1      -4.879   5.890 120.904  0.00  0.00    +0.000 HD
ENDBRANCH   5   6
BRANCH   2  14
ATOM     14  O   UNL     1      -8.242   5.521 125.739  0.00  0.00    +0.000 OA
ATOM     15  H   UNL     1      -8.968   5.117 126.230  0.00  0.00    +0.000 HD
ENDBRANCH   2  14
BRANCH   3  16
ATOM     16  C   UNL     1      -8.884   2.646 124.086  0.00  0.00    +0.000 C 
ATOM     17  O   UNL     1      -9.764   2.071 124.752  0.00  0.00    +0.000 OA
BRANCH  16  18
ATOM     18  O   UNL     1      -8.935   2.606 122.744  0.00  0.00    +0.000 OA
ATOM     19  H   UNL     1      -8.816   3.428 122.231  0.00  0.00    +0.000 HD
ENDBRANCH  16  18
ENDBRANCH   3  16
BRANCH   1  20
ATOM     20  C   UNL     1      -5.238   4.195 126.782  0.00  0.00    +0.000 C 
BRANCH  20  21
ATOM     21  N   UNL     1      -6.077   4.553 127.948  0.00  0.00    +0.000 N 
ATOM     22  C   UNL     1      -6.967   3.793 128.648  0.00  0.00    +0.000 C 
ATOM     23  C   UNL     1      -7.115   2.336 128.313  0.00  0.00    +0.000 C 
ATOM     24  O   UNL     1      -7.688   4.339 129.484  0.00  0.00    +0.000 OA
ATOM     25  H   UNL     1      -6.100   5.524 128.249  0.00  0.00    +0.000 HD
ENDBRANCH  20  21
BRANCH  20  26
ATOM     26  C   UNL     1      -3.730   4.489 127.173  0.00  0.00    +0.000 C 
BRANCH  26  27
ATOM     27  C   UNL     1      -3.667   5.460 128.357  0.00  0.00    +0.000 C 
ATOM     28  C   UNL     1      -2.815   6.695 128.109  0.00  0.00    +0.000 C 
ENDBRANCH  26  27
BRANCH  26  29
ATOM     29  C   UNL     1      -2.934   3.175 127.388  0.00  0.00    +0.000 C 
ATOM     30  C   UNL     1      -1.655   3.009 126.576  0.00  0.00    +0.000 C 
ENDBRANCH  26  29
ENDBRANCH  20  26
ENDBRANCH   1  20
TORSDOF 9
ENDMDL
