MODEL 1
REMARK VINA RESULT:      -9.2      0.000      0.000
REMARK  Name = Perampanel
REMARK  4 active torsions:
REMARK  status: ('A' for Active; 'I' for Inactive)
REMARK    1  A    between atoms: N_3  and  C_22
REMARK    2  A    between atoms: C_5  and  C_16
REMARK    3  A    between atoms: C_7  and  C_8
REMARK    4  A    between atoms: C_13  and  C_14
REMARK                            x       y       z     vdW  Elec       q    Type
REMARK                         _______ _______ _______ _____ _____    ______ ____
ROOT
ATOM      1  O   UNL     1      -5.791   4.633 123.775  0.00  0.00    +0.000 OA
ATOM      2  C   UNL     1      -6.106   3.451 123.921  0.00  0.00    +0.000 A 
ATOM      3  N   UNL     1      -6.825   2.689 122.984  0.00  0.00    +0.000 N 
ATOM      4  C   UNL     1      -7.181   1.371 123.226  0.00  0.00    +0.000 A 
ATOM      5  C   UNL     1      -6.826   0.720 124.347  0.00  0.00    +0.000 A 
ATOM      6  C   UNL     1      -6.082   1.453 125.357  0.00  0.00    +0.000 A 
ATOM      7  C   UNL     1      -5.734   2.744 125.200  0.00  0.00    +0.000 A 
ENDROOT
BRANCH   7   8
ATOM      8  C   UNL     1      -4.945   3.462 126.226  0.00  0.00    +0.000 A 
ATOM      9  C   UNL     1      -3.545   3.307 126.251  0.00  0.00    +0.000 A 
ATOM     10  C   UNL     1      -2.794   3.785 127.325  0.00  0.00    +0.000 A 
ATOM     11  C   UNL     1      -3.408   4.553 128.308  0.00  0.00    +0.000 A 
ATOM     12  C   UNL     1      -4.772   4.838 128.220  0.00  0.00    +0.000 A 
ATOM     13  C   UNL     1      -5.558   4.228 127.234  0.00  0.00    +0.000 A 
BRANCH  13  14
ATOM     14  C   UNL     1      -6.985   4.351 127.305  0.00  0.00    +0.000 C 
ATOM     15  N   UNL     1      -8.143   4.493 127.355  0.00  0.00    +0.000 NA
ENDBRANCH  13  14
ENDBRANCH   7   8
BRANCH   5  16
ATOM     16  C   UNL     1      -7.146  -0.721 124.469  0.00  0.00    +0.000 A 
ATOM     17  N   UNL     1      -6.113  -1.590 124.363  0.00  0.00    +0.000 NA
ATOM     18  C   UNL     1      -6.420  -2.909 124.366  0.00  0.00    +0.000 A 
ATOM     19  C   UNL     1      -7.713  -3.404 124.354  0.00  0.00    +0.000 A 
ATOM     20  C   UNL     1      -8.756  -2.499 124.481  0.00  0.00    +0.000 A 
ATOM     21  C   UNL     1      -8.468  -1.143 124.605  0.00  0.00    +0.000 A 
ENDBRANCH   5  16
BRANCH   3  22
ATOM     22  C   UNL     1      -7.218   3.333 121.777  0.00  0.00    +0.000 A 
ATOM     23  C   UNL     1      -8.574   3.486 121.468  0.00  0.00    +0.000 A 
ATOM     24  C   UNL     1      -8.958   3.923 120.202  0.00  0.00    +0.000 A 
ATOM     25  C   UNL     1      -7.989   4.325 119.286  0.00  0.00    +0.000 A 
ATOM     26  C   UNL     1      -6.641   4.315 119.645  0.00  0.00    +0.000 A 
ATOM     27  C   UNL     1      -6.249   3.771 120.868  0.00  0.00    +0.000 A 
ENDBRANCH   3  22
TORSDOF 4
ENDMDL
MODEL 2
REMARK VINA RESULT:      -9.1      1.630      6.684
REMARK  Name = Perampanel
REMARK  4 active torsions:
REMARK  status: ('A' for Active; 'I' for Inactive)
REMARK    1  A    between atoms: N_3  and  C_22
REMARK    2  A    between atoms: C_5  and  C_16
REMARK    3  A    between atoms: C_7  and  C_8
REMARK    4  A    between atoms: C_13  and  C_14
REMARK                            x       y       z     vdW  Elec       q    Type
REMARK                         _______ _______ _______ _____ _____    ______ ____
ROOT
ATOM      1  O   UNL     1      -5.573   0.421 126.641  0.00  0.00    +0.000 OA
ATOM      2  C   UNL     1      -5.911   1.051 125.639  0.00  0.00    +0.000 A 
ATOM      3  N   UNL     1      -5.613   2.404 125.402  0.00  0.00    +0.000 N 
ATOM      4  C   UNL     1      -6.057   3.067 124.268  0.00  0.00    +0.000 A 
ATOM      5  C   UNL     1      -6.758   2.454 123.300  0.00  0.00    +0.000 A 
ATOM      6  C   UNL     1      -7.100   1.054 123.485  0.00  0.00    +0.000 A 
ATOM      7  C   UNL     1      -6.731   0.361 124.578  0.00  0.00    +0.000 A 
ENDROOT
BRANCH   7   8
ATOM      8  C   UNL     1      -7.058  -1.075 124.730  0.00  0.00    +0.000 A 
ATOM      9  C   UNL     1      -6.116  -2.042 124.329  0.00  0.00    +0.000 A 
ATOM     10  C   UNL     1      -6.468  -3.389 124.250  0.00  0.00    +0.000 A 
ATOM     11  C   UNL     1      -7.711  -3.806 124.714  0.00  0.00    +0.000 A 
ATOM     12  C   UNL     1      -8.603  -2.875 125.249  0.00  0.00    +0.000 A 
ATOM     13  C   UNL     1      -8.319  -1.505 125.182  0.00  0.00    +0.000 A 
BRANCH  13  14
ATOM     14  C   UNL     1      -9.343  -0.563 125.524  0.00  0.00    +0.000 C 
ATOM     15  N   UNL     1     -10.193   0.201 125.763  0.00  0.00    +0.000 NA
ENDBRANCH  13  14
ENDBRANCH   7   8
BRANCH   5  16
ATOM     16  C   UNL     1      -7.088   3.208 122.068  0.00  0.00    +0.000 A 
ATOM     17  N   UNL     1      -8.393   3.265 121.714  0.00  0.00    +0.000 NA
ATOM     18  C   UNL     1      -8.682   3.860 120.532  0.00  0.00    +0.000 A 
ATOM     19  C   UNL     1      -7.727   4.298 119.631  0.00  0.00    +0.000 A 
ATOM     20  C   UNL     1      -6.396   4.247 120.019  0.00  0.00    +0.000 A 
ATOM     21  C   UNL     1      -6.075   3.754 121.280  0.00  0.00    +0.000 A 
ENDBRANCH   5  16
BRANCH   3  22
ATOM     22  C   UNL     1      -4.866   3.096 126.397  0.00  0.00    +0.000 A 
ATOM     23  C   UNL     1      -3.467   3.081 126.366  0.00  0.00    +0.000 A 
ATOM     24  C   UNL     1      -2.738   3.574 127.446  0.00  0.00    +0.000 A 
ATOM     25  C   UNL     1      -3.402   4.196 128.502  0.00  0.00    +0.000 A 
ATOM     26  C   UNL     1      -4.788   4.345 128.464  0.00  0.00    +0.000 A 
ATOM     27  C   UNL     1      -5.526   3.751 127.441  0.00  0.00    +0.000 A 
ENDBRANCH   3  22
TORSDOF 4
ENDMDL
MODEL 3
REMARK VINA RESULT:      -9.1      1.271      5.177
REMARK  Name = Perampanel
REMARK  4 active torsions:
REMARK  status: ('A' for Active; 'I' for Inactive)
REMARK    1  A    between atoms: N_3  and  C_22
REMARK    2  A    between atoms: C_5  and  C_16
REMARK    3  A    between atoms: C_7  and  C_8
REMARK    4  A    between atoms: C_13  and  C_14
REMARK                            x       y       z     vdW  Elec       q    Type
REMARK                         _______ _______ _______ _____ _____    ______ ____
ROOT
ATOM      1  O   UNL     1      -5.814   0.678 126.724  0.00  0.00    +0.000 OA
ATOM      2  C   UNL     1      -6.112   1.238 125.668  0.00  0.00    +0.000 A 
ATOM      3  N   UNL     1      -6.908   0.675 124.656  0.00  0.00    +0.000 N 
ATOM      4  C   UNL     1      -7.176   1.344 123.472  0.00  0.00    +0.000 A 
ATOM      5  C   UNL     1      -6.734   2.590 123.230  0.00  0.00    +0.000 A 
ATOM      6  C   UNL     1      -5.903   3.229 124.237  0.00  0.00    +0.000 A 
ATOM      7  C   UNL     1      -5.576   2.621 125.393  0.00  0.00    +0.000 A 
ENDROOT
BRANCH   7   8
ATOM      8  C   UNL     1      -4.759   3.303 126.421  0.00  0.00    +0.000 A 
ATOM      9  C   UNL     1      -3.365   3.106 126.434  0.00  0.00    +0.000 A 
ATOM     10  C   UNL     1      -2.593   3.549 127.509  0.00  0.00    +0.000 A 
ATOM     11  C   UNL     1      -3.177   4.323 128.506  0.00  0.00    +0.000 A 
ATOM     12  C   UNL     1      -4.533   4.649 128.430  0.00  0.00    +0.000 A 
ATOM     13  C   UNL     1      -5.343   4.074 127.442  0.00  0.00    +0.000 A 
BRANCH  13  14
ATOM     14  C   UNL     1      -6.765   4.238 127.525  0.00  0.00    +0.000 C 
ATOM     15  N   UNL     1      -7.917   4.413 127.598  0.00  0.00    +0.000 NA
ENDBRANCH  13  14
ENDBRANCH   7   8
BRANCH   5  16
ATOM     16  C   UNL     1      -7.167   3.275 121.990  0.00  0.00    +0.000 A 
ATOM     17  N   UNL     1      -8.493   3.271 121.718  0.00  0.00    +0.000 NA
ATOM     18  C   UNL     1      -8.876   3.802 120.532  0.00  0.00    +0.000 A 
ATOM     19  C   UNL     1      -7.995   4.232 119.554  0.00  0.00    +0.000 A 
ATOM     20  C   UNL     1      -6.642   4.244 119.859  0.00  0.00    +0.000 A 
ATOM     21  C   UNL     1      -6.226   3.820 121.118  0.00  0.00    +0.000 A 
ENDBRANCH   5  16
BRANCH   3  22
ATOM     22  C   UNL     1      -7.407  -0.642 124.869  0.00  0.00    +0.000 A 
ATOM     23  C   UNL     1      -6.700  -1.750 124.388  0.00  0.00    +0.000 A 
ATOM     24  C   UNL     1      -7.285  -3.015 124.410  0.00  0.00    +0.000 A 
ATOM     25  C   UNL     1      -8.522  -3.195 125.025  0.00  0.00    +0.000 A 
ATOM     26  C   UNL     1      -9.160  -2.116 125.638  0.00  0.00    +0.000 A 
ATOM     27  C   UNL     1      -8.631  -0.832 125.517  0.00  0.00    +0.000 A 
ENDBRANCH   3  22
TORSDOF 4
ENDMDL
MODEL 4
REMARK VINA RESULT:      -8.6      6.051      9.529
REMARK  Name = Perampanel
REMARK  4 active torsions:
REMARK  status: ('A' for Active; 'I' for Inactive)
REMARK    1  A    between atoms: N_3  and  C_22
REMARK    2  A    between atoms: C_5  and  C_16
REMARK    3  A    between atoms: C_7  and  C_8
REMARK    4  A    between atoms: C_13  and  C_14
REMARK                            x       y       z     vdW  Elec       q    Type
REMARK                         _______ _______ _______ _____ _____    ______ ____
ROOT
ATOM      1  O   UNL     1     -10.546   3.953 129.998  0.00  0.00    +0.000 OA
ATOM      2  C   UNL     1      -9.492   4.532 130.262  0.00  0.00    +0.000 A 
ATOM      3  N   UNL     1      -8.235   3.909 130.361  0.00  0.00    +0.000 N 
ATOM      4  C   UNL     1      -7.090   4.612 130.700  0.00  0.00    +0.000 A 
ATOM      5  C   UNL     1      -7.093   5.939 130.912  0.00  0.00    +0.000 A 
ATOM      6  C   UNL     1      -8.361   6.643 130.826  0.00  0.00    +0.000 A 
ATOM      7  C   UNL     1      -9.516   6.015 130.536  0.00  0.00    +0.000 A 
ENDROOT
BRANCH   7   8
ATOM      8  C   UNL     1     -10.791   6.756 130.418  0.00  0.00    +0.000 A 
ATOM      9  C   UNL     1     -11.585   6.947 131.565  0.00  0.00    +0.000 A 
ATOM     10  C   UNL     1     -12.885   7.442 131.457  0.00  0.00    +0.000 A 
ATOM     11  C   UNL     1     -13.352   7.893 130.227  0.00  0.00    +0.000 A 
ATOM     12  C   UNL     1     -12.522   7.844 129.106  0.00  0.00    +0.000 A 
ATOM     13  C   UNL     1     -11.279   7.202 129.176  0.00  0.00    +0.000 A 
BRANCH  13  14
ATOM     14  C   UNL     1     -10.551   6.960 127.965  0.00  0.00    +0.000 C 
ATOM     15  N   UNL     1      -9.980   6.793 126.960  0.00  0.00    +0.000 NA
ENDBRANCH  13  14
ENDBRANCH   7   8
BRANCH   5  16
ATOM     16  C   UNL     1      -5.804   6.629 131.151  0.00  0.00    +0.000 A 
ATOM     17  N   UNL     1      -5.355   7.448 130.172  0.00  0.00    +0.000 NA
ATOM     18  C   UNL     1      -4.126   7.993 130.344  0.00  0.00    +0.000 A 
ATOM     19  C   UNL     1      -3.275   7.671 131.387  0.00  0.00    +0.000 A 
ATOM     20  C   UNL     1      -3.760   6.843 132.389  0.00  0.00    +0.000 A 
ATOM     21  C   UNL     1      -5.064   6.366 132.303  0.00  0.00    +0.000 A 
ENDBRANCH   5  16
BRANCH   3  22
ATOM     22  C   UNL     1      -8.180   2.503 130.138  0.00  0.00    +0.000 A 
ATOM     23  C   UNL     1      -8.341   1.613 131.206  0.00  0.00    +0.000 A 
ATOM     24  C   UNL     1      -8.081   0.256 131.029  0.00  0.00    +0.000 A 
ATOM     25  C   UNL     1      -7.781  -0.232 129.759  0.00  0.00    +0.000 A 
ATOM     26  C   UNL     1      -7.767   0.633 128.665  0.00  0.00    +0.000 A 
ATOM     27  C   UNL     1      -7.914   2.007 128.859  0.00  0.00    +0.000 A 
ENDBRANCH   3  22
TORSDOF 4
ENDMDL
MODEL 5
REMARK VINA RESULT:      -8.2      5.668      9.311
REMARK  Name = Perampanel
REMARK  4 active torsions:
REMARK  status: ('A' for Active; 'I' for Inactive)
REMARK    1  A    between atoms: N_3  and  C_22
REMARK    2  A    between atoms: C_5  and  C_16
REMARK    3  A    between atoms: C_7  and  C_8
REMARK    4  A    between atoms: C_13  and  C_14
REMARK                            x       y       z     vdW  Elec       q    Type
REMARK                         _______ _______ _______ _____ _____    ______ ____
ROOT
ATOM      1  O   UNL     1     -10.671   3.912 130.212  0.00  0.00    +0.000 OA
ATOM      2  C   UNL     1      -9.612   4.501 130.432  0.00  0.00    +0.000 A 
ATOM      3  N   UNL     1      -9.465   5.898 130.484  0.00  0.00    +0.000 N 
ATOM      4  C   UNL     1      -8.235   6.501 130.698  0.00  0.00    +0.000 A 
ATOM      5  C   UNL     1      -7.112   5.795 130.916  0.00  0.00    +0.000 A 
ATOM      6  C   UNL     1      -7.196   4.345 130.874  0.00  0.00    +0.000 A 
ATOM      7  C   UNL     1      -8.352   3.698 130.636  0.00  0.00    +0.000 A 
ENDROOT
BRANCH   7   8
ATOM      8  C   UNL     1      -8.423   2.219 130.634  0.00  0.00    +0.000 A 
ATOM      9  C   UNL     1      -8.740   1.543 131.828  0.00  0.00    +0.000 A 
ATOM     10  C   UNL     1      -8.602   0.158 131.920  0.00  0.00    +0.000 A 
ATOM     11  C   UNL     1      -8.295  -0.583 130.784  0.00  0.00    +0.000 A 
ATOM     12  C   UNL     1      -8.120   0.063 129.558  0.00  0.00    +0.000 A 
ATOM     13  C   UNL     1      -8.098   1.462 129.493  0.00  0.00    +0.000 A 
BRANCH  13  14
ATOM     14  C   UNL     1      -7.688   2.097 128.275  0.00  0.00    +0.000 C 
ATOM     15  N   UNL     1      -7.385   2.594 127.263  0.00  0.00    +0.000 NA
ENDBRANCH  13  14
ENDBRANCH   7   8
BRANCH   5  16
ATOM     16  C   UNL     1      -5.866   6.520 131.255  0.00  0.00    +0.000 A 
ATOM     17  N   UNL     1      -5.371   7.363 130.318  0.00  0.00    +0.000 NA
ATOM     18  C   UNL     1      -4.176   7.942 130.584  0.00  0.00    +0.000 A 
ATOM     19  C   UNL     1      -3.394   7.634 131.685  0.00  0.00    +0.000 A 
ATOM     20  C   UNL     1      -3.925   6.782 132.641  0.00  0.00    +0.000 A 
ATOM     21  C   UNL     1      -5.205   6.267 132.457  0.00  0.00    +0.000 A 
ENDBRANCH   5  16
BRANCH   3  22
ATOM     22  C   UNL     1     -10.629   6.689 130.266  0.00  0.00    +0.000 A 
ATOM     23  C   UNL     1     -10.750   7.459 129.104  0.00  0.00    +0.000 A 
ATOM     24  C   UNL     1     -11.782   8.389 128.986  0.00  0.00    +0.000 A 
ATOM     25  C   UNL     1     -12.763   8.462 129.973  0.00  0.00    +0.000 A 
ATOM     26  C   UNL     1     -12.725   7.590 131.061  0.00  0.00    +0.000 A 
ATOM     27  C   UNL     1     -11.633   6.740 131.237  0.00  0.00    +0.000 A 
ENDBRANCH   3  22
TORSDOF 4
ENDMDL
MODEL 6
REMARK VINA RESULT:      -8.1      1.434      2.264
REMARK  Name = Perampanel
REMARK  4 active torsions:
REMARK  status: ('A' for Active; 'I' for Inactive)
REMARK    1  A    between atoms: N_3  and  C_22
REMARK    2  A    between atoms: C_5  and  C_16
REMARK    3  A    between atoms: C_7  and  C_8
REMARK    4  A    between atoms: C_13  and  C_14
REMARK                            x       y       z     vdW  Elec       q    Type
REMARK                         _______ _______ _______ _____ _____    ______ ____
ROOT
ATOM      1  O   UNL     1      -6.710   4.407 124.616  0.00  0.00    +0.000 OA
ATOM      2  C   UNL     1      -6.805   3.182 124.536  0.00  0.00    +0.000 A 
ATOM      3  N   UNL     1      -6.914   2.461 123.334  0.00  0.00    +0.000 N 
ATOM      4  C   UNL     1      -7.058   1.082 123.313  0.00  0.00    +0.000 A 
ATOM      5  C   UNL     1      -7.055   0.338 124.432  0.00  0.00    +0.000 A 
ATOM      6  C   UNL     1      -6.947   1.024 125.709  0.00  0.00    +0.000 A 
ATOM      7  C   UNL     1      -6.840   2.362 125.801  0.00  0.00    +0.000 A 
ENDROOT
BRANCH   7   8
ATOM      8  C   UNL     1      -6.694   3.038 127.110  0.00  0.00    +0.000 A 
ATOM      9  C   UNL     1      -7.846   3.482 127.788  0.00  0.00    +0.000 A 
ATOM     10  C   UNL     1      -7.740   4.311 128.905  0.00  0.00    +0.000 A 
ATOM     11  C   UNL     1      -6.488   4.580 129.448  0.00  0.00    +0.000 A 
ATOM     12  C   UNL     1      -5.345   4.026 128.870  0.00  0.00    +0.000 A 
ATOM     13  C   UNL     1      -5.432   3.329 127.659  0.00  0.00    +0.000 A 
BRANCH  13  14
ATOM     14  C   UNL     1      -4.226   2.973 126.970  0.00  0.00    +0.000 C 
ATOM     15  N   UNL     1      -3.261   2.647 126.399  0.00  0.00    +0.000 NA
ENDBRANCH  13  14
ENDBRANCH   7   8
BRANCH   5  16
ATOM     16  C   UNL     1      -7.092  -1.137 124.311  0.00  0.00    +0.000 A 
ATOM     17  N   UNL     1      -8.262  -1.749 124.611  0.00  0.00    +0.000 NA
ATOM     18  C   UNL     1      -8.265  -3.103 124.605  0.00  0.00    +0.000 A 
ATOM     19  C   UNL     1      -7.133  -3.879 124.428  0.00  0.00    +0.000 A 
ATOM     20  C   UNL     1      -5.948  -3.235 124.105  0.00  0.00    +0.000 A 
ATOM     21  C   UNL     1      -5.940  -1.849 123.981  0.00  0.00    +0.000 A 
ENDBRANCH   5  16
BRANCH   3  22
ATOM     22  C   UNL     1      -6.915   3.206 122.120  0.00  0.00    +0.000 A 
ATOM     23  C   UNL     1      -8.116   3.464 121.451  0.00  0.00    +0.000 A 
ATOM     24  C   UNL     1      -8.099   4.005 120.167  0.00  0.00    +0.000 A 
ATOM     25  C   UNL     1      -6.891   4.403 119.600  0.00  0.00    +0.000 A 
ATOM     26  C   UNL     1      -5.706   4.284 120.327  0.00  0.00    +0.000 A 
ATOM     27  C   UNL     1      -5.707   3.638 121.563  0.00  0.00    +0.000 A 
ENDBRANCH   3  22
TORSDOF 4
ENDMDL
MODEL 7
REMARK VINA RESULT:      -8.0      5.985      9.318
REMARK  Name = Perampanel
REMARK  4 active torsions:
REMARK  status: ('A' for Active; 'I' for Inactive)
REMARK    1  A    between atoms: N_3  and  C_22
REMARK    2  A    between atoms: C_5  and  C_16
REMARK    3  A    between atoms: C_7  and  C_8
REMARK    4  A    between atoms: C_13  and  C_14
REMARK                            x       y       z     vdW  Elec       q    Type
REMARK                         _______ _______ _______ _____ _____    ______ ____
ROOT
ATOM      1  O   UNL     1     -10.140   3.993 129.916  0.00  0.00    +0.000 OA
ATOM      2  C   UNL     1      -9.110   4.614 130.180  0.00  0.00    +0.000 A 
ATOM      3  N   UNL     1      -9.056   5.980 130.506  0.00  0.00    +0.000 N 
ATOM      4  C   UNL     1      -7.858   6.631 130.755  0.00  0.00    +0.000 A 
ATOM      5  C   UNL     1      -6.675   5.994 130.750  0.00  0.00    +0.000 A 
ATOM      6  C   UNL     1      -6.661   4.579 130.419  0.00  0.00    +0.000 A 
ATOM      7  C   UNL     1      -7.785   3.895 130.132  0.00  0.00    +0.000 A 
ENDROOT
BRANCH   7   8
ATOM      8  C   UNL     1      -7.753   2.446 129.833  0.00  0.00    +0.000 A 
ATOM      9  C   UNL     1      -7.634   2.021 128.495  0.00  0.00    +0.000 A 
ATOM     10  C   UNL     1      -7.821   0.682 128.154  0.00  0.00    +0.000 A 
ATOM     11  C   UNL     1      -7.977  -0.270 129.156  0.00  0.00    +0.000 A 
ATOM     12  C   UNL     1      -7.952   0.119 130.496  0.00  0.00    +0.000 A 
ATOM     13  C   UNL     1      -7.927   1.477 130.838  0.00  0.00    +0.000 A 
BRANCH  13  14
ATOM     14  C   UNL     1      -8.136   1.857 132.204  0.00  0.00    +0.000 C 
ATOM     15  N   UNL     1      -8.265   2.165 133.323  0.00  0.00    +0.000 NA
ENDBRANCH  13  14
ENDBRANCH   7   8
BRANCH   5  16
ATOM     16  C   UNL     1      -5.458   6.740 131.146  0.00  0.00    +0.000 A 
ATOM     17  N   UNL     1      -4.966   7.630 130.253  0.00  0.00    +0.000 NA
ATOM     18  C   UNL     1      -3.795   8.232 130.569  0.00  0.00    +0.000 A 
ATOM     19  C   UNL     1      -3.031   7.906 131.677  0.00  0.00    +0.000 A 
ATOM     20  C   UNL     1      -3.560   7.004 132.588  0.00  0.00    +0.000 A 
ATOM     21  C   UNL     1      -4.819   6.461 132.353  0.00  0.00    +0.000 A 
ENDBRANCH   5  16
BRANCH   3  22
ATOM     22  C   UNL     1     -10.287   6.698 130.531  0.00  0.00    +0.000 A 
ATOM     23  C   UNL     1     -11.173   6.540 131.602  0.00  0.00    +0.000 A 
ATOM     24  C   UNL     1     -12.459   7.072 131.529  0.00  0.00    +0.000 A 
ATOM     25  C   UNL     1     -12.818   7.868 130.443  0.00  0.00    +0.000 A 
ATOM     26  C   UNL     1     -11.884   8.150 129.446  0.00  0.00    +0.000 A 
ATOM     27  C   UNL     1     -10.638   7.525 129.460  0.00  0.00    +0.000 A 
ENDBRANCH   3  22
TORSDOF 4
ENDMDL
MODEL 8
REMARK VINA RESULT:      -7.9      6.082      9.978
REMARK  Name = Perampanel
REMARK  4 active torsions:
REMARK  status: ('A' for Active; 'I' for Inactive)
REMARK    1  A    between atoms: N_3  and  C_22
REMARK    2  A    between atoms: C_5  and  C_16
REMARK    3  A    between atoms: C_7  and  C_8
REMARK    4  A    between atoms: C_13  and  C_14
REMARK                            x       y       z     vdW  Elec       q    Type
REMARK                         _______ _______ _______ _____ _____    ______ ____
ROOT
ATOM      1  O   UNL     1     -10.344   3.936 130.032  0.00  0.00    +0.000 OA
ATOM      2  C   UNL     1      -9.631   4.327 130.957  0.00  0.00    +0.000 A 
ATOM      3  N   UNL     1      -9.690   5.609 131.531  0.00  0.00    +0.000 N 
ATOM      4  C   UNL     1      -8.831   6.000 132.547  0.00  0.00    +0.000 A 
ATOM      5  C   UNL     1      -7.921   5.170 133.084  0.00  0.00    +0.000 A 
ATOM      6  C   UNL     1      -7.809   3.829 132.534  0.00  0.00    +0.000 A 
ATOM      7  C   UNL     1      -8.587   3.398 131.524  0.00  0.00    +0.000 A 
ENDROOT
BRANCH   7   8
ATOM      8  C   UNL     1      -8.482   2.017 131.003  0.00  0.00    +0.000 A 
ATOM      9  C   UNL     1      -9.070   0.961 131.726  0.00  0.00    +0.000 A 
ATOM     10  C   UNL     1      -8.808  -0.367 131.389  0.00  0.00    +0.000 A 
ATOM     11  C   UNL     1      -8.081  -0.656 130.239  0.00  0.00    +0.000 A 
ATOM     12  C   UNL     1      -7.613   0.382 129.431  0.00  0.00    +0.000 A 
ATOM     13  C   UNL     1      -7.736   1.713 129.850  0.00  0.00    +0.000 A 
BRANCH  13  14
ATOM     14  C   UNL     1      -7.047   2.738 129.122  0.00  0.00    +0.000 C 
ATOM     15  N   UNL     1      -6.512   3.567 128.497  0.00  0.00    +0.000 NA
ENDBRANCH  13  14
ENDBRANCH   7   8
BRANCH   5  16
ATOM     16  C   UNL     1      -7.128   5.633 134.246  0.00  0.00    +0.000 A 
ATOM     17  N   UNL     1      -5.816   5.887 134.033  0.00  0.00    +0.000 NA
ATOM     18  C   UNL     1      -5.068   6.204 135.117  0.00  0.00    +0.000 A 
ATOM     19  C   UNL     1      -5.538   6.169 136.419  0.00  0.00    +0.000 A 
ATOM     20  C   UNL     1      -6.889   5.923 136.615  0.00  0.00    +0.000 A 
ATOM     21  C   UNL     1      -7.709   5.715 135.511  0.00  0.00    +0.000 A 
ENDBRANCH   5  16
BRANCH   3  22
ATOM     22  C   UNL     1     -10.644   6.523 131.000  0.00  0.00    +0.000 A 
ATOM     23  C   UNL     1     -11.918   6.624 131.572  0.00  0.00    +0.000 A 
ATOM     24  C   UNL     1     -12.915   7.356 130.931  0.00  0.00    +0.000 A 
ATOM     25  C   UNL     1     -12.608   8.089 129.786  0.00  0.00    +0.000 A 
ATOM     26  C   UNL     1     -11.301   8.109 129.300  0.00  0.00    +0.000 A 
ATOM     27  C   UNL     1     -10.331   7.287 129.872  0.00  0.00    +0.000 A 
ENDBRANCH   3  22
TORSDOF 4
ENDMDL
MODEL 9
REMARK VINA RESULT:      -7.9      6.787      9.373
REMARK  Name = Perampanel
REMARK  4 active torsions:
REMARK  status: ('A' for Active; 'I' for Inactive)
REMARK    1  A    between atoms: N_3  and  C_22
REMARK    2  A    between atoms: C_5  and  C_16
REMARK    3  A    between atoms: C_7  and  C_8
REMARK    4  A    between atoms: C_13  and  C_14
REMARK                            x       y       z     vdW  Elec       q    Type
REMARK                         _______ _______ _______ _____ _____    ______ ____
ROOT
ATOM      1  O   UNL     1      -5.905   3.216 132.090  0.00  0.00    +0.000 OA
ATOM      2  C   UNL     1      -6.857   3.948 131.817  0.00  0.00    +0.000 A 
ATOM      3  N   UNL     1      -8.074   3.514 131.264  0.00  0.00    +0.000 N 
ATOM      4  C   UNL     1      -9.094   4.396 130.944  0.00  0.00    +0.000 A 
ATOM      5  C   UNL     1      -9.009   5.716 131.182  0.00  0.00    +0.000 A 
ATOM      6  C   UNL     1      -7.775   6.230 131.752  0.00  0.00    +0.000 A 
ATOM      7  C   UNL     1      -6.733   5.433 132.053  0.00  0.00    +0.000 A 
ENDROOT
BRANCH   7   8
ATOM      8  C   UNL     1      -5.499   5.972 132.666  0.00  0.00    +0.000 A 
ATOM      9  C   UNL     1      -5.351   5.933 134.066  0.00  0.00    +0.000 A 
ATOM     10  C   UNL     1      -4.314   6.623 134.693  0.00  0.00    +0.000 A 
ATOM     11  C   UNL     1      -3.327   7.232 133.925  0.00  0.00    +0.000 A 
ATOM     12  C   UNL     1      -3.382   7.155 132.533  0.00  0.00    +0.000 A 
ATOM     13  C   UNL     1      -4.503   6.604 131.899  0.00  0.00    +0.000 A 
BRANCH  13  14
ATOM     14  C   UNL     1      -4.642   6.746 130.479  0.00  0.00    +0.000 C 
ATOM     15  N   UNL     1      -4.717   6.880 129.322  0.00  0.00    +0.000 NA
ENDBRANCH  13  14
ENDBRANCH   7   8
BRANCH   5  16
ATOM     16  C   UNL     1     -10.192   6.568 130.920  0.00  0.00    +0.000 A 
ATOM     17  N   UNL     1     -11.263   6.397 131.730  0.00  0.00    +0.000 NA
ATOM     18  C   UNL     1     -12.381   7.097 131.423  0.00  0.00    +0.000 A 
ATOM     19  C   UNL     1     -12.522   7.871 130.284  0.00  0.00    +0.000 A 
ATOM     20  C   UNL     1     -11.409   8.048 129.477  0.00  0.00    +0.000 A 
ATOM     21  C   UNL     1     -10.208   7.440 129.833  0.00  0.00    +0.000 A 
ENDBRANCH   5  16
BRANCH   3  22
ATOM     22  C   UNL     1      -8.214   2.121 131.000  0.00  0.00    +0.000 A 
ATOM     23  C   UNL     1      -8.796   1.278 131.953  0.00  0.00    +0.000 A 
ATOM     24  C   UNL     1      -8.744  -0.105 131.788  0.00  0.00    +0.000 A 
ATOM     25  C   UNL     1      -8.222  -0.642 130.613  0.00  0.00    +0.000 A 
ATOM     26  C   UNL     1      -7.778   0.204 129.596  0.00  0.00    +0.000 A 
ATOM     27  C   UNL     1      -7.723   1.581 129.808  0.00  0.00    +0.000 A 
ENDBRANCH   3  22
TORSDOF 4
ENDMDL
