MODEL 1
REMARK VINA RESULT:      -5.9      0.000      0.000
REMARK  Name = Perflubutane
REMARK  3 active torsions:
REMARK  status: ('A' for Active; 'I' for Inactive)
REMARK    1  A    between atoms: C_2  and  C_5
REMARK    2  A    between atoms: C_5  and  C_8
REMARK    3  A    between atoms: C_8  and  C_11
REMARK                            x       y       z     vdW  Elec       q    Type
REMARK                         _______ _______ _______ _____ _____    ______ ____
ROOT
ATOM      1  C   UNL     1     -12.615   7.148 129.131  0.00  0.00    +0.000 C 
ATOM      2  F   UNL     1     -12.056   5.905 129.094  0.00  0.00    +0.000 F 
ATOM      3  F   UNL     1     -13.877   7.002 128.634  0.00  0.00    +0.000 F 
ENDROOT
BRANCH   1   5
ATOM      4  F   UNL     1     -11.528   7.361 131.226  0.00  0.00    +0.000 F 
ATOM      5  C   UNL     1     -12.673   7.649 130.558  0.00  0.00    +0.000 C 
ATOM      6  F   UNL     1     -13.684   7.088 131.261  0.00  0.00    +0.000 F 
ATOM      7  F   UNL     1     -12.835   8.991 130.627  0.00  0.00    +0.000 F 
ENDBRANCH   1   5
BRANCH   1   8
ATOM      8  C   UNL     1     -11.822   8.112 128.294  0.00  0.00    +0.000 C 
ATOM      9  F   UNL     1     -12.572   9.205 127.979  0.00  0.00    +0.000 F 
ATOM     10  F   UNL     1     -10.749   8.584 128.990  0.00  0.00    +0.000 F 
BRANCH   8  11
ATOM     11  C   UNL     1     -11.358   7.417 127.031  0.00  0.00    +0.000 C 
ATOM     12  F   UNL     1     -10.317   6.583 127.255  0.00  0.00    +0.000 F 
ATOM     13  F   UNL     1     -12.340   6.687 126.455  0.00  0.00    +0.000 F 
ATOM     14  F   UNL     1     -10.945   8.316 126.102  0.00  0.00    +0.000 F 
ENDBRANCH   8  11
ENDBRANCH   1   8
TORSDOF 3
ENDMDL
MODEL 2
REMARK VINA RESULT:      -5.9      0.088      3.943
REMARK  Name = Perflubutane
REMARK  3 active torsions:
REMARK  status: ('A' for Active; 'I' for Inactive)
REMARK    1  A    between atoms: C_2  and  C_5
REMARK    2  A    between atoms: C_5  and  C_8
REMARK    3  A    between atoms: C_8  and  C_11
REMARK                            x       y       z     vdW  Elec       q    Type
REMARK                         _______ _______ _______ _____ _____    ______ ____
ROOT
ATOM      1  C   UNL     1     -11.754   8.104 128.358  0.00  0.00    +0.000 C 
ATOM      2  F   UNL     1     -10.667   8.494 129.082  0.00  0.00    +0.000 F 
ATOM      3  F   UNL     1     -12.439   9.248 128.072  0.00  0.00    +0.000 F 
ENDROOT
BRANCH   1   5
ATOM      4  F   UNL     1     -10.280   6.576 127.305  0.00  0.00    +0.000 F 
ATOM      5  C   UNL     1     -11.312   7.428 127.078  0.00  0.00    +0.000 C 
ATOM      6  F   UNL     1     -10.886   8.314 126.148  0.00  0.00    +0.000 F 
ATOM      7  F   UNL     1     -12.301   6.698 126.513  0.00  0.00    +0.000 F 
ENDBRANCH   1   5
BRANCH   1   8
ATOM      8  C   UNL     1     -12.610   7.158 129.153  0.00  0.00    +0.000 C 
ATOM      9  F   UNL     1     -13.866   7.087 128.628  0.00  0.00    +0.000 F 
ATOM     10  F   UNL     1     -12.109   5.891 129.095  0.00  0.00    +0.000 F 
BRANCH   8  11
ATOM     11  C   UNL     1     -12.674   7.626 130.593  0.00  0.00    +0.000 C 
ATOM     12  F   UNL     1     -11.559   7.308 131.288  0.00  0.00    +0.000 F 
ATOM     13  F   UNL     1     -12.839   8.965 130.690  0.00  0.00    +0.000 F 
ATOM     14  F   UNL     1     -13.718   7.056 131.246  0.00  0.00    +0.000 F 
ENDBRANCH   8  11
ENDBRANCH   1   8
TORSDOF 3
ENDMDL
MODEL 3
REMARK VINA RESULT:      -5.9      0.043      3.936
REMARK  Name = Perflubutane
REMARK  3 active torsions:
REMARK  status: ('A' for Active; 'I' for Inactive)
REMARK    1  A    between atoms: C_2  and  C_5
REMARK    2  A    between atoms: C_5  and  C_8
REMARK    3  A    between atoms: C_8  and  C_11
REMARK                            x       y       z     vdW  Elec       q    Type
REMARK                         _______ _______ _______ _____ _____    ______ ____
ROOT
ATOM      1  C   UNL     1     -11.802   8.109 128.332  0.00  0.00    +0.000 C 
ATOM      2  F   UNL     1     -10.720   8.540 129.040  0.00  0.00    +0.000 F 
ATOM      3  F   UNL     1     -12.518   9.229 128.029  0.00  0.00    +0.000 F 
ENDROOT
BRANCH   1   5
ATOM      4  F   UNL     1     -10.939   8.323 126.135  0.00  0.00    +0.000 F 
ATOM      5  C   UNL     1     -11.350   7.421 127.061  0.00  0.00    +0.000 C 
ATOM      6  F   UNL     1     -12.340   6.699 126.487  0.00  0.00    +0.000 F 
ATOM      7  F   UNL     1     -10.312   6.580 127.273  0.00  0.00    +0.000 F 
ENDBRANCH   1   5
BRANCH   1   8
ATOM      8  C   UNL     1     -12.627   7.156 129.150  0.00  0.00    +0.000 C 
ATOM      9  F   UNL     1     -13.887   7.050 128.641  0.00  0.00    +0.000 F 
ATOM     10  F   UNL     1     -12.100   5.899 129.103  0.00  0.00    +0.000 F 
BRANCH   8  11
ATOM     11  C   UNL     1     -12.684   7.642 130.584  0.00  0.00    +0.000 C 
ATOM     12  F   UNL     1     -12.841   8.983 130.666  0.00  0.00    +0.000 F 
ATOM     13  F   UNL     1     -13.698   7.076 131.278  0.00  0.00    +0.000 F 
ATOM     14  F   UNL     1     -11.541   7.341 131.248  0.00  0.00    +0.000 F 
ENDBRANCH   8  11
ENDBRANCH   1   8
TORSDOF 3
ENDMDL
MODEL 4
REMARK VINA RESULT:      -5.9      0.775      3.824
REMARK  Name = Perflubutane
REMARK  3 active torsions:
REMARK  status: ('A' for Active; 'I' for Inactive)
REMARK    1  A    between atoms: C_2  and  C_5
REMARK    2  A    between atoms: C_5  and  C_8
REMARK    3  A    between atoms: C_8  and  C_11
REMARK                            x       y       z     vdW  Elec       q    Type
REMARK                         _______ _______ _______ _____ _____    ______ ____
ROOT
ATOM      1  C   UNL     1     -12.425   7.211 128.469  0.00  0.00    +0.000 C 
ATOM      2  F   UNL     1     -13.698   7.445 128.042  0.00  0.00    +0.000 F 
ATOM      3  F   UNL     1     -12.420   5.931 128.938  0.00  0.00    +0.000 F 
ENDROOT
BRANCH   1   5
ATOM      4  F   UNL     1     -11.994   6.862 126.165  0.00  0.00    +0.000 F 
ATOM      5  C   UNL     1     -11.457   7.345 127.313  0.00  0.00    +0.000 C 
ATOM      6  F   UNL     1     -10.308   6.661 127.521  0.00  0.00    +0.000 F 
ATOM      7  F   UNL     1     -11.117   8.632 127.072  0.00  0.00    +0.000 F 
ENDBRANCH   1   5
BRANCH   1   8
ATOM      8  C   UNL     1     -12.043   8.177 129.555  0.00  0.00    +0.000 C 
ATOM      9  F   UNL     1     -10.689   8.221 129.707  0.00  0.00    +0.000 F 
ATOM     10  F   UNL     1     -12.422   9.445 129.228  0.00  0.00    +0.000 F 
BRANCH   8  11
ATOM     11  C   UNL     1     -12.699   7.758 130.855  0.00  0.00    +0.000 C 
ATOM     12  F   UNL     1     -13.802   7.002 130.654  0.00  0.00    +0.000 F 
ATOM     13  F   UNL     1     -11.863   7.046 131.645  0.00  0.00    +0.000 F 
ATOM     14  F   UNL     1     -13.090   8.838 131.575  0.00  0.00    +0.000 F 
ENDBRANCH   8  11
ENDBRANCH   1   8
TORSDOF 3
ENDMDL
MODEL 5
REMARK VINA RESULT:      -5.8      0.780      1.969
REMARK  Name = Perflubutane
REMARK  3 active torsions:
REMARK  status: ('A' for Active; 'I' for Inactive)
REMARK    1  A    between atoms: C_2  and  C_5
REMARK    2  A    between atoms: C_5  and  C_8
REMARK    3  A    between atoms: C_8  and  C_11
REMARK                            x       y       z     vdW  Elec       q    Type
REMARK                         _______ _______ _______ _____ _____    ______ ____
ROOT
ATOM      1  C   UNL     1     -12.066   8.195 129.551  0.00  0.00    +0.000 C 
ATOM      2  F   UNL     1     -12.445   9.464 129.227  0.00  0.00    +0.000 F 
ATOM      3  F   UNL     1     -10.711   8.236 129.689  0.00  0.00    +0.000 F 
ENDROOT
BRANCH   1   5
ATOM      4  F   UNL     1     -11.854   7.048 131.613  0.00  0.00    +0.000 F 
ATOM      5  C   UNL     1     -12.711   7.778 130.855  0.00  0.00    +0.000 C 
ATOM      6  F   UNL     1     -13.810   7.013 130.665  0.00  0.00    +0.000 F 
ATOM      7  F   UNL     1     -13.086   8.838 131.606  0.00  0.00    +0.000 F 
ENDBRANCH   1   5
BRANCH   1   8
ATOM      8  C   UNL     1     -12.461   7.231 128.467  0.00  0.00    +0.000 C 
ATOM      9  F   UNL     1     -12.465   5.952 128.939  0.00  0.00    +0.000 F 
ATOM     10  F   UNL     1     -13.734   7.475 128.045  0.00  0.00    +0.000 F 
BRANCH   8  11
ATOM     11  C   UNL     1     -11.495   7.354 127.307  0.00  0.00    +0.000 C 
ATOM     12  F   UNL     1     -10.345   6.675 127.520  0.00  0.00    +0.000 F 
ATOM     13  F   UNL     1     -12.023   6.897 126.149  0.00  0.00    +0.000 F 
ATOM     14  F   UNL     1     -11.150   8.649 127.094  0.00  0.00    +0.000 F 
ENDBRANCH   8  11
ENDBRANCH   1   8
TORSDOF 3
ENDMDL
MODEL 6
REMARK VINA RESULT:      -5.8      1.301      3.578
REMARK  Name = Perflubutane
REMARK  3 active torsions:
REMARK  status: ('A' for Active; 'I' for Inactive)
REMARK    1  A    between atoms: C_2  and  C_5
REMARK    2  A    between atoms: C_5  and  C_8
REMARK    3  A    between atoms: C_8  and  C_11
REMARK                            x       y       z     vdW  Elec       q    Type
REMARK                         _______ _______ _______ _____ _____    ______ ____
ROOT
ATOM      1  C   UNL     1     -12.699   7.908 129.688  0.00  0.00    +0.000 C 
ATOM      2  F   UNL     1     -12.781   8.994 130.508  0.00  0.00    +0.000 F 
ATOM      3  F   UNL     1     -13.658   7.042 130.123  0.00  0.00    +0.000 F 
ENDROOT
BRANCH   1   5
ATOM      4  F   UNL     1     -13.874   9.332 128.202  0.00  0.00    +0.000 F 
ATOM      5  C   UNL     1     -12.977   8.316 128.257  0.00  0.00    +0.000 C 
ATOM      6  F   UNL     1     -13.492   7.302 127.524  0.00  0.00    +0.000 F 
ATOM      7  F   UNL     1     -11.864   8.745 127.619  0.00  0.00    +0.000 F 
ENDBRANCH   1   5
BRANCH   1   8
ATOM      8  C   UNL     1     -11.337   7.280 129.774  0.00  0.00    +0.000 C 
ATOM      9  F   UNL     1     -11.155   6.384 128.763  0.00  0.00    +0.000 F 
ATOM     10  F   UNL     1     -10.362   8.220 129.618  0.00  0.00    +0.000 F 
BRANCH   8  11
ATOM     11  C   UNL     1     -11.184   6.591 131.114  0.00  0.00    +0.000 C 
ATOM     12  F   UNL     1     -11.994   7.118 132.060  0.00  0.00    +0.000 F 
ATOM     13  F   UNL     1     -11.456   5.267 131.045  0.00  0.00    +0.000 F 
ATOM     14  F   UNL     1      -9.915   6.704 131.580  0.00  0.00    +0.000 F 
ENDBRANCH   8  11
ENDBRANCH   1   8
TORSDOF 3
ENDMDL
MODEL 7
REMARK VINA RESULT:      -5.7      1.108      3.878
REMARK  Name = Perflubutane
REMARK  3 active torsions:
REMARK  status: ('A' for Active; 'I' for Inactive)
REMARK    1  A    between atoms: C_2  and  C_5
REMARK    2  A    between atoms: C_5  and  C_8
REMARK    3  A    between atoms: C_8  and  C_11
REMARK                            x       y       z     vdW  Elec       q    Type
REMARK                         _______ _______ _______ _____ _____    ______ ____
ROOT
ATOM      1  C   UNL     1     -11.118   7.451 128.821  0.00  0.00    +0.000 C 
ATOM      2  F   UNL     1     -10.495   6.250 128.654  0.00  0.00    +0.000 F 
ATOM      3  F   UNL     1     -10.134   8.337 129.146  0.00  0.00    +0.000 F 
ENDROOT
BRANCH   1   5
ATOM      4  F   UNL     1     -10.887   8.337 126.636  0.00  0.00    +0.000 F 
ATOM      5  C   UNL     1     -11.792   7.871 127.533  0.00  0.00    +0.000 C 
ATOM      6  F   UNL     1     -12.696   8.859 127.723  0.00  0.00    +0.000 F 
ATOM      7  F   UNL     1     -12.440   6.846 126.933  0.00  0.00    +0.000 F 
ENDBRANCH   1   5
BRANCH   1   8
ATOM      8  C   UNL     1     -12.142   7.370 129.918  0.00  0.00    +0.000 C 
ATOM      9  F   UNL     1     -12.463   8.616 130.371  0.00  0.00    +0.000 F 
ATOM     10  F   UNL     1     -13.305   6.833 129.452  0.00  0.00    +0.000 F 
BRANCH   8  11
ATOM     11  C   UNL     1     -11.599   6.528 131.054  0.00  0.00    +0.000 C 
ATOM     12  F   UNL     1     -11.638   5.205 130.777  0.00  0.00    +0.000 F 
ATOM     13  F   UNL     1     -10.317   6.837 131.355  0.00  0.00    +0.000 F 
ATOM     14  F   UNL     1     -12.321   6.712 132.188  0.00  0.00    +0.000 F 
ENDBRANCH   8  11
ENDBRANCH   1   8
TORSDOF 3
ENDMDL
MODEL 8
REMARK VINA RESULT:      -5.7      1.391      2.609
REMARK  Name = Perflubutane
REMARK  3 active torsions:
REMARK  status: ('A' for Active; 'I' for Inactive)
REMARK    1  A    between atoms: C_2  and  C_5
REMARK    2  A    between atoms: C_5  and  C_8
REMARK    3  A    between atoms: C_8  and  C_11
REMARK                            x       y       z     vdW  Elec       q    Type
REMARK                         _______ _______ _______ _____ _____    ______ ____
ROOT
ATOM      1  C   UNL     1     -11.249   7.038 129.779  0.00  0.00    +0.000 C 
ATOM      2  F   UNL     1     -10.223   7.903 130.018  0.00  0.00    +0.000 F 
ATOM      3  F   UNL     1     -10.934   6.404 128.614  0.00  0.00    +0.000 F 
ENDROOT
BRANCH   1   5
ATOM      4  F   UNL     1     -10.163   5.871 131.532  0.00  0.00    +0.000 F 
ATOM      5  C   UNL     1     -11.356   6.034 130.906  0.00  0.00    +0.000 C 
ATOM      6  F   UNL     1     -11.736   4.810 130.472  0.00  0.00    +0.000 F 
ATOM      7  F   UNL     1     -12.243   6.416 131.853  0.00  0.00    +0.000 F 
ENDBRANCH   1   5
BRANCH   1   8
ATOM      8  C   UNL     1     -12.549   7.781 129.645  0.00  0.00    +0.000 C 
ATOM      9  F   UNL     1     -13.604   6.921 129.721  0.00  0.00    +0.000 F 
ATOM     10  F   UNL     1     -12.710   8.659 130.675  0.00  0.00    +0.000 F 
BRANCH   8  11
ATOM     11  C   UNL     1     -12.573   8.519 128.323  0.00  0.00    +0.000 C 
ATOM     12  F   UNL     1     -13.060   7.758 127.317  0.00  0.00    +0.000 F 
ATOM     13  F   UNL     1     -13.325   9.643 128.376  0.00  0.00    +0.000 F 
ATOM     14  F   UNL     1     -11.325   8.903 127.954  0.00  0.00    +0.000 F 
ENDBRANCH   8  11
ENDBRANCH   1   8
TORSDOF 3
ENDMDL
MODEL 9
REMARK VINA RESULT:      -5.6      1.476      3.245
REMARK  Name = Perflubutane
REMARK  3 active torsions:
REMARK  status: ('A' for Active; 'I' for Inactive)
REMARK    1  A    between atoms: C_2  and  C_5
REMARK    2  A    between atoms: C_5  and  C_8
REMARK    3  A    between atoms: C_8  and  C_11
REMARK                            x       y       z     vdW  Elec       q    Type
REMARK                         _______ _______ _______ _____ _____    ______ ____
ROOT
ATOM      1  C   UNL     1     -12.669   7.191 129.330  0.00  0.00    +0.000 C 
ATOM      2  F   UNL     1     -13.371   7.073 130.493  0.00  0.00    +0.000 F 
ATOM      3  F   UNL     1     -13.264   6.336 128.449  0.00  0.00    +0.000 F 
ENDROOT
BRANCH   1   5
ATOM      4  F   UNL     1     -11.717   8.895 127.985  0.00  0.00    +0.000 F 
ATOM      5  C   UNL     1     -12.754   8.612 128.814  0.00  0.00    +0.000 C 
ATOM      6  F   UNL     1     -12.714   9.525 129.811  0.00  0.00    +0.000 F 
ATOM      7  F   UNL     1     -13.886   8.837 128.109  0.00  0.00    +0.000 F 
ENDBRANCH   1   5
BRANCH   1   8
ATOM      8  C   UNL     1     -11.228   6.820 129.539  0.00  0.00    +0.000 C 
ATOM      9  F   UNL     1     -10.620   6.556 128.347  0.00  0.00    +0.000 F 
ATOM     10  F   UNL     1     -10.537   7.860 130.086  0.00  0.00    +0.000 F 
BRANCH   8  11
ATOM     11  C   UNL     1     -11.146   5.609 130.445  0.00  0.00    +0.000 C 
ATOM     12  F   UNL     1     -11.929   4.593 130.017  0.00  0.00    +0.000 F 
ATOM     13  F   UNL     1      -9.886   5.128 130.547  0.00  0.00    +0.000 F 
ATOM     14  F   UNL     1     -11.551   5.911 131.703  0.00  0.00    +0.000 F 
ENDBRANCH   8  11
ENDBRANCH   1   8
TORSDOF 3
ENDMDL
