MODEL 1
REMARK VINA RESULT:      -6.6      0.000      0.000
REMARK  Name = Perflexane
REMARK  5 active torsions:
REMARK  status: ('A' for Active; 'I' for Inactive)
REMARK    1  A    between atoms: C_2  and  C_5
REMARK    2  A    between atoms: C_5  and  C_8
REMARK    3  A    between atoms: C_8  and  C_11
REMARK    4  A    between atoms: C_11  and  C_14
REMARK    5  A    between atoms: C_14  and  C_17
REMARK                            x       y       z     vdW  Elec       q    Type
REMARK                         _______ _______ _______ _____ _____    ______ ____
ROOT
ATOM      1  C   UNL     1     -11.300   7.258 129.575  0.00  0.00    +0.000 C 
ATOM      2  F   UNL     1     -11.230   6.518 128.435  0.00  0.00    +0.000 F 
ATOM      3  F   UNL     1     -10.331   8.205 129.465  0.00  0.00    +0.000 F 
ENDROOT
BRANCH   1   4
ATOM      4  C   UNL     1     -12.657   7.915 129.682  0.00  0.00    +0.000 C 
ATOM      5  F   UNL     1     -12.622   8.937 130.584  0.00  0.00    +0.000 F 
ATOM      6  F   UNL     1     -13.580   7.030 130.158  0.00  0.00    +0.000 F 
BRANCH   4   8
ATOM      7  F   UNL     1     -13.870   9.530 128.440  0.00  0.00    +0.000 F 
ATOM      8  C   UNL     1     -13.082   8.432 128.323  0.00  0.00    +0.000 C 
ATOM      9  F   UNL     1     -13.793   7.517 127.624  0.00  0.00    +0.000 F 
ATOM     10  F   UNL     1     -12.026   8.790 127.556  0.00  0.00    +0.000 F 
ENDBRANCH   4   8
ENDBRANCH   1   4
BRANCH   1  11
ATOM     11  C   UNL     1     -11.028   6.377 130.780  0.00  0.00    +0.000 C 
ATOM     12  F   UNL     1     -11.452   6.998 131.913  0.00  0.00    +0.000 F 
ATOM     13  F   UNL     1     -11.753   5.230 130.689  0.00  0.00    +0.000 F 
BRANCH  11  14
ATOM     14  C   UNL     1      -9.556   6.052 130.888  0.00  0.00    +0.000 C 
ATOM     15  F   UNL     1      -9.048   5.724 129.666  0.00  0.00    +0.000 F 
ATOM     16  F   UNL     1      -8.855   7.146 131.302  0.00  0.00    +0.000 F 
BRANCH  14  17
ATOM     17  C   UNL     1      -9.357   4.906 131.860  0.00  0.00    +0.000 C 
ATOM     18  F   UNL     1     -10.019   5.099 133.024  0.00  0.00    +0.000 F 
ATOM     19  F   UNL     1      -9.776   3.723 131.353  0.00  0.00    +0.000 F 
ATOM     20  F   UNL     1      -8.047   4.753 132.178  0.00  0.00    +0.000 F 
ENDBRANCH  14  17
ENDBRANCH  11  14
ENDBRANCH   1  11
TORSDOF 5
ENDMDL
MODEL 2
REMARK VINA RESULT:      -6.5      0.129      5.234
REMARK  Name = Perflexane
REMARK  5 active torsions:
REMARK  status: ('A' for Active; 'I' for Inactive)
REMARK    1  A    between atoms: C_2  and  C_5
REMARK    2  A    between atoms: C_5  and  C_8
REMARK    3  A    between atoms: C_8  and  C_11
REMARK    4  A    between atoms: C_11  and  C_14
REMARK    5  A    between atoms: C_14  and  C_17
REMARK                            x       y       z     vdW  Elec       q    Type
REMARK                         _______ _______ _______ _____ _____    ______ ____
ROOT
ATOM      1  C   UNL     1     -10.968   6.389 130.701  0.00  0.00    +0.000 C 
ATOM      2  F   UNL     1     -11.678   5.234 130.581  0.00  0.00    +0.000 F 
ATOM      3  F   UNL     1     -11.416   6.985 131.838  0.00  0.00    +0.000 F 
ENDROOT
BRANCH   1   4
ATOM      4  C   UNL     1      -9.493   6.080 130.824  0.00  0.00    +0.000 C 
ATOM      5  F   UNL     1      -8.799   7.198 131.179  0.00  0.00    +0.000 F 
ATOM      6  F   UNL     1      -8.985   5.693 129.619  0.00  0.00    +0.000 F 
BRANCH   4   8
ATOM      7  F   UNL     1      -8.004   4.969 132.298  0.00  0.00    +0.000 F 
ATOM      8  C   UNL     1      -9.286   4.987 131.853  0.00  0.00    +0.000 C 
ATOM      9  F   UNL     1      -9.542   3.756 131.354  0.00  0.00    +0.000 F 
ATOM     10  F   UNL     1     -10.074   5.150 132.941  0.00  0.00    +0.000 F 
ENDBRANCH   4   8
ENDBRANCH   1   4
BRANCH   1  11
ATOM     11  C   UNL     1     -11.235   7.287 129.507  0.00  0.00    +0.000 C 
ATOM     12  F   UNL     1     -10.270   8.242 129.421  0.00  0.00    +0.000 F 
ATOM     13  F   UNL     1     -11.152   6.566 128.358  0.00  0.00    +0.000 F 
BRANCH  11  14
ATOM     14  C   UNL     1     -12.596   7.935 129.615  0.00  0.00    +0.000 C 
ATOM     15  F   UNL     1     -13.508   7.050 130.109  0.00  0.00    +0.000 F 
ATOM     16  F   UNL     1     -12.563   8.971 130.501  0.00  0.00    +0.000 F 
BRANCH  14  17
ATOM     17  C   UNL     1     -13.035   8.429 128.251  0.00  0.00    +0.000 C 
ATOM     18  F   UNL     1     -13.654   7.465 127.530  0.00  0.00    +0.000 F 
ATOM     19  F   UNL     1     -13.887   9.477 128.333  0.00  0.00    +0.000 F 
ATOM     20  F   UNL     1     -11.974   8.845 127.514  0.00  0.00    +0.000 F 
ENDBRANCH  14  17
ENDBRANCH  11  14
ENDBRANCH   1  11
TORSDOF 5
ENDMDL
MODEL 3
REMARK VINA RESULT:      -6.3      9.497     10.909
REMARK  Name = Perflexane
REMARK  5 active torsions:
REMARK  status: ('A' for Active; 'I' for Inactive)
REMARK    1  A    between atoms: C_2  and  C_5
REMARK    2  A    between atoms: C_5  and  C_8
REMARK    3  A    between atoms: C_8  and  C_11
REMARK    4  A    between atoms: C_11  and  C_14
REMARK    5  A    between atoms: C_14  and  C_17
REMARK                            x       y       z     vdW  Elec       q    Type
REMARK                         _______ _______ _______ _____ _____    ______ ____
ROOT
ATOM      1  C   UNL     1      -8.459  -0.774 124.390  0.00  0.00    +0.000 C 
ATOM      2  F   UNL     1      -7.863  -0.206 125.474  0.00  0.00    +0.000 F 
ATOM      3  F   UNL     1      -9.326  -1.698 124.884  0.00  0.00    +0.000 F 
ENDROOT
BRANCH   1   4
ATOM      4  C   UNL     1      -9.212   0.276 123.605  0.00  0.00    +0.000 C 
ATOM      5  F   UNL     1     -10.038  -0.312 122.693  0.00  0.00    +0.000 F 
ATOM      6  F   UNL     1      -8.347   1.044 122.883  0.00  0.00    +0.000 F 
BRANCH   4   8
ATOM      7  F   UNL     1      -9.360   2.297 124.836  0.00  0.00    +0.000 F 
ATOM      8  C   UNL     1     -10.015   1.143 124.553  0.00  0.00    +0.000 C 
ATOM      9  F   UNL     1     -10.252   0.529 125.735  0.00  0.00    +0.000 F 
ATOM     10  F   UNL     1     -11.216   1.494 124.036  0.00  0.00    +0.000 F 
ENDBRANCH   4   8
ENDBRANCH   1   4
BRANCH   1  11
ATOM     11  C   UNL     1      -7.416  -1.454 123.523  0.00  0.00    +0.000 C 
ATOM     12  F   UNL     1      -7.955  -1.775 122.316  0.00  0.00    +0.000 F 
ATOM     13  F   UNL     1      -6.398  -0.592 123.261  0.00  0.00    +0.000 F 
BRANCH  11  14
ATOM     14  C   UNL     1      -6.882  -2.696 124.198  0.00  0.00    +0.000 C 
ATOM     15  F   UNL     1      -6.851  -2.528 125.551  0.00  0.00    +0.000 F 
ATOM     16  F   UNL     1      -7.710  -3.756 123.973  0.00  0.00    +0.000 F 
BRANCH  14  17
ATOM     17  C   UNL     1      -5.491  -3.001 123.679  0.00  0.00    +0.000 C 
ATOM     18  F   UNL     1      -5.141  -4.293 123.876  0.00  0.00    +0.000 F 
ATOM     19  F   UNL     1      -5.371  -2.751 122.354  0.00  0.00    +0.000 F 
ATOM     20  F   UNL     1      -4.556  -2.243 124.305  0.00  0.00    +0.000 F 
ENDBRANCH  14  17
ENDBRANCH  11  14
ENDBRANCH   1  11
TORSDOF 5
ENDMDL
MODEL 4
REMARK VINA RESULT:      -6.3     10.326     12.597
REMARK  Name = Perflexane
REMARK  5 active torsions:
REMARK  status: ('A' for Active; 'I' for Inactive)
REMARK    1  A    between atoms: C_2  and  C_5
REMARK    2  A    between atoms: C_5  and  C_8
REMARK    3  A    between atoms: C_8  and  C_11
REMARK    4  A    between atoms: C_11  and  C_14
REMARK    5  A    between atoms: C_14  and  C_17
REMARK                            x       y       z     vdW  Elec       q    Type
REMARK                         _______ _______ _______ _____ _____    ______ ____
ROOT
ATOM      1  C   UNL     1      -6.858  -3.182 124.151  0.00  0.00    +0.000 C 
ATOM      2  F   UNL     1      -7.904  -3.013 123.297  0.00  0.00    +0.000 F 
ATOM      3  F   UNL     1      -6.739  -4.524 124.334  0.00  0.00    +0.000 F 
ENDROOT
BRANCH   1   4
ATOM      4  C   UNL     1      -5.593  -2.629 123.534  0.00  0.00    +0.000 C 
ATOM      5  F   UNL     1      -5.198  -1.500 124.189  0.00  0.00    +0.000 F 
ATOM      6  F   UNL     1      -5.817  -2.252 122.243  0.00  0.00    +0.000 F 
BRANCH   4   8
ATOM      7  F   UNL     1      -4.330  -4.141 124.854  0.00  0.00    +0.000 F 
ATOM      8  C   UNL     1      -4.499  -3.675 123.591  0.00  0.00    +0.000 C 
ATOM      9  F   UNL     1      -3.301  -3.188 123.193  0.00  0.00    +0.000 F 
ATOM     10  F   UNL     1      -4.773  -4.749 122.814  0.00  0.00    +0.000 F 
ENDBRANCH   4   8
ENDBRANCH   1   4
BRANCH   1  11
ATOM     11  C   UNL     1      -7.157  -2.504 125.475  0.00  0.00    +0.000 C 
ATOM     12  F   UNL     1      -6.065  -2.567 126.284  0.00  0.00    +0.000 F 
ATOM     13  F   UNL     1      -7.396  -1.181 125.273  0.00  0.00    +0.000 F 
BRANCH  11  14
ATOM     14  C   UNL     1      -8.343  -3.148 126.154  0.00  0.00    +0.000 C 
ATOM     15  F   UNL     1      -9.507  -2.610 125.692  0.00  0.00    +0.000 F 
ATOM     16  F   UNL     1      -8.401  -4.477 125.855  0.00  0.00    +0.000 F 
BRANCH  14  17
ATOM     17  C   UNL     1      -8.238  -2.955 127.654  0.00  0.00    +0.000 C 
ATOM     18  F   UNL     1      -7.106  -3.493 128.163  0.00  0.00    +0.000 F 
ATOM     19  F   UNL     1      -8.254  -1.648 128.006  0.00  0.00    +0.000 F 
ATOM     20  F   UNL     1      -9.275  -3.546 128.299  0.00  0.00    +0.000 F 
ENDBRANCH  14  17
ENDBRANCH  11  14
ENDBRANCH   1  11
TORSDOF 5
ENDMDL
MODEL 5
REMARK VINA RESULT:      -6.2      1.210      5.102
REMARK  Name = Perflexane
REMARK  5 active torsions:
REMARK  status: ('A' for Active; 'I' for Inactive)
REMARK    1  A    between atoms: C_2  and  C_5
REMARK    2  A    between atoms: C_5  and  C_8
REMARK    3  A    between atoms: C_8  and  C_11
REMARK    4  A    between atoms: C_11  and  C_14
REMARK    5  A    between atoms: C_14  and  C_17
REMARK                            x       y       z     vdW  Elec       q    Type
REMARK                         _______ _______ _______ _____ _____    ______ ____
ROOT
ATOM      1  C   UNL     1     -10.139   6.683 130.168  0.00  0.00    +0.000 C 
ATOM      2  F   UNL     1      -9.620   7.941 130.172  0.00  0.00    +0.000 F 
ATOM      3  F   UNL     1      -9.408   5.981 129.262  0.00  0.00    +0.000 F 
ENDROOT
BRANCH   1   4
ATOM      4  C   UNL     1     -10.001   6.062 131.539  0.00  0.00    +0.000 C 
ATOM      5  F   UNL     1     -10.513   4.798 131.544  0.00  0.00    +0.000 F 
ATOM      6  F   UNL     1     -10.728   6.762 132.456  0.00  0.00    +0.000 F 
BRANCH   4   8
ATOM      7  F   UNL     1      -7.943   4.883 131.542  0.00  0.00    +0.000 F 
ATOM      8  C   UNL     1      -8.540   6.034 131.941  0.00  0.00    +0.000 C 
ATOM      9  F   UNL     1      -8.375   6.114 133.282  0.00  0.00    +0.000 F 
ATOM     10  F   UNL     1      -7.836   7.050 131.389  0.00  0.00    +0.000 F 
ENDBRANCH   4   8
ENDBRANCH   1   4
BRANCH   1  11
ATOM     11  C   UNL     1     -11.593   6.726 129.737  0.00  0.00    +0.000 C 
ATOM     12  F   UNL     1     -11.973   5.507 129.266  0.00  0.00    +0.000 F 
ATOM     13  F   UNL     1     -12.388   6.975 130.812  0.00  0.00    +0.000 F 
BRANCH  11  14
ATOM     14  C   UNL     1     -11.811   7.781 128.677  0.00  0.00    +0.000 C 
ATOM     15  F   UNL     1     -11.950   9.011 129.250  0.00  0.00    +0.000 F 
ATOM     16  F   UNL     1     -10.721   7.871 127.863  0.00  0.00    +0.000 F 
BRANCH  14  17
ATOM     17  C   UNL     1     -13.043   7.441 127.864  0.00  0.00    +0.000 C 
ATOM     18  F   UNL     1     -12.735   6.837 126.693  0.00  0.00    +0.000 F 
ATOM     19  F   UNL     1     -13.887   6.619 128.530  0.00  0.00    +0.000 F 
ATOM     20  F   UNL     1     -13.749   8.557 127.553  0.00  0.00    +0.000 F 
ENDBRANCH  14  17
ENDBRANCH  11  14
ENDBRANCH   1  11
TORSDOF 5
ENDMDL
MODEL 6
REMARK VINA RESULT:      -6.2      1.124      2.209
REMARK  Name = Perflexane
REMARK  5 active torsions:
REMARK  status: ('A' for Active; 'I' for Inactive)
REMARK    1  A    between atoms: C_2  and  C_5
REMARK    2  A    between atoms: C_5  and  C_8
REMARK    3  A    between atoms: C_8  and  C_11
REMARK    4  A    between atoms: C_11  and  C_14
REMARK    5  A    between atoms: C_14  and  C_17
REMARK                            x       y       z     vdW  Elec       q    Type
REMARK                         _______ _______ _______ _____ _____    ______ ____
ROOT
ATOM      1  C   UNL     1     -11.088   6.861 128.738  0.00  0.00    +0.000 C 
ATOM      2  F   UNL     1     -12.004   5.862 128.620  0.00  0.00    +0.000 F 
ATOM      3  F   UNL     1     -10.040   6.502 127.950  0.00  0.00    +0.000 F 
ENDROOT
BRANCH   1   4
ATOM      4  C   UNL     1     -11.679   8.165 128.252  0.00  0.00    +0.000 C 
ATOM      5  F   UNL     1     -11.163   8.499 127.035  0.00  0.00    +0.000 F 
ATOM      6  F   UNL     1     -11.341   9.185 129.092  0.00  0.00    +0.000 F 
BRANCH   4   8
ATOM      7  F   UNL     1     -13.680   7.316 129.199  0.00  0.00    +0.000 F 
ATOM      8  C   UNL     1     -13.186   8.040 128.163  0.00  0.00    +0.000 C 
ATOM      9  F   UNL     1     -13.584   7.417 127.030  0.00  0.00    +0.000 F 
ATOM     10  F   UNL     1     -13.806   9.243 128.198  0.00  0.00    +0.000 F 
ENDBRANCH   4   8
ENDBRANCH   1   4
BRANCH   1  11
ATOM     11  C   UNL     1     -10.633   6.977 130.181  0.00  0.00    +0.000 C 
ATOM     12  F   UNL     1      -9.490   7.712 130.249  0.00  0.00    +0.000 F 
ATOM     13  F   UNL     1     -11.560   7.660 130.905  0.00  0.00    +0.000 F 
BRANCH  11  14
ATOM     14  C   UNL     1     -10.408   5.611 130.786  0.00  0.00    +0.000 C 
ATOM     15  F   UNL     1     -11.563   4.888 130.776  0.00  0.00    +0.000 F 
ATOM     16  F   UNL     1      -9.516   4.899 130.039  0.00  0.00    +0.000 F 
BRANCH  14  17
ATOM     17  C   UNL     1      -9.897   5.760 132.205  0.00  0.00    +0.000 C 
ATOM     18  F   UNL     1      -9.786   4.569 132.838  0.00  0.00    +0.000 F 
ATOM     19  F   UNL     1      -8.683   6.355 132.255  0.00  0.00    +0.000 F 
ATOM     20  F   UNL     1     -10.736   6.521 132.952  0.00  0.00    +0.000 F 
ENDBRANCH  14  17
ENDBRANCH  11  14
ENDBRANCH   1  11
TORSDOF 5
ENDMDL
MODEL 7
REMARK VINA RESULT:      -6.1      9.444     11.561
REMARK  Name = Perflexane
REMARK  5 active torsions:
REMARK  status: ('A' for Active; 'I' for Inactive)
REMARK    1  A    between atoms: C_2  and  C_5
REMARK    2  A    between atoms: C_5  and  C_8
REMARK    3  A    between atoms: C_8  and  C_11
REMARK    4  A    between atoms: C_11  and  C_14
REMARK    5  A    between atoms: C_14  and  C_17
REMARK                            x       y       z     vdW  Elec       q    Type
REMARK                         _______ _______ _______ _____ _____    ______ ____
ROOT
ATOM      1  C   UNL     1      -7.626  -1.586 123.445  0.00  0.00    +0.000 C 
ATOM      2  F   UNL     1      -6.670  -0.817 122.856  0.00  0.00    +0.000 F 
ATOM      3  F   UNL     1      -8.367  -2.103 122.429  0.00  0.00    +0.000 F 
ENDROOT
BRANCH   1   4
ATOM      4  C   UNL     1      -6.979  -2.701 124.235  0.00  0.00    +0.000 C 
ATOM      5  F   UNL     1      -7.573  -3.894 123.949  0.00  0.00    +0.000 F 
ATOM      6  F   UNL     1      -7.158  -2.506 125.572  0.00  0.00    +0.000 F 
BRANCH   4   8
ATOM      7  F   UNL     1      -4.937  -3.896 124.402  0.00  0.00    +0.000 F 
ATOM      8  C   UNL     1      -5.500  -2.764 123.910  0.00  0.00    +0.000 C 
ATOM      9  F   UNL     1      -4.813  -1.726 124.439  0.00  0.00    +0.000 F 
ATOM     10  F   UNL     1      -5.266  -2.761 122.577  0.00  0.00    +0.000 F 
ENDBRANCH   4   8
ENDBRANCH   1   4
BRANCH   1  11
ATOM     11  C   UNL     1      -8.502  -0.728 124.339  0.00  0.00    +0.000 C 
ATOM     12  F   UNL     1      -9.382  -1.513 125.016  0.00  0.00    +0.000 F 
ATOM     13  F   UNL     1      -7.740  -0.117 125.285  0.00  0.00    +0.000 F 
BRANCH  11  14
ATOM     14  C   UNL     1      -9.249   0.306 123.528  0.00  0.00    +0.000 C 
ATOM     15  F   UNL     1      -8.379   1.054 122.791  0.00  0.00    +0.000 F 
ATOM     16  F   UNL     1     -10.076  -0.298 122.628  0.00  0.00    +0.000 F 
BRANCH  14  17
ATOM     17  C   UNL     1     -10.049   1.200 124.455  0.00  0.00    +0.000 C 
ATOM     18  F   UNL     1      -9.429   2.378 124.693  0.00  0.00    +0.000 F 
ATOM     19  F   UNL     1     -11.276   1.485 123.960  0.00  0.00    +0.000 F 
ATOM     20  F   UNL     1     -10.242   0.609 125.661  0.00  0.00    +0.000 F 
ENDBRANCH  14  17
ENDBRANCH  11  14
ENDBRANCH   1  11
TORSDOF 5
ENDMDL
MODEL 8
REMARK VINA RESULT:      -6.1      1.417      4.951
REMARK  Name = Perflexane
REMARK  5 active torsions:
REMARK  status: ('A' for Active; 'I' for Inactive)
REMARK    1  A    between atoms: C_2  and  C_5
REMARK    2  A    between atoms: C_5  and  C_8
REMARK    3  A    between atoms: C_8  and  C_11
REMARK    4  A    between atoms: C_11  and  C_14
REMARK    5  A    between atoms: C_14  and  C_17
REMARK                            x       y       z     vdW  Elec       q    Type
REMARK                         _______ _______ _______ _____ _____    ______ ____
ROOT
ATOM      1  C   UNL     1     -10.467   6.577 129.786  0.00  0.00    +0.000 C 
ATOM      2  F   UNL     1      -9.788   7.584 130.400  0.00  0.00    +0.000 F 
ATOM      3  F   UNL     1      -9.603   6.043 128.882  0.00  0.00    +0.000 F 
ENDROOT
BRANCH   1   4
ATOM      4  C   UNL     1     -10.868   5.530 130.800  0.00  0.00    +0.000 C 
ATOM      5  F   UNL     1     -11.170   4.355 130.179  0.00  0.00    +0.000 F 
ATOM      6  F   UNL     1     -12.004   5.909 131.453  0.00  0.00    +0.000 F 
BRANCH   4   8
ATOM      7  F   UNL     1      -9.761   6.269 132.763  0.00  0.00    +0.000 F 
ATOM      8  C   UNL     1      -9.741   5.322 131.791  0.00  0.00    +0.000 C 
ATOM      9  F   UNL     1      -8.523   5.391 131.206  0.00  0.00    +0.000 F 
ATOM     10  F   UNL     1      -9.819   4.123 132.414  0.00  0.00    +0.000 F 
ENDBRANCH   4   8
ENDBRANCH   1   4
BRANCH   1  11
ATOM     11  C   UNL     1     -11.684   7.134 129.072  0.00  0.00    +0.000 C 
ATOM     12  F   UNL     1     -12.401   6.119 128.519  0.00  0.00    +0.000 F 
ATOM     13  F   UNL     1     -12.513   7.732 129.968  0.00  0.00    +0.000 F 
BRANCH  11  14
ATOM     14  C   UNL     1     -11.277   8.122 128.004  0.00  0.00    +0.000 C 
ATOM     15  F   UNL     1     -12.111   9.200 128.008  0.00  0.00    +0.000 F 
ATOM     16  F   UNL     1     -10.031   8.614 128.258  0.00  0.00    +0.000 F 
BRANCH  14  17
ATOM     17  C   UNL     1     -11.304   7.446 126.647  0.00  0.00    +0.000 C 
ATOM     18  F   UNL     1     -12.531   6.970 126.335  0.00  0.00    +0.000 F 
ATOM     19  F   UNL     1     -10.933   8.282 125.649  0.00  0.00    +0.000 F 
ATOM     20  F   UNL     1     -10.454   6.390 126.608  0.00  0.00    +0.000 F 
ENDBRANCH  14  17
ENDBRANCH  11  14
ENDBRANCH   1  11
TORSDOF 5
ENDMDL
MODEL 9
REMARK VINA RESULT:      -6.1      9.625     11.830
REMARK  Name = Perflexane
REMARK  5 active torsions:
REMARK  status: ('A' for Active; 'I' for Inactive)
REMARK    1  A    between atoms: C_2  and  C_5
REMARK    2  A    between atoms: C_5  and  C_8
REMARK    3  A    between atoms: C_8  and  C_11
REMARK    4  A    between atoms: C_11  and  C_14
REMARK    5  A    between atoms: C_14  and  C_17
REMARK                            x       y       z     vdW  Elec       q    Type
REMARK                         _______ _______ _______ _____ _____    ______ ____
ROOT
ATOM      1  C   UNL     1      -8.518  -2.831 126.228  0.00  0.00    +0.000 C 
ATOM      2  F   UNL     1      -8.264  -4.143 125.968  0.00  0.00    +0.000 F 
ATOM      3  F   UNL     1      -9.871  -2.722 126.306  0.00  0.00    +0.000 F 
ENDROOT
BRANCH   1   4
ATOM      4  C   UNL     1      -7.890  -2.434 127.545  0.00  0.00    +0.000 C 
ATOM      5  F   UNL     1      -8.205  -1.143 127.853  0.00  0.00    +0.000 F 
ATOM      6  F   UNL     1      -6.530  -2.475 127.457  0.00  0.00    +0.000 F 
BRANCH   4   8
ATOM      7  F   UNL     1      -8.689  -2.675 129.765  0.00  0.00    +0.000 F 
ATOM      8  C   UNL     1      -8.371  -3.364 128.640  0.00  0.00    +0.000 C 
ATOM      9  F   UNL     1      -7.431  -4.271 128.993  0.00  0.00    +0.000 F 
ATOM     10  F   UNL     1      -9.478  -4.054 128.280  0.00  0.00    +0.000 F 
ENDBRANCH   4   8
ENDBRANCH   1   4
BRANCH   1  11
ATOM     11  C   UNL     1      -7.994  -1.968 125.096  0.00  0.00    +0.000 C 
ATOM     12  F   UNL     1      -9.006  -1.226 124.572  0.00  0.00    +0.000 F 
ATOM     13  F   UNL     1      -7.086  -1.077 125.576  0.00  0.00    +0.000 F 
BRANCH  11  14
ATOM     14  C   UNL     1      -7.364  -2.819 124.018  0.00  0.00    +0.000 C 
ATOM     15  F   UNL     1      -6.232  -3.420 124.484  0.00  0.00    +0.000 F 
ATOM     16  F   UNL     1      -8.203  -3.833 123.659  0.00  0.00    +0.000 F 
BRANCH  14  17
ATOM     17  C   UNL     1      -7.038  -1.959 122.814  0.00  0.00    +0.000 C 
ATOM     18  F   UNL     1      -7.990  -2.037 121.855  0.00  0.00    +0.000 F 
ATOM     19  F   UNL     1      -6.902  -0.652 123.138  0.00  0.00    +0.000 F 
ATOM     20  F   UNL     1      -5.872  -2.342 122.237  0.00  0.00    +0.000 F 
ENDBRANCH  14  17
ENDBRANCH  11  14
ENDBRANCH   1  11
TORSDOF 5
ENDMDL
