MODEL 1
REMARK VINA RESULT:      -5.2      0.000      0.000
REMARK  Name = Perflutren
REMARK  2 active torsions:
REMARK  status: ('A' for Active; 'I' for Inactive)
REMARK    1  A    between atoms: C_2  and  C_5
REMARK    2  A    between atoms: C_5  and  C_8
REMARK                            x       y       z     vdW  Elec       q    Type
REMARK                         _______ _______ _______ _____ _____    ______ ____
ROOT
ATOM      1  C   UNL     1     -12.284   7.891 128.076  0.00  0.00    +0.000 C 
ATOM      2  F   UNL     1     -13.100   7.215 127.214  0.00  0.00    +0.000 F 
ATOM      3  F   UNL     1     -12.825   9.138 128.200  0.00  0.00    +0.000 F 
ENDROOT
BRANCH   1   5
ATOM      4  F   UNL     1     -13.369   7.395 130.118  0.00  0.00    +0.000 F 
ATOM      5  C   UNL     1     -12.227   7.197 129.412  0.00  0.00    +0.000 C 
ATOM      6  F   UNL     1     -11.211   7.648 130.185  0.00  0.00    +0.000 F 
ATOM      7  F   UNL     1     -12.071   5.858 129.293  0.00  0.00    +0.000 F 
ENDBRANCH   1   5
BRANCH   1   8
ATOM      8  C   UNL     1     -10.881   7.968 127.535  0.00  0.00    +0.000 C 
ATOM      9  F   UNL     1     -10.162   8.966 128.099  0.00  0.00    +0.000 F 
ATOM     10  F   UNL     1     -10.188   6.821 127.727  0.00  0.00    +0.000 F 
ATOM     11  F   UNL     1     -10.881   8.200 126.197  0.00  0.00    +0.000 F 
ENDBRANCH   1   8
TORSDOF 2
ENDMDL
MODEL 2
REMARK VINA RESULT:      -5.2      0.021      3.173
REMARK  Name = Perflutren
REMARK  2 active torsions:
REMARK  status: ('A' for Active; 'I' for Inactive)
REMARK    1  A    between atoms: C_2  and  C_5
REMARK    2  A    between atoms: C_5  and  C_8
REMARK                            x       y       z     vdW  Elec       q    Type
REMARK                         _______ _______ _______ _____ _____    ______ ____
ROOT
ATOM      1  C   UNL     1     -12.292   7.870 128.066  0.00  0.00    +0.000 C 
ATOM      2  F   UNL     1     -12.846   9.113 128.181  0.00  0.00    +0.000 F 
ATOM      3  F   UNL     1     -13.097   7.180 127.207  0.00  0.00    +0.000 F 
ENDROOT
BRANCH   1   5
ATOM      4  F   UNL     1     -10.887   8.197 126.192  0.00  0.00    +0.000 F 
ATOM      5  C   UNL     1     -10.887   7.959 127.528  0.00  0.00    +0.000 C 
ATOM      6  F   UNL     1     -10.187   6.817 127.717  0.00  0.00    +0.000 F 
ATOM      7  F   UNL     1     -10.177   8.960 128.099  0.00  0.00    +0.000 F 
ENDBRANCH   1   5
BRANCH   1   8
ATOM      8  C   UNL     1     -12.229   7.186 129.406  0.00  0.00    +0.000 C 
ATOM      9  F   UNL     1     -12.061   5.848 129.298  0.00  0.00    +0.000 F 
ATOM     10  F   UNL     1     -11.221   7.652 130.180  0.00  0.00    +0.000 F 
ATOM     11  F   UNL     1     -13.375   7.376 130.110  0.00  0.00    +0.000 F 
ENDBRANCH   1   8
TORSDOF 2
ENDMDL
MODEL 3
REMARK VINA RESULT:      -5.1      1.252      3.046
REMARK  Name = Perflutren
REMARK  2 active torsions:
REMARK  status: ('A' for Active; 'I' for Inactive)
REMARK    1  A    between atoms: C_2  and  C_5
REMARK    2  A    between atoms: C_5  and  C_8
REMARK                            x       y       z     vdW  Elec       q    Type
REMARK                         _______ _______ _______ _____ _____    ______ ____
ROOT
ATOM      1  C   UNL     1     -12.573   8.439 128.601  0.00  0.00    +0.000 C 
ATOM      2  F   UNL     1     -11.434   9.117 128.276  0.00  0.00    +0.000 F 
ATOM      3  F   UNL     1     -13.608   9.244 128.221  0.00  0.00    +0.000 F 
ENDROOT
BRANCH   1   5
ATOM      4  F   UNL     1     -12.271   7.248 126.579  0.00  0.00    +0.000 F 
ATOM      5  C   UNL     1     -12.632   7.116 127.881  0.00  0.00    +0.000 C 
ATOM      6  F   UNL     1     -13.875   6.580 127.885  0.00  0.00    +0.000 F 
ATOM      7  F   UNL     1     -11.801   6.195 128.422  0.00  0.00    +0.000 F 
ENDBRANCH   1   5
BRANCH   1   8
ATOM      8  C   UNL     1     -12.627   8.161 130.080  0.00  0.00    +0.000 C 
ATOM      9  F   UNL     1     -13.016   9.241 130.796  0.00  0.00    +0.000 F 
ATOM     10  F   UNL     1     -13.477   7.153 130.387  0.00  0.00    +0.000 F 
ATOM     11  F   UNL     1     -11.409   7.799 130.557  0.00  0.00    +0.000 F 
ENDBRANCH   1   8
TORSDOF 2
ENDMDL
MODEL 4
REMARK VINA RESULT:      -5.1      1.006      3.279
REMARK  Name = Perflutren
REMARK  2 active torsions:
REMARK  status: ('A' for Active; 'I' for Inactive)
REMARK    1  A    between atoms: C_2  and  C_5
REMARK    2  A    between atoms: C_5  and  C_8
REMARK                            x       y       z     vdW  Elec       q    Type
REMARK                         _______ _______ _______ _____ _____    ______ ____
ROOT
ATOM      1  C   UNL     1     -11.410   7.416 129.293  0.00  0.00    +0.000 C 
ATOM      2  F   UNL     1     -11.725   6.089 129.233  0.00  0.00    +0.000 F 
ATOM      3  F   UNL     1     -10.504   7.539 130.307  0.00  0.00    +0.000 F 
ENDROOT
BRANCH   1   5
ATOM      4  F   UNL     1     -10.053   6.919 127.421  0.00  0.00    +0.000 F 
ATOM      5  C   UNL     1     -10.819   7.885 127.988  0.00  0.00    +0.000 C 
ATOM      6  F   UNL     1     -10.024   8.970 128.141  0.00  0.00    +0.000 F 
ATOM      7  F   UNL     1     -11.767   8.212 127.079  0.00  0.00    +0.000 F 
ENDBRANCH   1   5
BRANCH   1   8
ATOM      8  C   UNL     1     -12.636   8.246 129.569  0.00  0.00    +0.000 C 
ATOM      9  F   UNL     1     -12.453   9.554 129.277  0.00  0.00    +0.000 F 
ATOM     10  F   UNL     1     -13.713   7.828 128.863  0.00  0.00    +0.000 F 
ATOM     11  F   UNL     1     -12.986   8.186 130.879  0.00  0.00    +0.000 F 
ENDBRANCH   1   8
TORSDOF 2
ENDMDL
MODEL 5
REMARK VINA RESULT:      -5.1      1.001      2.484
REMARK  Name = Perflutren
REMARK  2 active torsions:
REMARK  status: ('A' for Active; 'I' for Inactive)
REMARK    1  A    between atoms: C_2  and  C_5
REMARK    2  A    between atoms: C_5  and  C_8
REMARK                            x       y       z     vdW  Elec       q    Type
REMARK                         _______ _______ _______ _____ _____    ______ ____
ROOT
ATOM      1  C   UNL     1     -11.425   7.427 129.275  0.00  0.00    +0.000 C 
ATOM      2  F   UNL     1     -10.526   7.536 130.297  0.00  0.00    +0.000 F 
ATOM      3  F   UNL     1     -11.755   6.104 129.209  0.00  0.00    +0.000 F 
ENDROOT
BRANCH   1   5
ATOM      4  F   UNL     1     -13.004   8.213 130.851  0.00  0.00    +0.000 F 
ATOM      5  C   UNL     1     -12.645   8.270 129.543  0.00  0.00    +0.000 C 
ATOM      6  F   UNL     1     -13.721   7.865 128.829  0.00  0.00    +0.000 F 
ATOM      7  F   UNL     1     -12.444   9.577 129.254  0.00  0.00    +0.000 F 
ENDBRANCH   1   5
BRANCH   1   8
ATOM      8  C   UNL     1     -10.819   7.892 127.978  0.00  0.00    +0.000 C 
ATOM      9  F   UNL     1     -11.754   8.221 127.057  0.00  0.00    +0.000 F 
ATOM     10  F   UNL     1     -10.020   8.974 128.138  0.00  0.00    +0.000 F 
ATOM     11  F   UNL     1     -10.049   6.923 127.419  0.00  0.00    +0.000 F 
ENDBRANCH   1   8
TORSDOF 2
ENDMDL
MODEL 6
REMARK VINA RESULT:      -5.0      1.320      3.080
REMARK  Name = Perflutren
REMARK  2 active torsions:
REMARK  status: ('A' for Active; 'I' for Inactive)
REMARK    1  A    between atoms: C_2  and  C_5
REMARK    2  A    between atoms: C_5  and  C_8
REMARK                            x       y       z     vdW  Elec       q    Type
REMARK                         _______ _______ _______ _____ _____    ______ ____
ROOT
ATOM      1  C   UNL     1     -12.685   8.021 129.744  0.00  0.00    +0.000 C 
ATOM      2  F   UNL     1     -12.771   9.075 130.607  0.00  0.00    +0.000 F 
ATOM      3  F   UNL     1     -13.568   7.088 130.206  0.00  0.00    +0.000 F 
ENDROOT
BRANCH   1   5
ATOM      4  F   UNL     1     -13.736   9.610 128.343  0.00  0.00    +0.000 F 
ATOM      5  C   UNL     1     -13.039   8.445 128.342  0.00  0.00    +0.000 C 
ATOM      6  F   UNL     1     -13.810   7.534 127.705  0.00  0.00    +0.000 F 
ATOM      7  F   UNL     1     -11.945   8.650 127.572  0.00  0.00    +0.000 F 
ENDBRANCH   1   5
BRANCH   1   8
ATOM      8  C   UNL     1     -11.285   7.465 129.717  0.00  0.00    +0.000 C 
ATOM      9  F   UNL     1     -11.157   6.424 128.863  0.00  0.00    +0.000 F 
ATOM     10  F   UNL     1     -10.367   8.391 129.356  0.00  0.00    +0.000 F 
ATOM     11  F   UNL     1     -10.913   7.010 130.941  0.00  0.00    +0.000 F 
ENDBRANCH   1   8
TORSDOF 2
ENDMDL
MODEL 7
REMARK VINA RESULT:      -5.0      1.437      2.802
REMARK  Name = Perflutren
REMARK  2 active torsions:
REMARK  status: ('A' for Active; 'I' for Inactive)
REMARK    1  A    between atoms: C_2  and  C_5
REMARK    2  A    between atoms: C_5  and  C_8
REMARK                            x       y       z     vdW  Elec       q    Type
REMARK                         _______ _______ _______ _____ _____    ______ ____
ROOT
ATOM      1  C   UNL     1     -12.904   7.293 129.430  0.00  0.00    +0.000 C 
ATOM      2  F   UNL     1     -13.651   6.611 128.513  0.00  0.00    +0.000 F 
ATOM      3  F   UNL     1     -13.537   7.124 130.627  0.00  0.00    +0.000 F 
ENDROOT
BRANCH   1   5
ATOM      4  F   UNL     1     -10.942   6.701 128.248  0.00  0.00    +0.000 F 
ATOM      5  C   UNL     1     -11.499   6.750 129.485  0.00  0.00    +0.000 C 
ATOM      6  F   UNL     1     -11.451   5.492 129.982  0.00  0.00    +0.000 F 
ATOM      7  F   UNL     1     -10.681   7.511 130.248  0.00  0.00    +0.000 F 
ENDBRANCH   1   5
BRANCH   1   8
ATOM      8  C   UNL     1     -12.820   8.753 129.071  0.00  0.00    +0.000 C 
ATOM      9  F   UNL     1     -11.708   9.049 128.359  0.00  0.00    +0.000 F 
ATOM     10  F   UNL     1     -13.882   9.169 128.341  0.00  0.00    +0.000 F 
ATOM     11  F   UNL     1     -12.788   9.532 130.183  0.00  0.00    +0.000 F 
ENDBRANCH   1   8
TORSDOF 2
ENDMDL
MODEL 8
REMARK VINA RESULT:      -4.9      1.136      3.317
REMARK  Name = Perflutren
REMARK  2 active torsions:
REMARK  status: ('A' for Active; 'I' for Inactive)
REMARK    1  A    between atoms: C_2  and  C_5
REMARK    2  A    between atoms: C_5  and  C_8
REMARK                            x       y       z     vdW  Elec       q    Type
REMARK                         _______ _______ _______ _____ _____    ______ ____
ROOT
ATOM      1  C   UNL     1     -12.622   7.217 129.039  0.00  0.00    +0.000 C 
ATOM      2  F   UNL     1     -13.885   6.838 128.686  0.00  0.00    +0.000 F 
ATOM      3  F   UNL     1     -11.846   6.103 128.903  0.00  0.00    +0.000 F 
ENDROOT
BRANCH   1   5
ATOM      4  F   UNL     1     -10.937   8.814 128.583  0.00  0.00    +0.000 F 
ATOM      5  C   UNL     1     -12.127   8.326 128.147  0.00  0.00    +0.000 C 
ATOM      6  F   UNL     1     -12.982   9.375 128.103  0.00  0.00    +0.000 F 
ATOM      7  F   UNL     1     -11.933   7.917 126.872  0.00  0.00    +0.000 F 
ENDBRANCH   1   5
BRANCH   1   8
ATOM      8  C   UNL     1     -12.592   7.720 130.459  0.00  0.00    +0.000 C 
ATOM      9  F   UNL     1     -12.808   9.053 130.542  0.00  0.00    +0.000 F 
ATOM     10  F   UNL     1     -13.518   7.117 131.241  0.00  0.00    +0.000 F 
ATOM     11  F   UNL     1     -11.386   7.486 131.038  0.00  0.00    +0.000 F 
ENDBRANCH   1   8
TORSDOF 2
ENDMDL
MODEL 9
REMARK VINA RESULT:      -4.9      1.066      2.371
REMARK  Name = Perflutren
REMARK  2 active torsions:
REMARK  status: ('A' for Active; 'I' for Inactive)
REMARK    1  A    between atoms: C_2  and  C_5
REMARK    2  A    between atoms: C_5  and  C_8
REMARK                            x       y       z     vdW  Elec       q    Type
REMARK                         _______ _______ _______ _____ _____    ______ ____
ROOT
ATOM      1  C   UNL     1     -11.501   7.982 128.240  0.00  0.00    +0.000 C 
ATOM      2  F   UNL     1     -11.723   7.475 126.991  0.00  0.00    +0.000 F 
ATOM      3  F   UNL     1     -10.649   9.035 128.069  0.00  0.00    +0.000 F 
ENDROOT
BRANCH   1   5
ATOM      4  F   UNL     1     -13.213   9.610 128.339  0.00  0.00    +0.000 F 
ATOM      5  C   UNL     1     -12.792   8.435 128.871  0.00  0.00    +0.000 C 
ATOM      6  F   UNL     1     -12.673   8.634 130.205  0.00  0.00    +0.000 F 
ATOM      7  F   UNL     1     -13.796   7.546 128.689  0.00  0.00    +0.000 F 
ENDBRANCH   1   5
BRANCH   1   8
ATOM      8  C   UNL     1     -10.889   6.940 129.139  0.00  0.00    +0.000 C 
ATOM      9  F   UNL     1      -9.894   6.252 128.532  0.00  0.00    +0.000 F 
ATOM     10  F   UNL     1     -10.372   7.471 130.271  0.00  0.00    +0.000 F 
ATOM     11  F   UNL     1     -11.812   6.024 129.528  0.00  0.00    +0.000 F 
ENDBRANCH   1   8
TORSDOF 2
ENDMDL
