MODEL 1
REMARK VINA RESULT:      -7.1      0.000      0.000
REMARK  Name = Pergolide
REMARK  6 active torsions:
REMARK  status: ('A' for Active; 'I' for Inactive)
REMARK    1  A    between atoms: C_16  and  C_17
REMARK    2  A    between atoms: C_17  and  S_18
REMARK    3  A    between atoms: S_18  and  C_19
REMARK    4  A    between atoms: N_21  and  C_22
REMARK    5  A    between atoms: C_22  and  C_23
REMARK    6  A    between atoms: C_23  and  C_24
REMARK                            x       y       z     vdW  Elec       q    Type
REMARK                         _______ _______ _______ _____ _____    ______ ____
ROOT
ATOM      1  C   UNL     1      -7.045  -1.250 125.005  0.00  0.00    +0.000 C 
ATOM      2  C   UNL     1      -5.857  -0.794 125.895  0.00  0.00    +0.000 C 
ATOM      3  C   UNL     1      -6.241  -1.081 127.310  0.00  0.00    +0.000 A 
ATOM      4  C   UNL     1      -5.855  -0.552 128.487  0.00  0.00    +0.000 A 
ATOM      5  N   UNL     1      -6.465  -1.278 129.499  0.00  0.00    +0.000 N 
ATOM      6  C   UNL     1      -7.333  -2.201 128.927  0.00  0.00    +0.000 A 
ATOM      7  C   UNL     1      -8.120  -3.220 129.478  0.00  0.00    +0.000 A 
ATOM      8  C   UNL     1      -8.850  -3.966 128.535  0.00  0.00    +0.000 A 
ATOM      9  C   UNL     1      -8.972  -3.548 127.178  0.00  0.00    +0.000 A 
ATOM     10  C   UNL     1      -8.382  -2.334 126.715  0.00  0.00    +0.000 A 
ATOM     11  C   UNL     1      -7.378  -1.889 127.598  0.00  0.00    +0.000 A 
ATOM     12  C   UNL     1      -8.506  -1.557 125.361  0.00  0.00    +0.000 C 
ATOM     13  C   UNL     1      -9.021   0.213 125.150  0.00  0.00    +0.000 C 
ATOM     14  C   UNL     1      -8.511   0.964 123.750  0.00  0.00    +0.000 C 
ATOM     15  C   UNL     1      -7.154   0.395 123.249  0.00  0.00    +0.000 C 
ATOM     16  N   UNL     1      -7.094  -1.012 123.566  0.00  0.00    +0.000 NA
ATOM     17  H   UNL     1      -6.334  -1.133 130.467  0.00  0.00    +0.000 HD
ENDROOT
BRANCH  14  18
ATOM     18  C   UNL     1      -8.299   2.548 123.625  0.00  0.00    +0.000 C 
BRANCH  18  19
ATOM     19  S   UNL     1      -6.958   3.072 122.504  0.00  0.00    +0.000 S 
ATOM     20  C   UNL     1      -5.866   4.067 123.598  0.00  0.00    +0.000 C 
ENDBRANCH  18  19
ENDBRANCH  14  18
BRANCH  16  21
ATOM     21  C   UNL     1      -6.075  -1.817 122.975  0.00  0.00    +0.000 C 
BRANCH  21  22
ATOM     22  C   UNL     1      -5.996  -3.217 123.531  0.00  0.00    +0.000 C 
ATOM     23  C   UNL     1      -4.535  -3.597 123.516  0.00  0.00    +0.000 C 
ENDBRANCH  21  22
ENDBRANCH  16  21
TORSDOF 4
ENDMDL
MODEL 2
REMARK VINA RESULT:      -6.8      1.665      2.116
REMARK  Name = Pergolide
REMARK  6 active torsions:
REMARK  status: ('A' for Active; 'I' for Inactive)
REMARK    1  A    between atoms: C_16  and  C_17
REMARK    2  A    between atoms: C_17  and  S_18
REMARK    3  A    between atoms: S_18  and  C_19
REMARK    4  A    between atoms: N_21  and  C_22
REMARK    5  A    between atoms: C_22  and  C_23
REMARK    6  A    between atoms: C_23  and  C_24
REMARK                            x       y       z     vdW  Elec       q    Type
REMARK                         _______ _______ _______ _____ _____    ______ ____
ROOT
ATOM      1  C   UNL     1      -6.783  -1.764 126.002  0.00  0.00    +0.000 C 
ATOM      2  C   UNL     1      -6.237  -0.379 126.446  0.00  0.00    +0.000 C 
ATOM      3  C   UNL     1      -6.754  -0.132 127.825  0.00  0.00    +0.000 A 
ATOM      4  C   UNL     1      -6.982   0.994 128.529  0.00  0.00    +0.000 A 
ATOM      5  N   UNL     1      -7.371   0.625 129.808  0.00  0.00    +0.000 N 
ATOM      6  C   UNL     1      -7.494  -0.759 129.856  0.00  0.00    +0.000 A 
ATOM      7  C   UNL     1      -7.773  -1.643 130.905  0.00  0.00    +0.000 A 
ATOM      8  C   UNL     1      -7.781  -3.000 130.537  0.00  0.00    +0.000 A 
ATOM      9  C   UNL     1      -7.763  -3.408 129.171  0.00  0.00    +0.000 A 
ATOM     10  C   UNL     1      -7.766  -2.457 128.108  0.00  0.00    +0.000 A 
ATOM     11  C   UNL     1      -7.367  -1.186 128.564  0.00  0.00    +0.000 A 
ATOM     12  C   UNL     1      -7.931  -2.615 126.559  0.00  0.00    +0.000 C 
ATOM     13  C   UNL     1      -9.192  -1.770 125.493  0.00  0.00    +0.000 C 
ATOM     14  C   UNL     1      -8.805  -1.618 123.877  0.00  0.00    +0.000 C 
ATOM     15  C   UNL     1      -7.271  -1.498 123.658  0.00  0.00    +0.000 C 
ATOM     16  N   UNL     1      -6.595  -2.294 124.655  0.00  0.00    +0.000 NA
ATOM     17  H   UNL     1      -7.568   1.247 130.548  0.00  0.00    +0.000 HD
ENDROOT
BRANCH  14  18
ATOM     18  C   UNL     1      -9.389  -0.462 122.933  0.00  0.00    +0.000 C 
BRANCH  18  19
ATOM     19  S   UNL     1      -9.870   1.077 123.788  0.00  0.00    +0.000 S 
ATOM     20  C   UNL     1      -8.882   2.361 122.917  0.00  0.00    +0.000 C 
ENDBRANCH  18  19
ENDBRANCH  14  18
BRANCH  16  21
ATOM     21  C   UNL     1      -5.202  -2.565 124.503  0.00  0.00    +0.000 C 
BRANCH  21  22
ATOM     22  C   UNL     1      -4.846  -3.253 123.208  0.00  0.00    +0.000 C 
ATOM     23  C   UNL     1      -4.316  -4.615 123.583  0.00  0.00    +0.000 C 
ENDBRANCH  21  22
ENDBRANCH  16  21
TORSDOF 4
ENDMDL
MODEL 3
REMARK VINA RESULT:      -6.7      3.172      5.897
REMARK  Name = Pergolide
REMARK  6 active torsions:
REMARK  status: ('A' for Active; 'I' for Inactive)
REMARK    1  A    between atoms: C_16  and  C_17
REMARK    2  A    between atoms: C_17  and  S_18
REMARK    3  A    between atoms: S_18  and  C_19
REMARK    4  A    between atoms: N_21  and  C_22
REMARK    5  A    between atoms: C_22  and  C_23
REMARK    6  A    between atoms: C_23  and  C_24
REMARK                            x       y       z     vdW  Elec       q    Type
REMARK                         _______ _______ _______ _____ _____    ______ ____
ROOT
ATOM      1  C   UNL     1      -7.109  -2.845 128.495  0.00  0.00    +0.000 C 
ATOM      2  C   UNL     1      -8.441  -3.527 128.078  0.00  0.00    +0.000 C 
ATOM      3  C   UNL     1      -8.654  -3.214 126.633  0.00  0.00    +0.000 A 
ATOM      4  C   UNL     1      -9.759  -3.150 125.864  0.00  0.00    +0.000 A 
ATOM      5  N   UNL     1      -9.354  -2.915 124.559  0.00  0.00    +0.000 N 
ATOM      6  C   UNL     1      -7.978  -2.716 124.546  0.00  0.00    +0.000 A 
ATOM      7  C   UNL     1      -7.065  -2.527 123.501  0.00  0.00    +0.000 A 
ATOM      8  C   UNL     1      -5.728  -2.390 123.915  0.00  0.00    +0.000 A 
ATOM      9  C   UNL     1      -5.381  -2.201 125.284  0.00  0.00    +0.000 A 
ATOM     10  C   UNL     1      -6.377  -2.112 126.301  0.00  0.00    +0.000 A 
ATOM     11  C   UNL     1      -7.604  -2.644 125.857  0.00  0.00    +0.000 A 
ATOM     12  C   UNL     1      -6.297  -1.733 127.819  0.00  0.00    +0.000 C 
ATOM     13  C   UNL     1      -7.256  -0.393 128.672  0.00  0.00    +0.000 C 
ATOM     14  C   UNL     1      -7.459  -0.570 130.318  0.00  0.00    +0.000 C 
ATOM     15  C   UNL     1      -7.505  -2.065 130.739  0.00  0.00    +0.000 C 
ATOM     16  N   UNL     1      -6.630  -2.819 129.873  0.00  0.00    +0.000 NA
ATOM     17  H   UNL     1      -9.952  -2.855 123.776  0.00  0.00    +0.000 HD
ENDROOT
BRANCH  14  18
ATOM     18  C   UNL     1      -8.686   0.065 131.130  0.00  0.00    +0.000 C 
BRANCH  18  19
ATOM     19  S   UNL     1      -8.515   1.832 131.551  0.00  0.00    +0.000 S 
ATOM     20  C   UNL     1      -9.132   2.681 130.041  0.00  0.00    +0.000 C 
ENDBRANCH  18  19
ENDBRANCH  14  18
BRANCH  16  21
ATOM     21  C   UNL     1      -6.291  -4.161 130.222  0.00  0.00    +0.000 C 
BRANCH  21  22
ATOM     22  C   UNL     1      -4.959  -4.298 130.918  0.00  0.00    +0.000 C 
ATOM     23  C   UNL     1      -3.946  -3.616 130.031  0.00  0.00    +0.000 C 
ENDBRANCH  21  22
ENDBRANCH  16  21
TORSDOF 4
ENDMDL
MODEL 4
REMARK VINA RESULT:      -6.5      3.296      7.206
REMARK  Name = Pergolide
REMARK  6 active torsions:
REMARK  status: ('A' for Active; 'I' for Inactive)
REMARK    1  A    between atoms: C_16  and  C_17
REMARK    2  A    between atoms: C_17  and  S_18
REMARK    3  A    between atoms: S_18  and  C_19
REMARK    4  A    between atoms: N_21  and  C_22
REMARK    5  A    between atoms: C_22  and  C_23
REMARK    6  A    between atoms: C_23  and  C_24
REMARK                            x       y       z     vdW  Elec       q    Type
REMARK                         _______ _______ _______ _____ _____    ______ ____
ROOT
ATOM      1  C   UNL     1      -6.191   2.530 124.711  0.00  0.00    +0.000 C 
ATOM      2  C   UNL     1      -7.466   1.804 124.200  0.00  0.00    +0.000 C 
ATOM      3  C   UNL     1      -7.876   2.488 122.937  0.00  0.00    +0.000 A 
ATOM      4  C   UNL     1      -9.058   2.604 122.302  0.00  0.00    +0.000 A 
ATOM      5  N   UNL     1      -8.834   3.268 121.105  0.00  0.00    +0.000 N 
ATOM      6  C   UNL     1      -7.503   3.668 121.058  0.00  0.00    +0.000 A 
ATOM      7  C   UNL     1      -6.742   4.289 120.059  0.00  0.00    +0.000 A 
ATOM      8  C   UNL     1      -5.395   4.502 120.402  0.00  0.00    +0.000 A 
ATOM      9  C   UNL     1      -4.924   4.335 121.737  0.00  0.00    +0.000 A 
ATOM     10  C   UNL     1      -5.805   3.971 122.799  0.00  0.00    +0.000 A 
ATOM     11  C   UNL     1      -6.997   3.412 122.300  0.00  0.00    +0.000 A 
ATOM     12  C   UNL     1      -5.604   3.900 124.351  0.00  0.00    +0.000 C 
ATOM     13  C   UNL     1      -6.621   4.772 125.634  0.00  0.00    +0.000 C 
ATOM     14  C   UNL     1      -6.615   4.096 127.159  0.00  0.00    +0.000 C 
ATOM     15  C   UNL     1      -6.428   2.554 127.108  0.00  0.00    +0.000 C 
ATOM     16  N   UNL     1      -5.568   2.226 125.996  0.00  0.00    +0.000 NA
ATOM     17  H   UNL     1      -9.518   3.461 120.421  0.00  0.00    +0.000 HD
ENDROOT
BRANCH  14  18
ATOM     18  C   UNL     1      -7.814   4.273 128.209  0.00  0.00    +0.000 C 
BRANCH  18  19
ATOM     19  S   UNL     1      -8.336   2.749 129.065  0.00  0.00    +0.000 S 
ATOM     20  C   UNL     1      -8.017   3.136 130.834  0.00  0.00    +0.000 C 
ENDBRANCH  18  19
ENDBRANCH  14  18
BRANCH  16  21
ATOM     21  C   UNL     1      -5.028   0.909 125.897  0.00  0.00    +0.000 C 
BRANCH  21  22
ATOM     22  C   UNL     1      -5.745  -0.116 126.742  0.00  0.00    +0.000 C 
ATOM     23  C   UNL     1      -5.579  -1.439 126.035  0.00  0.00    +0.000 C 
ENDBRANCH  21  22
ENDBRANCH  16  21
TORSDOF 4
ENDMDL
MODEL 5
REMARK VINA RESULT:      -6.3      7.604     10.162
REMARK  Name = Pergolide
REMARK  6 active torsions:
REMARK  status: ('A' for Active; 'I' for Inactive)
REMARK    1  A    between atoms: C_16  and  C_17
REMARK    2  A    between atoms: C_17  and  S_18
REMARK    3  A    between atoms: S_18  and  C_19
REMARK    4  A    between atoms: N_21  and  C_22
REMARK    5  A    between atoms: C_22  and  C_23
REMARK    6  A    between atoms: C_23  and  C_24
REMARK                            x       y       z     vdW  Elec       q    Type
REMARK                         _______ _______ _______ _____ _____    ______ ____
ROOT
ATOM      1  C   UNL     1      -7.432   5.025 131.825  0.00  0.00    +0.000 C 
ATOM      2  C   UNL     1      -7.210   3.847 130.838  0.00  0.00    +0.000 C 
ATOM      3  C   UNL     1      -6.198   4.303 129.839  0.00  0.00    +0.000 A 
ATOM      4  C   UNL     1      -5.931   3.931 128.572  0.00  0.00    +0.000 A 
ATOM      5  N   UNL     1      -4.805   4.625 128.153  0.00  0.00    +0.000 N 
ATOM      6  C   UNL     1      -4.441   5.526 129.147  0.00  0.00    +0.000 A 
ATOM      7  C   UNL     1      -3.351   6.397 129.274  0.00  0.00    +0.000 A 
ATOM      8  C   UNL     1      -3.332   7.135 130.471  0.00  0.00    +0.000 A 
ATOM      9  C   UNL     1      -4.456   7.177 131.346  0.00  0.00    +0.000 A 
ATOM     10  C   UNL     1      -5.670   6.494 131.035  0.00  0.00    +0.000 A 
ATOM     11  C   UNL     1      -5.456   5.500 130.060  0.00  0.00    +0.000 A 
ATOM     12  C   UNL     1      -7.086   6.515 131.702  0.00  0.00    +0.000 C 
ATOM     13  C   UNL     1      -8.693   6.909 130.863  0.00  0.00    +0.000 C 
ATOM     14  C   UNL     1     -10.068   6.297 131.585  0.00  0.00    +0.000 C 
ATOM     15  C   UNL     1      -9.787   4.961 132.326  0.00  0.00    +0.000 C 
ATOM     16  N   UNL     1      -8.450   5.003 132.870  0.00  0.00    +0.000 NA
ATOM     17  H   UNL     1      -4.364   4.524 127.277  0.00  0.00    +0.000 HD
ENDROOT
BRANCH  14  18
ATOM     18  C   UNL     1     -11.420   5.982 130.784  0.00  0.00    +0.000 C 
BRANCH  18  19
ATOM     19  S   UNL     1     -12.698   7.281 130.864  0.00  0.00    +0.000 S 
ATOM     20  C   UNL     1     -12.159   8.474 129.573  0.00  0.00    +0.000 C 
ENDBRANCH  18  19
ENDBRANCH  14  18
BRANCH  16  21
ATOM     21  C   UNL     1      -8.053   4.013 133.819  0.00  0.00    +0.000 C 
BRANCH  21  22
ATOM     22  C   UNL     1      -6.986   4.476 134.781  0.00  0.00    +0.000 C 
ATOM     23  C   UNL     1      -7.571   5.647 135.531  0.00  0.00    +0.000 C 
ENDBRANCH  21  22
ENDBRANCH  16  21
TORSDOF 4
ENDMDL
MODEL 6
REMARK VINA RESULT:      -6.3      3.748      7.096
REMARK  Name = Pergolide
REMARK  6 active torsions:
REMARK  status: ('A' for Active; 'I' for Inactive)
REMARK    1  A    between atoms: C_16  and  C_17
REMARK    2  A    between atoms: C_17  and  S_18
REMARK    3  A    between atoms: S_18  and  C_19
REMARK    4  A    between atoms: N_21  and  C_22
REMARK    5  A    between atoms: C_22  and  C_23
REMARK    6  A    between atoms: C_23  and  C_24
REMARK                            x       y       z     vdW  Elec       q    Type
REMARK                         _______ _______ _______ _____ _____    ______ ____
ROOT
ATOM      1  C   UNL     1      -7.487  -1.546 129.036  0.00  0.00    +0.000 C 
ATOM      2  C   UNL     1      -6.396  -0.731 128.288  0.00  0.00    +0.000 C 
ATOM      3  C   UNL     1      -6.298  -1.300 126.910  0.00  0.00    +0.000 A 
ATOM      4  C   UNL     1      -5.309  -1.318 125.996  0.00  0.00    +0.000 A 
ATOM      5  N   UNL     1      -5.809  -1.900 124.841  0.00  0.00    +0.000 N 
ATOM      6  C   UNL     1      -7.100  -2.352 125.090  0.00  0.00    +0.000 A 
ATOM      7  C   UNL     1      -8.072  -2.929 124.262  0.00  0.00    +0.000 A 
ATOM      8  C   UNL     1      -9.286  -3.223 124.907  0.00  0.00    +0.000 A 
ATOM      9  C   UNL     1      -9.413  -3.177 126.326  0.00  0.00    +0.000 A 
ATOM     10  C   UNL     1      -8.304  -2.856 127.165  0.00  0.00    +0.000 A 
ATOM     11  C   UNL     1      -7.287  -2.210 126.436  0.00  0.00    +0.000 A 
ATOM     12  C   UNL     1      -8.114  -2.909 128.718  0.00  0.00    +0.000 C 
ATOM     13  C   UNL     1      -6.790  -3.830 129.635  0.00  0.00    +0.000 C 
ATOM     14  C   UNL     1      -6.430  -3.271 131.165  0.00  0.00    +0.000 C 
ATOM     15  C   UNL     1      -6.659  -1.738 131.290  0.00  0.00    +0.000 C 
ATOM     16  N   UNL     1      -7.776  -1.366 130.455  0.00  0.00    +0.000 NA
ATOM     17  H   UNL     1      -5.313  -2.012 123.995  0.00  0.00    +0.000 HD
ENDROOT
BRANCH  14  18
ATOM     18  C   UNL     1      -5.005  -3.475 131.868  0.00  0.00    +0.000 C 
BRANCH  18  19
ATOM     19  S   UNL     1      -5.028  -3.495 133.692  0.00  0.00    +0.000 S 
ATOM     20  C   UNL     1      -6.633  -4.305 134.078  0.00  0.00    +0.000 C 
ENDBRANCH  18  19
ENDBRANCH  14  18
BRANCH  16  21
ATOM     21  C   UNL     1      -8.354  -0.069 130.601  0.00  0.00    +0.000 C 
BRANCH  21  22
ATOM     22  C   UNL     1      -9.110   0.126 131.892  0.00  0.00    +0.000 C 
ATOM     23  C   UNL     1      -9.655   1.533 131.856  0.00  0.00    +0.000 C 
ENDBRANCH  21  22
ENDBRANCH  16  21
TORSDOF 4
ENDMDL
MODEL 7
REMARK VINA RESULT:      -6.2      1.960      5.228
REMARK  Name = Pergolide
REMARK  6 active torsions:
REMARK  status: ('A' for Active; 'I' for Inactive)
REMARK    1  A    between atoms: C_16  and  C_17
REMARK    2  A    between atoms: C_17  and  S_18
REMARK    3  A    between atoms: S_18  and  C_19
REMARK    4  A    between atoms: N_21  and  C_22
REMARK    5  A    between atoms: C_22  and  C_23
REMARK    6  A    between atoms: C_23  and  C_24
REMARK                            x       y       z     vdW  Elec       q    Type
REMARK                         _______ _______ _______ _____ _____    ______ ____
ROOT
ATOM      1  C   UNL     1      -7.144  -1.028 127.447  0.00  0.00    +0.000 C 
ATOM      2  C   UNL     1      -8.401  -0.428 126.758  0.00  0.00    +0.000 C 
ATOM      3  C   UNL     1      -8.106  -0.367 125.295  0.00  0.00    +0.000 A 
ATOM      4  C   UNL     1      -8.583   0.402 124.297  0.00  0.00    +0.000 A 
ATOM      5  N   UNL     1      -8.023  -0.047 123.110  0.00  0.00    +0.000 N 
ATOM      6  C   UNL     1      -7.094  -1.040 123.401  0.00  0.00    +0.000 A 
ATOM      7  C   UNL     1      -6.319  -1.872 122.584  0.00  0.00    +0.000 A 
ATOM      8  C   UNL     1      -5.508  -2.784 123.283  0.00  0.00    +0.000 A 
ATOM      9  C   UNL     1      -5.307  -2.684 124.691  0.00  0.00    +0.000 A 
ATOM     10  C   UNL     1      -5.897  -1.634 125.456  0.00  0.00    +0.000 A 
ATOM     11  C   UNL     1      -6.969  -1.040 124.761  0.00  0.00    +0.000 A 
ATOM     12  C   UNL     1      -5.703  -1.184 126.944  0.00  0.00    +0.000 C 
ATOM     13  C   UNL     1      -5.222   0.510 127.528  0.00  0.00    +0.000 C 
ATOM     14  C   UNL     1      -5.658   0.899 129.091  0.00  0.00    +0.000 C 
ATOM     15  C   UNL     1      -6.962   0.175 129.526  0.00  0.00    +0.000 C 
ATOM     16  N   UNL     1      -7.006  -1.124 128.896  0.00  0.00    +0.000 NA
ATOM     17  H   UNL     1      -8.222   0.310 122.212  0.00  0.00    +0.000 HD
ENDROOT
BRANCH  14  18
ATOM     18  C   UNL     1      -5.903   2.401 129.592  0.00  0.00    +0.000 C 
BRANCH  18  19
ATOM     19  S   UNL     1      -6.055   3.651 128.272  0.00  0.00    +0.000 S 
ATOM     20  C   UNL     1      -7.709   3.294 127.552  0.00  0.00    +0.000 C 
ENDBRANCH  18  19
ENDBRANCH  14  18
BRANCH  16  21
ATOM     21  C   UNL     1      -7.962  -2.084 129.344  0.00  0.00    +0.000 C 
BRANCH  21  22
ATOM     22  C   UNL     1      -7.683  -3.493 128.881  0.00  0.00    +0.000 C 
ATOM     23  C   UNL     1      -8.911  -3.943 128.130  0.00  0.00    +0.000 C 
ENDBRANCH  21  22
ENDBRANCH  16  21
TORSDOF 4
ENDMDL
MODEL 8
REMARK VINA RESULT:      -6.0      2.259      4.213
REMARK  Name = Pergolide
REMARK  6 active torsions:
REMARK  status: ('A' for Active; 'I' for Inactive)
REMARK    1  A    between atoms: C_16  and  C_17
REMARK    2  A    between atoms: C_17  and  S_18
REMARK    3  A    between atoms: S_18  and  C_19
REMARK    4  A    between atoms: N_21  and  C_22
REMARK    5  A    between atoms: C_22  and  C_23
REMARK    6  A    between atoms: C_23  and  C_24
REMARK                            x       y       z     vdW  Elec       q    Type
REMARK                         _______ _______ _______ _____ _____    ______ ____
ROOT
ATOM      1  C   UNL     1      -6.142  -0.859 126.705  0.00  0.00    +0.000 C 
ATOM      2  C   UNL     1      -7.562  -0.878 127.334  0.00  0.00    +0.000 C 
ATOM      3  C   UNL     1      -7.601  -2.034 128.280  0.00  0.00    +0.000 A 
ATOM      4  C   UNL     1      -8.607  -2.788 128.762  0.00  0.00    +0.000 A 
ATOM      5  N   UNL     1      -8.073  -3.665 129.694  0.00  0.00    +0.000 N 
ATOM      6  C   UNL     1      -6.690  -3.522 129.701  0.00  0.00    +0.000 A 
ATOM      7  C   UNL     1      -5.688  -4.094 130.496  0.00  0.00    +0.000 A 
ATOM      8  C   UNL     1      -4.386  -3.657 130.195  0.00  0.00    +0.000 A 
ATOM      9  C   UNL     1      -4.099  -2.902 129.020  0.00  0.00    +0.000 A 
ATOM     10  C   UNL     1      -5.117  -2.579 128.074  0.00  0.00    +0.000 A 
ATOM     11  C   UNL     1      -6.398  -2.707 128.644  0.00  0.00    +0.000 A 
ATOM     12  C   UNL     1      -5.056  -1.941 126.645  0.00  0.00    +0.000 C 
ATOM     13  C   UNL     1      -5.744  -2.669 125.083  0.00  0.00    +0.000 C 
ATOM     14  C   UNL     1      -6.092  -1.588 123.861  0.00  0.00    +0.000 C 
ATOM     15  C   UNL     1      -6.503  -0.197 124.417  0.00  0.00    +0.000 C 
ATOM     16  N   UNL     1      -5.764   0.055 125.631  0.00  0.00    +0.000 NA
ATOM     17  H   UNL     1      -8.587  -4.312 130.232  0.00  0.00    +0.000 HD
ENDROOT
BRANCH  14  18
ATOM     18  C   UNL     1      -7.197  -1.859 122.731  0.00  0.00    +0.000 C 
BRANCH  18  19
ATOM     19  S   UNL     1      -8.926  -1.601 123.251  0.00  0.00    +0.000 S 
ATOM     20  C   UNL     1      -9.540  -3.314 123.513  0.00  0.00    +0.000 C 
ENDBRANCH  18  19
ENDBRANCH  14  18
BRANCH  16  21
ATOM     21  C   UNL     1      -5.760   1.371 126.185  0.00  0.00    +0.000 C 
BRANCH  21  22
ATOM     22  C   UNL     1      -6.087   2.458 125.191  0.00  0.00    +0.000 C 
ATOM     23  C   UNL     1      -5.090   3.565 125.432  0.00  0.00    +0.000 C 
ENDBRANCH  21  22
ENDBRANCH  16  21
TORSDOF 4
ENDMDL
MODEL 9
REMARK VINA RESULT:      -6.0      7.731      9.634
REMARK  Name = Pergolide
REMARK  6 active torsions:
REMARK  status: ('A' for Active; 'I' for Inactive)
REMARK    1  A    between atoms: C_16  and  C_17
REMARK    2  A    between atoms: C_17  and  S_18
REMARK    3  A    between atoms: S_18  and  C_19
REMARK    4  A    between atoms: N_21  and  C_22
REMARK    5  A    between atoms: C_22  and  C_23
REMARK    6  A    between atoms: C_23  and  C_24
REMARK                            x       y       z     vdW  Elec       q    Type
REMARK                         _______ _______ _______ _____ _____    ______ ____
ROOT
ATOM      1  C   UNL     1      -6.749   5.230 130.525  0.00  0.00    +0.000 C 
ATOM      2  C   UNL     1      -7.332   3.801 130.349  0.00  0.00    +0.000 C 
ATOM      3  C   UNL     1      -8.813   3.916 130.504  0.00  0.00    +0.000 A 
ATOM      4  C   UNL     1      -9.765   3.036 130.870  0.00  0.00    +0.000 A 
ATOM      5  N   UNL     1     -10.996   3.663 130.739  0.00  0.00    +0.000 N 
ATOM      6  C   UNL     1     -10.786   4.993 130.394  0.00  0.00    +0.000 A 
ATOM      7  C   UNL     1     -11.667   6.030 130.065  0.00  0.00    +0.000 A 
ATOM      8  C   UNL     1     -11.040   7.247 129.741  0.00  0.00    +0.000 A 
ATOM      9  C   UNL     1      -9.652   7.464 129.983  0.00  0.00    +0.000 A 
ATOM     10  C   UNL     1      -8.836   6.465 130.593  0.00  0.00    +0.000 A 
ATOM     11  C   UNL     1      -9.440   5.196 130.509  0.00  0.00    +0.000 A 
ATOM     12  C   UNL     1      -7.365   6.498 131.131  0.00  0.00    +0.000 C 
ATOM     13  C   UNL     1      -6.810   6.054 132.845  0.00  0.00    +0.000 C 
ATOM     14  C   UNL     1      -5.215   5.591 133.004  0.00  0.00    +0.000 C 
ATOM     15  C   UNL     1      -4.683   4.898 131.718  0.00  0.00    +0.000 C 
ATOM     16  N   UNL     1      -5.315   5.501 130.569  0.00  0.00    +0.000 NA
ATOM     17  H   UNL     1     -11.873   3.243 130.907  0.00  0.00    +0.000 HD
ENDROOT
BRANCH  14  18
ATOM     18  C   UNL     1      -4.686   4.628 134.170  0.00  0.00    +0.000 C 
BRANCH  18  19
ATOM     19  S   UNL     1      -5.984   3.788 135.140  0.00  0.00    +0.000 S 
ATOM     20  C   UNL     1      -6.605   2.506 133.978  0.00  0.00    +0.000 C 
ENDBRANCH  18  19
ENDBRANCH  14  18
BRANCH  16  21
ATOM     21  C   UNL     1      -4.799   5.229 129.266  0.00  0.00    +0.000 C 
BRANCH  21  22
ATOM     22  C   UNL     1      -3.369   4.748 129.259  0.00  0.00    +0.000 C 
ATOM     23  C   UNL     1      -2.552   5.861 128.650  0.00  0.00    +0.000 C 
ENDBRANCH  21  22
ENDBRANCH  16  21
TORSDOF 4
ENDMDL
