MODEL 1
REMARK VINA RESULT:      -7.2      0.000      0.000
REMARK  Name = Perhexiline
REMARK  4 active torsions:
REMARK  status: ('A' for Active; 'I' for Inactive)
REMARK    1  A    between atoms: C_1  and  C_2
REMARK    2  A    between atoms: C_1  and  C_15
REMARK    3  A    between atoms: C_2  and  C_3
REMARK    4  A    between atoms: C_2  and  C_9
REMARK                            x       y       z     vdW  Elec       q    Type
REMARK                         _______ _______ _______ _____ _____    ______ ____
ROOT
ATOM      1  C   UNL     1      -8.957   6.311 131.490  0.00  0.00    +0.000 C 
ENDROOT
BRANCH   1   2
ATOM      2  C   UNL     1     -10.319   6.648 130.815  0.00  0.00    +0.000 C 
ATOM      3  C   UNL     1     -11.546   6.706 131.763  0.00  0.00    +0.000 C 
ATOM      4  C   UNL     1     -12.815   7.133 131.064  0.00  0.00    +0.000 C 
ATOM      5  C   UNL     1     -12.547   8.284 130.101  0.00  0.00    +0.000 C 
ATOM      6  C   UNL     1     -11.554   7.891 129.014  0.00  0.00    +0.000 C 
ATOM      7  C   UNL     1     -10.183   7.578 129.592  0.00  0.00    +0.000 C 
ENDBRANCH   1   2
BRANCH   1   8
ATOM      8  C   UNL     1      -8.712   4.732 131.556  0.00  0.00    +0.000 C 
ATOM      9  C   UNL     1      -9.157   4.078 132.881  0.00  0.00    +0.000 C 
ATOM     10  C   UNL     1      -9.158   2.588 133.036  0.00  0.00    +0.000 C 
ATOM     11  C   UNL     1      -9.988   2.023 131.895  0.00  0.00    +0.000 C 
ATOM     12  C   UNL     1      -9.391   2.467 130.567  0.00  0.00    +0.000 C 
ATOM     13  C   UNL     1      -9.410   3.984 130.403  0.00  0.00    +0.000 C 
ENDBRANCH   1   8
BRANCH   1  14
ATOM     14  C   UNL     1      -7.752   7.140 130.899  0.00  0.00    +0.000 C 
BRANCH  14  15
ATOM     15  C   UNL     1      -6.310   6.559 131.009  0.00  0.00    +0.000 C 
ATOM     16  C   UNL     1      -5.846   6.335 132.445  0.00  0.00    +0.000 C 
ATOM     17  C   UNL     1      -4.409   5.973 132.673  0.00  0.00    +0.000 C 
ATOM     18  C   UNL     1      -3.515   6.889 131.889  0.00  0.00    +0.000 C 
ATOM     19  C   UNL     1      -3.992   6.981 130.440  0.00  0.00    +0.000 C 
ATOM     20  N   UNL     1      -5.367   7.479 130.352  0.00  0.00    +0.000 NA
ATOM     21  H   UNL     1      -5.627   7.593 129.368  0.00  0.00    +0.000 HD
ENDBRANCH  14  15
ENDBRANCH   1  14
TORSDOF 4
ENDMDL
MODEL 2
REMARK VINA RESULT:      -7.1      1.956      4.311
REMARK  Name = Perhexiline
REMARK  4 active torsions:
REMARK  status: ('A' for Active; 'I' for Inactive)
REMARK    1  A    between atoms: C_1  and  C_2
REMARK    2  A    between atoms: C_1  and  C_15
REMARK    3  A    between atoms: C_2  and  C_3
REMARK    4  A    between atoms: C_2  and  C_9
REMARK                            x       y       z     vdW  Elec       q    Type
REMARK                         _______ _______ _______ _____ _____    ______ ____
ROOT
ATOM      1  C   UNL     1      -9.850   5.924 130.399  0.00  0.00    +0.000 C 
ENDROOT
BRANCH   1   2
ATOM      2  C   UNL     1     -10.654   7.154 129.884  0.00  0.00    +0.000 C 
ATOM      3  C   UNL     1     -10.467   7.502 128.384  0.00  0.00    +0.000 C 
ATOM      4  C   UNL     1     -11.347   8.641 127.927  0.00  0.00    +0.000 C 
ATOM      5  C   UNL     1     -12.752   8.513 128.506  0.00  0.00    +0.000 C 
ATOM      6  C   UNL     1     -12.739   8.548 130.030  0.00  0.00    +0.000 C 
ATOM      7  C   UNL     1     -11.999   7.355 130.612  0.00  0.00    +0.000 C 
ENDBRANCH   1   2
BRANCH   1   8
ATOM      8  C   UNL     1      -8.821   6.338 131.552  0.00  0.00    +0.000 C 
ATOM      9  C   UNL     1      -9.149   5.739 132.936  0.00  0.00    +0.000 C 
ATOM     10  C   UNL     1      -8.192   5.886 134.079  0.00  0.00    +0.000 C 
ATOM     11  C   UNL     1      -6.850   5.352 133.607  0.00  0.00    +0.000 C 
ATOM     12  C   UNL     1      -6.403   6.124 132.373  0.00  0.00    +0.000 C 
ATOM     13  C   UNL     1      -7.370   5.955 131.204  0.00  0.00    +0.000 C 
ENDBRANCH   1   8
BRANCH   1  14
ATOM     14  C   UNL     1     -10.767   4.689 130.749  0.00  0.00    +0.000 C 
BRANCH  14  15
ATOM     15  C   UNL     1     -10.268   3.254 130.398  0.00  0.00    +0.000 C 
ATOM     16  C   UNL     1      -9.727   2.482 131.598  0.00  0.00    +0.000 C 
ATOM     17  C   UNL     1      -9.038   1.175 131.344  0.00  0.00    +0.000 C 
ATOM     18  C   UNL     1      -8.045   1.325 130.228  0.00  0.00    +0.000 C 
ATOM     19  C   UNL     1      -8.694   2.018 129.031  0.00  0.00    +0.000 C 
ATOM     20  N   UNL     1      -9.206   3.346 129.384  0.00  0.00    +0.000 NA
ATOM     21  H   UNL     1      -9.570   3.806 128.545  0.00  0.00    +0.000 HD
ENDBRANCH  14  15
ENDBRANCH   1  14
TORSDOF 4
ENDMDL
MODEL 3
REMARK VINA RESULT:      -7.1      0.760      4.198
REMARK  Name = Perhexiline
REMARK  4 active torsions:
REMARK  status: ('A' for Active; 'I' for Inactive)
REMARK    1  A    between atoms: C_1  and  C_2
REMARK    2  A    between atoms: C_1  and  C_15
REMARK    3  A    between atoms: C_2  and  C_3
REMARK    4  A    between atoms: C_2  and  C_9
REMARK                            x       y       z     vdW  Elec       q    Type
REMARK                         _______ _______ _______ _____ _____    ______ ____
ROOT
ATOM      1  C   UNL     1      -8.978   6.099 130.712  0.00  0.00    +0.000 C 
ENDROOT
BRANCH   1   2
ATOM      2  C   UNL     1      -9.397   4.850 131.542  0.00  0.00    +0.000 C 
ATOM      3  C   UNL     1      -9.560   3.532 130.741  0.00  0.00    +0.000 C 
ATOM      4  C   UNL     1      -9.869   2.341 131.617  0.00  0.00    +0.000 C 
ATOM      5  C   UNL     1      -9.019   2.358 132.882  0.00  0.00    +0.000 C 
ATOM      6  C   UNL     1      -9.281   3.604 133.720  0.00  0.00    +0.000 C 
ATOM      7  C   UNL     1      -8.864   4.870 132.989  0.00  0.00    +0.000 C 
ENDBRANCH   1   2
BRANCH   1   8
ATOM      8  C   UNL     1     -10.249   6.977 130.297  0.00  0.00    +0.000 C 
ATOM      9  C   UNL     1     -10.678   6.810 128.823  0.00  0.00    +0.000 C 
ATOM     10  C   UNL     1     -11.948   7.425 128.321  0.00  0.00    +0.000 C 
ATOM     11  C   UNL     1     -13.066   6.936 129.227  0.00  0.00    +0.000 C 
ATOM     12  C   UNL     1     -12.761   7.328 130.666  0.00  0.00    +0.000 C 
ATOM     13  C   UNL     1     -11.477   6.683 131.180  0.00  0.00    +0.000 C 
ENDBRANCH   1   8
BRANCH   1  14
ATOM     14  C   UNL     1      -7.803   6.917 131.375  0.00  0.00    +0.000 C 
BRANCH  14  15
ATOM     15  C   UNL     1      -6.331   6.530 131.039  0.00  0.00    +0.000 C 
ATOM     16  C   UNL     1      -5.479   6.230 132.269  0.00  0.00    +0.000 C 
ATOM     17  C   UNL     1      -4.004   6.045 132.078  0.00  0.00    +0.000 C 
ATOM     18  C   UNL     1      -3.454   7.149 131.221  0.00  0.00    +0.000 C 
ATOM     19  C   UNL     1      -4.307   7.318 129.964  0.00  0.00    +0.000 C 
ATOM     20  N   UNL     1      -5.700   7.631 130.292  0.00  0.00    +0.000 NA
ATOM     21  H   UNL     1      -6.224   7.805 129.430  0.00  0.00    +0.000 HD
ENDBRANCH  14  15
ENDBRANCH   1  14
TORSDOF 4
ENDMDL
MODEL 4
REMARK VINA RESULT:      -7.0      7.017      9.272
REMARK  Name = Perhexiline
REMARK  4 active torsions:
REMARK  status: ('A' for Active; 'I' for Inactive)
REMARK    1  A    between atoms: C_1  and  C_2
REMARK    2  A    between atoms: C_1  and  C_15
REMARK    3  A    between atoms: C_2  and  C_3
REMARK    4  A    between atoms: C_2  and  C_9
REMARK                            x       y       z     vdW  Elec       q    Type
REMARK                         _______ _______ _______ _____ _____    ______ ____
ROOT
ATOM      1  C   UNL     1      -6.965  -0.637 126.228  0.00  0.00    +0.000 C 
ENDROOT
BRANCH   1   2
ATOM      2  C   UNL     1      -6.834  -1.513 124.948  0.00  0.00    +0.000 C 
ATOM      3  C   UNL     1      -7.784  -1.145 123.778  0.00  0.00    +0.000 C 
ATOM      4  C   UNL     1      -7.538  -1.967 122.534  0.00  0.00    +0.000 C 
ATOM      5  C   UNL     1      -6.045  -2.130 122.275  0.00  0.00    +0.000 C 
ATOM      6  C   UNL     1      -5.347  -2.848 123.424  0.00  0.00    +0.000 C 
ATOM      7  C   UNL     1      -5.403  -2.036 124.708  0.00  0.00    +0.000 C 
ENDBRANCH   1   2
BRANCH   1   8
ATOM      8  C   UNL     1      -7.847  -1.365 127.346  0.00  0.00    +0.000 C 
ATOM      9  C   UNL     1      -8.097  -2.864 127.077  0.00  0.00    +0.000 C 
ATOM     10  C   UNL     1      -8.754  -3.728 128.110  0.00  0.00    +0.000 C 
ATOM     11  C   UNL     1      -7.952  -3.576 129.391  0.00  0.00    +0.000 C 
ATOM     12  C   UNL     1      -7.919  -2.109 129.798  0.00  0.00    +0.000 C 
ATOM     13  C   UNL     1      -7.231  -1.235 128.753  0.00  0.00    +0.000 C 
ENDBRANCH   1   8
BRANCH   1  14
ATOM     14  C   UNL     1      -5.581  -0.081 126.742  0.00  0.00    +0.000 C 
BRANCH  14  15
ATOM     15  C   UNL     1      -5.364   1.461 126.806  0.00  0.00    +0.000 C 
ATOM     16  C   UNL     1      -6.033   2.224 125.666  0.00  0.00    +0.000 C 
ATOM     17  C   UNL     1      -5.723   3.683 125.516  0.00  0.00    +0.000 C 
ATOM     18  C   UNL     1      -4.240   3.906 125.599  0.00  0.00    +0.000 C 
ATOM     19  C   UNL     1      -3.665   3.190 126.821  0.00  0.00    +0.000 C 
ATOM     20  N   UNL     1      -3.920   1.748 126.775  0.00  0.00    +0.000 NA
ATOM     21  H   UNL     1      -3.462   1.295 127.571  0.00  0.00    +0.000 HD
ENDBRANCH  14  15
ENDBRANCH   1  14
TORSDOF 4
ENDMDL
MODEL 5
REMARK VINA RESULT:      -7.0      7.773     10.340
REMARK  Name = Perhexiline
REMARK  4 active torsions:
REMARK  status: ('A' for Active; 'I' for Inactive)
REMARK    1  A    between atoms: C_1  and  C_2
REMARK    2  A    between atoms: C_1  and  C_15
REMARK    3  A    between atoms: C_2  and  C_3
REMARK    4  A    between atoms: C_2  and  C_9
REMARK                            x       y       z     vdW  Elec       q    Type
REMARK                         _______ _______ _______ _____ _____    ______ ____
ROOT
ATOM      1  C   UNL     1      -7.827  -1.074 125.669  0.00  0.00    +0.000 C 
ENDROOT
BRANCH   1   2
ATOM      2  C   UNL     1      -8.224  -1.767 127.005  0.00  0.00    +0.000 C 
ATOM      3  C   UNL     1      -8.744  -3.224 126.880  0.00  0.00    +0.000 C 
ATOM      4  C   UNL     1      -9.018  -3.872 128.217  0.00  0.00    +0.000 C 
ATOM      5  C   UNL     1      -7.916  -3.543 129.218  0.00  0.00    +0.000 C 
ATOM      6  C   UNL     1      -7.808  -2.044 129.467  0.00  0.00    +0.000 C 
ATOM      7  C   UNL     1      -7.388  -1.296 128.212  0.00  0.00    +0.000 C 
ENDBRANCH   1   2
BRANCH   1   8
ATOM      8  C   UNL     1      -7.170  -2.111 124.644  0.00  0.00    +0.000 C 
ATOM      9  C   UNL     1      -6.825  -1.506 123.267  0.00  0.00    +0.000 C 
ATOM     10  C   UNL     1      -6.047  -2.295 122.258  0.00  0.00    +0.000 C 
ATOM     11  C   UNL     1      -4.768  -2.751 122.940  0.00  0.00    +0.000 C 
ATOM     12  C   UNL     1      -5.117  -3.571 124.174  0.00  0.00    +0.000 C 
ATOM     13  C   UNL     1      -5.890  -2.759 125.208  0.00  0.00    +0.000 C 
ENDBRANCH   1   8
BRANCH   1  14
ATOM     14  C   UNL     1      -8.986  -0.194 125.061  0.00  0.00    +0.000 C 
BRANCH  14  15
ATOM     15  C   UNL     1      -8.688   1.286 124.673  0.00  0.00    +0.000 C 
ATOM     16  C   UNL     1      -8.933   1.596 123.199  0.00  0.00    +0.000 C 
ATOM     17  C   UNL     1      -8.488   2.928 122.674  0.00  0.00    +0.000 C 
ATOM     18  C   UNL     1      -7.084   3.216 123.123  0.00  0.00    +0.000 C 
ATOM     19  C   UNL     1      -6.950   2.975 124.626  0.00  0.00    +0.000 C 
ATOM     20  N   UNL     1      -7.283   1.594 124.986  0.00  0.00    +0.000 NA
ATOM     21  H   UNL     1      -7.115   1.452 125.987  0.00  0.00    +0.000 HD
ENDBRANCH  14  15
ENDBRANCH   1  14
TORSDOF 4
ENDMDL
MODEL 6
REMARK VINA RESULT:      -6.9      6.921      9.317
REMARK  Name = Perhexiline
REMARK  4 active torsions:
REMARK  status: ('A' for Active; 'I' for Inactive)
REMARK    1  A    between atoms: C_1  and  C_2
REMARK    2  A    between atoms: C_1  and  C_15
REMARK    3  A    between atoms: C_2  and  C_3
REMARK    4  A    between atoms: C_2  and  C_9
REMARK                            x       y       z     vdW  Elec       q    Type
REMARK                         _______ _______ _______ _____ _____    ______ ____
ROOT
ATOM      1  C   UNL     1      -5.609  -0.725 126.953  0.00  0.00    +0.000 C 
ENDROOT
BRANCH   1   2
ATOM      2  C   UNL     1      -6.224  -1.940 127.708  0.00  0.00    +0.000 C 
ATOM      3  C   UNL     1      -5.396  -2.481 128.903  0.00  0.00    +0.000 C 
ATOM      4  C   UNL     1      -6.093  -3.593 129.652  0.00  0.00    +0.000 C 
ATOM      5  C   UNL     1      -7.574  -3.283 129.834  0.00  0.00    +0.000 C 
ATOM      6  C   UNL     1      -8.289  -3.134 128.497  0.00  0.00    +0.000 C 
ATOM      7  C   UNL     1      -7.767  -1.943 127.711  0.00  0.00    +0.000 C 
ENDBRANCH   1   2
BRANCH   1   8
ATOM      8  C   UNL     1      -5.483  -1.015 125.385  0.00  0.00    +0.000 C 
ATOM      9  C   UNL     1      -5.466  -2.514 125.019  0.00  0.00    +0.000 C 
ATOM     10  C   UNL     1      -5.528  -2.953 123.588  0.00  0.00    +0.000 C 
ATOM     11  C   UNL     1      -6.757  -2.300 122.976  0.00  0.00    +0.000 C 
ATOM     12  C   UNL     1      -6.651  -0.788 123.115  0.00  0.00    +0.000 C 
ATOM     13  C   UNL     1      -6.608  -0.344 124.574  0.00  0.00    +0.000 C 
ENDBRANCH   1   8
BRANCH   1  14
ATOM     14  C   UNL     1      -6.304   0.644 127.315  0.00  0.00    +0.000 C 
BRANCH  14  15
ATOM     15  C   UNL     1      -5.425   1.922 127.463  0.00  0.00    +0.000 C 
ATOM     16  C   UNL     1      -4.956   2.502 126.132  0.00  0.00    +0.000 C 
ATOM     17  C   UNL     1      -3.944   3.607 126.161  0.00  0.00    +0.000 C 
ATOM     18  C   UNL     1      -2.819   3.251 127.090  0.00  0.00    +0.000 C 
ATOM     19  C   UNL     1      -3.373   2.774 128.432  0.00  0.00    +0.000 C 
ATOM     20  N   UNL     1      -4.240   1.603 128.275  0.00  0.00    +0.000 NA
ATOM     21  H   UNL     1      -4.535   1.270 129.198  0.00  0.00    +0.000 HD
ENDBRANCH  14  15
ENDBRANCH   1  14
TORSDOF 4
ENDMDL
MODEL 7
REMARK VINA RESULT:      -6.7      6.737      9.461
REMARK  Name = Perhexiline
REMARK  4 active torsions:
REMARK  status: ('A' for Active; 'I' for Inactive)
REMARK    1  A    between atoms: C_1  and  C_2
REMARK    2  A    between atoms: C_1  and  C_15
REMARK    3  A    between atoms: C_2  and  C_3
REMARK    4  A    between atoms: C_2  and  C_9
REMARK                            x       y       z     vdW  Elec       q    Type
REMARK                         _______ _______ _______ _____ _____    ______ ____
ROOT
ATOM      1  C   UNL     1      -7.538  -0.700 126.314  0.00  0.00    +0.000 C 
ENDROOT
BRANCH   1   2
ATOM      2  C   UNL     1      -8.017  -1.463 127.583  0.00  0.00    +0.000 C 
ATOM      3  C   UNL     1      -8.373  -2.959 127.378  0.00  0.00    +0.000 C 
ATOM      4  C   UNL     1      -8.735  -3.664 128.664  0.00  0.00    +0.000 C 
ATOM      5  C   UNL     1      -7.794  -3.257 129.792  0.00  0.00    +0.000 C 
ATOM      6  C   UNL     1      -7.864  -1.761 130.073  0.00  0.00    +0.000 C 
ATOM      7  C   UNL     1      -7.378  -0.944 128.888  0.00  0.00    +0.000 C 
ENDBRANCH   1   2
BRANCH   1   8
ATOM      8  C   UNL     1      -7.242  -1.705 125.105  0.00  0.00    +0.000 C 
ATOM      9  C   UNL     1      -7.918  -1.310 123.775  0.00  0.00    +0.000 C 
ATOM     10  C   UNL     1      -7.602  -2.045 122.508  0.00  0.00    +0.000 C 
ATOM     11  C   UNL     1      -6.092  -2.003 122.335  0.00  0.00    +0.000 C 
ATOM     12  C   UNL     1      -5.425  -2.630 123.552  0.00  0.00    +0.000 C 
ATOM     13  C   UNL     1      -5.733  -1.867 124.837  0.00  0.00    +0.000 C 
ENDBRANCH   1   8
BRANCH   1  14
ATOM     14  C   UNL     1      -8.463   0.522 125.941  0.00  0.00    +0.000 C 
BRANCH  14  15
ATOM     15  C   UNL     1      -7.807   1.832 125.409  0.00  0.00    +0.000 C 
ATOM     16  C   UNL     1      -6.284   1.836 125.497  0.00  0.00    +0.000 C 
ATOM     17  C   UNL     1      -5.563   3.117 125.204  0.00  0.00    +0.000 C 
ATOM     18  C   UNL     1      -6.209   4.252 125.943  0.00  0.00    +0.000 C 
ATOM     19  C   UNL     1      -7.721   4.234 125.722  0.00  0.00    +0.000 C 
ATOM     20  N   UNL     1      -8.321   2.977 126.179  0.00  0.00    +0.000 NA
ATOM     21  H   UNL     1      -9.339   3.029 126.080  0.00  0.00    +0.000 HD
ENDBRANCH  14  15
ENDBRANCH   1  14
TORSDOF 4
ENDMDL
MODEL 8
REMARK VINA RESULT:      -6.7      6.334      9.381
REMARK  Name = Perhexiline
REMARK  4 active torsions:
REMARK  status: ('A' for Active; 'I' for Inactive)
REMARK    1  A    between atoms: C_1  and  C_2
REMARK    2  A    between atoms: C_1  and  C_15
REMARK    3  A    between atoms: C_2  and  C_3
REMARK    4  A    between atoms: C_2  and  C_9
REMARK                            x       y       z     vdW  Elec       q    Type
REMARK                         _______ _______ _______ _____ _____    ______ ____
ROOT
ATOM      1  C   UNL     1      -7.239  -1.922 128.273  0.00  0.00    +0.000 C 
ENDROOT
BRANCH   1   2
ATOM      2  C   UNL     1      -7.641  -2.157 126.787  0.00  0.00    +0.000 C 
ATOM      3  C   UNL     1      -6.466  -2.286 125.783  0.00  0.00    +0.000 C 
ATOM      4  C   UNL     1      -6.919  -2.609 124.379  0.00  0.00    +0.000 C 
ATOM      5  C   UNL     1      -8.025  -3.659 124.391  0.00  0.00    +0.000 C 
ATOM      6  C   UNL     1      -9.253  -3.176 125.153  0.00  0.00    +0.000 C 
ATOM      7  C   UNL     1      -8.949  -2.957 126.626  0.00  0.00    +0.000 C 
ENDBRANCH   1   2
BRANCH   1   8
ATOM      8  C   UNL     1      -6.165  -3.002 128.765  0.00  0.00    +0.000 C 
ATOM      9  C   UNL     1      -4.791  -2.403 129.133  0.00  0.00    +0.000 C 
ATOM     10  C   UNL     1      -3.735  -3.250 129.775  0.00  0.00    +0.000 C 
ATOM     11  C   UNL     1      -4.357  -3.874 131.013  0.00  0.00    +0.000 C 
ATOM     12  C   UNL     1      -5.584  -4.682 130.611  0.00  0.00    +0.000 C 
ATOM     13  C   UNL     1      -6.665  -3.812 129.977  0.00  0.00    +0.000 C 
ENDBRANCH   1   8
BRANCH   1  14
ATOM     14  C   UNL     1      -6.853  -0.424 128.581  0.00  0.00    +0.000 C 
BRANCH  14  15
ATOM     15  C   UNL     1      -7.298   0.208 129.934  0.00  0.00    +0.000 C 
ATOM     16  C   UNL     1      -8.191  -0.701 130.773  0.00  0.00    +0.000 C 
ATOM     17  C   UNL     1      -8.839  -0.123 131.994  0.00  0.00    +0.000 C 
ATOM     18  C   UNL     1      -9.470   1.199 131.664  0.00  0.00    +0.000 C 
ATOM     19  C   UNL     1      -8.478   2.086 130.912  0.00  0.00    +0.000 C 
ATOM     20  N   UNL     1      -8.027   1.459 129.667  0.00  0.00    +0.000 NA
ATOM     21  H   UNL     1      -7.420   2.108 129.158  0.00  0.00    +0.000 HD
ENDBRANCH  14  15
ENDBRANCH   1  14
TORSDOF 4
ENDMDL
MODEL 9
REMARK VINA RESULT:      -6.6      7.396      9.959
REMARK  Name = Perhexiline
REMARK  4 active torsions:
REMARK  status: ('A' for Active; 'I' for Inactive)
REMARK    1  A    between atoms: C_1  and  C_2
REMARK    2  A    between atoms: C_1  and  C_15
REMARK    3  A    between atoms: C_2  and  C_3
REMARK    4  A    between atoms: C_2  and  C_9
REMARK                            x       y       z     vdW  Elec       q    Type
REMARK                         _______ _______ _______ _____ _____    ______ ____
ROOT
ATOM      1  C   UNL     1      -7.173  -1.073 127.002  0.00  0.00    +0.000 C 
ENDROOT
BRANCH   1   2
ATOM      2  C   UNL     1      -6.730  -1.795 128.309  0.00  0.00    +0.000 C 
ATOM      3  C   UNL     1      -7.872  -2.406 129.163  0.00  0.00    +0.000 C 
ATOM      4  C   UNL     1      -7.369  -3.175 130.362  0.00  0.00    +0.000 C 
ATOM      5  C   UNL     1      -6.158  -4.026 129.996  0.00  0.00    +0.000 C 
ATOM      6  C   UNL     1      -4.997  -3.171 129.499  0.00  0.00    +0.000 C 
ATOM      7  C   UNL     1      -5.341  -2.458 128.202  0.00  0.00    +0.000 C 
ENDBRANCH   1   2
BRANCH   1   8
ATOM      8  C   UNL     1      -7.392  -2.113 125.806  0.00  0.00    +0.000 C 
ATOM      9  C   UNL     1      -8.867  -2.501 125.569  0.00  0.00    +0.000 C 
ATOM     10  C   UNL     1      -9.259  -3.325 124.380  0.00  0.00    +0.000 C 
ATOM     11  C   UNL     1      -8.724  -2.612 123.149  0.00  0.00    +0.000 C 
ATOM     12  C   UNL     1      -7.214  -2.453 123.272  0.00  0.00    +0.000 C 
ATOM     13  C   UNL     1      -6.820  -1.596 124.472  0.00  0.00    +0.000 C 
ENDBRANCH   1   8
BRANCH   1  14
ATOM     14  C   UNL     1      -8.367  -0.067 127.226  0.00  0.00    +0.000 C 
BRANCH  14  15
ATOM     15  C   UNL     1      -8.460   1.206 126.332  0.00  0.00    +0.000 C 
ATOM     16  C   UNL     1      -9.349   1.031 125.104  0.00  0.00    +0.000 C 
ATOM     17  C   UNL     1      -9.350   2.119 124.073  0.00  0.00    +0.000 C 
ATOM     18  C   UNL     1      -7.940   2.516 123.742  0.00  0.00    +0.000 C 
ATOM     19  C   UNL     1      -7.147   2.768 125.024  0.00  0.00    +0.000 C 
ATOM     20  N   UNL     1      -7.110   1.580 125.881  0.00  0.00    +0.000 NA
ATOM     21  H   UNL     1      -6.514   1.763 126.693  0.00  0.00    +0.000 HD
ENDBRANCH  14  15
ENDBRANCH   1  14
TORSDOF 4
ENDMDL
