MODEL 1
REMARK VINA RESULT:      -7.4      0.000      0.000
REMARK  Name = Periciazine
REMARK  6 active torsions:
REMARK  status: ('A' for Active; 'I' for Inactive)
REMARK    1  A    between atoms: O_1  and  C_2
REMARK    2  A    between atoms: N_5  and  C_6
REMARK    3  A    between atoms: C_6  and  C_7
REMARK    4  A    between atoms: C_7  and  C_8
REMARK    5  A    between atoms: C_8  and  N_9
REMARK    6  A    between atoms: C_20  and  C_23
REMARK                            x       y       z     vdW  Elec       q    Type
REMARK                         _______ _______ _______ _____ _____    ______ ____
ROOT
ATOM      1  N   UNL     1      -7.507   4.912 131.387  0.00  0.00    +0.000 N 
ATOM      2  C   UNL     1      -8.015   3.583 131.511  0.00  0.00    +0.000 A 
ATOM      3  C   UNL     1      -9.311   3.310 131.996  0.00  0.00    +0.000 A 
ATOM      4  C   UNL     1      -9.767   2.023 132.264  0.00  0.00    +0.000 A 
ATOM      5  C   UNL     1      -8.986   0.939 131.920  0.00  0.00    +0.000 A 
ATOM      6  C   UNL     1      -7.741   1.156 131.355  0.00  0.00    +0.000 A 
ATOM      7  C   UNL     1      -7.249   2.456 131.170  0.00  0.00    +0.000 A 
ATOM      8  S   UNL     1      -5.640   2.516 130.461  0.00  0.00    +0.000 S 
ATOM      9  C   UNL     1      -5.349   4.255 130.394  0.00  0.00    +0.000 A 
ATOM     10  C   UNL     1      -6.240   5.248 130.848  0.00  0.00    +0.000 A 
ATOM     11  C   UNL     1      -5.798   6.579 130.712  0.00  0.00    +0.000 A 
ATOM     12  C   UNL     1      -4.557   6.904 130.155  0.00  0.00    +0.000 A 
ATOM     13  C   UNL     1      -3.710   5.900 129.714  0.00  0.00    +0.000 A 
ATOM     14  C   UNL     1      -4.107   4.580 129.835  0.00  0.00    +0.000 A 
ENDROOT
BRANCH  12  15
ATOM     15  C   UNL     1      -4.177   8.275 130.044  0.00  0.00    +0.000 C 
ATOM     16  N   UNL     1      -3.850   9.390 129.940  0.00  0.00    +0.000 NA
ENDBRANCH  12  15
BRANCH   1  17
ATOM     17  C   UNL     1      -8.375   5.999 131.880  0.00  0.00    +0.000 C 
BRANCH  17  18
ATOM     18  C   UNL     1      -9.116   6.675 130.739  0.00  0.00    +0.000 C 
BRANCH  18  19
ATOM     19  C   UNL     1     -10.613   6.567 130.952  0.00  0.00    +0.000 C 
BRANCH  19  23
ATOM     20  C   UNL     1     -12.228   7.600 127.127  0.00  0.00    +0.000 C 
ATOM     21  C   UNL     1     -11.048   8.372 127.709  0.00  0.00    +0.000 C 
ATOM     22  C   UNL     1     -10.346   7.586 128.810  0.00  0.00    +0.000 C 
ATOM     23  N   UNL     1     -11.315   7.225 129.850  0.00  0.00    +0.000 NA
ATOM     24  C   UNL     1     -12.371   6.363 129.279  0.00  0.00    +0.000 C 
ATOM     25  C   UNL     1     -13.158   7.108 128.218  0.00  0.00    +0.000 C 
BRANCH  20  26
ATOM     26  O   UNL     1     -11.758   6.467 126.395  0.00  0.00    +0.000 OA
ATOM     27  H   UNL     1     -12.522   6.078 125.938  0.00  0.00    +0.000 HD
ENDBRANCH  20  26
ENDBRANCH  19  23
ENDBRANCH  18  19
ENDBRANCH  17  18
ENDBRANCH   1  17
TORSDOF 6
ENDMDL
MODEL 2
REMARK VINA RESULT:      -7.4      7.723      9.654
REMARK  Name = Periciazine
REMARK  6 active torsions:
REMARK  status: ('A' for Active; 'I' for Inactive)
REMARK    1  A    between atoms: O_1  and  C_2
REMARK    2  A    between atoms: N_5  and  C_6
REMARK    3  A    between atoms: C_6  and  C_7
REMARK    4  A    between atoms: C_7  and  C_8
REMARK    5  A    between atoms: C_8  and  N_9
REMARK    6  A    between atoms: C_20  and  C_23
REMARK                            x       y       z     vdW  Elec       q    Type
REMARK                         _______ _______ _______ _____ _____    ______ ____
ROOT
ATOM      1  N   UNL     1      -7.893   3.118 122.959  0.00  0.00    +0.000 N 
ATOM      2  C   UNL     1      -7.742   3.614 121.628  0.00  0.00    +0.000 A 
ATOM      3  C   UNL     1      -8.789   3.577 120.683  0.00  0.00    +0.000 A 
ATOM      4  C   UNL     1      -8.616   3.917 119.344  0.00  0.00    +0.000 A 
ATOM      5  C   UNL     1      -7.412   4.446 118.927  0.00  0.00    +0.000 A 
ATOM      6  C   UNL     1      -6.383   4.587 119.841  0.00  0.00    +0.000 A 
ATOM      7  C   UNL     1      -6.533   4.160 121.168  0.00  0.00    +0.000 A 
ATOM      8  S   UNL     1      -5.102   4.405 122.163  0.00  0.00    +0.000 S 
ATOM      9  C   UNL     1      -5.636   3.756 123.714  0.00  0.00    +0.000 A 
ATOM     10  C   UNL     1      -6.900   3.187 123.967  0.00  0.00    +0.000 A 
ATOM     11  C   UNL     1      -7.111   2.716 125.278  0.00  0.00    +0.000 A 
ATOM     12  C   UNL     1      -6.134   2.811 126.276  0.00  0.00    +0.000 A 
ATOM     13  C   UNL     1      -4.905   3.383 125.990  0.00  0.00    +0.000 A 
ATOM     14  C   UNL     1      -4.659   3.852 124.712  0.00  0.00    +0.000 A 
ENDROOT
BRANCH  12  15
ATOM     15  C   UNL     1      -6.419   2.317 127.584  0.00  0.00    +0.000 C 
ATOM     16  N   UNL     1      -6.632   1.920 128.659  0.00  0.00    +0.000 NA
ENDBRANCH  12  15
BRANCH   1  17
ATOM     17  C   UNL     1      -9.182   2.474 123.281  0.00  0.00    +0.000 C 
BRANCH  17  18
ATOM     18  C   UNL     1      -9.044   0.963 123.345  0.00  0.00    +0.000 C 
BRANCH  18  19
ATOM     19  C   UNL     1      -9.551   0.449 124.678  0.00  0.00    +0.000 C 
BRANCH  19  23
ATOM     20  C   UNL     1      -8.507  -3.696 124.466  0.00  0.00    +0.000 C 
ATOM     21  C   UNL     1      -9.209  -3.007 123.298  0.00  0.00    +0.000 C 
ATOM     22  C   UNL     1      -9.072  -1.491 123.372  0.00  0.00    +0.000 C 
ATOM     23  N   UNL     1      -9.584  -1.014 124.661  0.00  0.00    +0.000 NA
ATOM     24  C   UNL     1      -8.793  -1.596 125.765  0.00  0.00    +0.000 C 
ATOM     25  C   UNL     1      -8.937  -3.105 125.793  0.00  0.00    +0.000 C 
BRANCH  20  26
ATOM     26  O   UNL     1      -7.092  -3.543 124.345  0.00  0.00    +0.000 OA
ATOM     27  H   UNL     1      -6.883  -2.612 124.529  0.00  0.00    +0.000 HD
ENDBRANCH  20  26
ENDBRANCH  19  23
ENDBRANCH  18  19
ENDBRANCH  17  18
ENDBRANCH   1  17
TORSDOF 6
ENDMDL
MODEL 3
REMARK VINA RESULT:      -7.3      5.343      7.899
REMARK  Name = Periciazine
REMARK  6 active torsions:
REMARK  status: ('A' for Active; 'I' for Inactive)
REMARK    1  A    between atoms: O_1  and  C_2
REMARK    2  A    between atoms: N_5  and  C_6
REMARK    3  A    between atoms: C_6  and  C_7
REMARK    4  A    between atoms: C_7  and  C_8
REMARK    5  A    between atoms: C_8  and  N_9
REMARK    6  A    between atoms: C_20  and  C_23
REMARK                            x       y       z     vdW  Elec       q    Type
REMARK                         _______ _______ _______ _____ _____    ______ ____
ROOT
ATOM      1  N   UNL     1      -7.358   0.541 128.840  0.00  0.00    +0.000 N 
ATOM      2  C   UNL     1      -6.577  -0.646 128.990  0.00  0.00    +0.000 A 
ATOM      3  C   UNL     1      -5.668  -1.083 128.004  0.00  0.00    +0.000 A 
ATOM      4  C   UNL     1      -5.013  -2.310 128.066  0.00  0.00    +0.000 A 
ATOM      5  C   UNL     1      -5.135  -3.091 129.197  0.00  0.00    +0.000 A 
ATOM      6  C   UNL     1      -5.946  -2.658 130.232  0.00  0.00    +0.000 A 
ATOM      7  C   UNL     1      -6.674  -1.464 130.127  0.00  0.00    +0.000 A 
ATOM      8  S   UNL     1      -7.662  -1.104 131.538  0.00  0.00    +0.000 S 
ATOM      9  C   UNL     1      -8.425   0.412 131.057  0.00  0.00    +0.000 A 
ATOM     10  C   UNL     1      -8.237   1.062 129.821  0.00  0.00    +0.000 A 
ATOM     11  C   UNL     1      -8.958   2.259 129.640  0.00  0.00    +0.000 A 
ATOM     12  C   UNL     1      -9.804   2.781 130.624  0.00  0.00    +0.000 A 
ATOM     13  C   UNL     1      -9.959   2.116 131.830  0.00  0.00    +0.000 A 
ATOM     14  C   UNL     1      -9.271   0.935 132.043  0.00  0.00    +0.000 A 
ENDROOT
BRANCH  12  15
ATOM     15  C   UNL     1     -10.500   4.001 130.374  0.00  0.00    +0.000 C 
ATOM     16  N   UNL     1     -11.081   4.988 130.153  0.00  0.00    +0.000 NA
ENDBRANCH  12  15
BRANCH   1  17
ATOM     17  C   UNL     1      -7.237   1.251 127.551  0.00  0.00    +0.000 C 
BRANCH  17  18
ATOM     18  C   UNL     1      -8.378   0.895 126.614  0.00  0.00    +0.000 C 
BRANCH  18  19
ATOM     19  C   UNL     1      -7.834   0.498 125.256  0.00  0.00    +0.000 C 
BRANCH  19  23
ATOM     20  C   UNL     1      -8.851  -3.561 124.361  0.00  0.00    +0.000 C 
ATOM     21  C   UNL     1      -8.976  -3.021 125.782  0.00  0.00    +0.000 C 
ATOM     22  C   UNL     1      -9.022  -1.497 125.806  0.00  0.00    +0.000 C 
ATOM     23  N   UNL     1      -7.836  -0.960 125.132  0.00  0.00    +0.000 NA
ATOM     24  C   UNL     1      -7.819  -1.392 123.719  0.00  0.00    +0.000 C 
ATOM     25  C   UNL     1      -7.706  -2.900 123.619  0.00  0.00    +0.000 C 
BRANCH  20  26
ATOM     26  O   UNL     1     -10.056  -3.313 123.635  0.00  0.00    +0.000 OA
ATOM     27  H   UNL     1      -9.814  -2.850 122.816  0.00  0.00    +0.000 HD
ENDBRANCH  20  26
ENDBRANCH  19  23
ENDBRANCH  18  19
ENDBRANCH  17  18
ENDBRANCH   1  17
TORSDOF 6
ENDMDL
MODEL 4
REMARK VINA RESULT:      -7.2      6.620      8.830
REMARK  Name = Periciazine
REMARK  6 active torsions:
REMARK  status: ('A' for Active; 'I' for Inactive)
REMARK    1  A    between atoms: O_1  and  C_2
REMARK    2  A    between atoms: N_5  and  C_6
REMARK    3  A    between atoms: C_6  and  C_7
REMARK    4  A    between atoms: C_7  and  C_8
REMARK    5  A    between atoms: C_8  and  N_9
REMARK    6  A    between atoms: C_20  and  C_23
REMARK                            x       y       z     vdW  Elec       q    Type
REMARK                         _______ _______ _______ _____ _____    ______ ____
ROOT
ATOM      1  N   UNL     1      -6.436  -1.773 126.338  0.00  0.00    +0.000 N 
ATOM      2  C   UNL     1      -7.083  -1.971 125.080  0.00  0.00    +0.000 A 
ATOM      3  C   UNL     1      -6.526  -1.521 123.864  0.00  0.00    +0.000 A 
ATOM      4  C   UNL     1      -7.210  -1.570 122.652  0.00  0.00    +0.000 A 
ATOM      5  C   UNL     1      -8.431  -2.209 122.584  0.00  0.00    +0.000 A 
ATOM      6  C   UNL     1      -8.975  -2.748 123.737  0.00  0.00    +0.000 A 
ATOM      7  C   UNL     1      -8.325  -2.616 124.973  0.00  0.00    +0.000 A 
ATOM      8  S   UNL     1      -9.192  -3.349 126.317  0.00  0.00    +0.000 S 
ATOM      9  C   UNL     1      -8.120  -2.984 127.669  0.00  0.00    +0.000 A 
ATOM     10  C   UNL     1      -6.914  -2.259 127.580  0.00  0.00    +0.000 A 
ATOM     11  C   UNL     1      -6.220  -2.069 128.791  0.00  0.00    +0.000 A 
ATOM     12  C   UNL     1      -6.685  -2.575 130.010  0.00  0.00    +0.000 A 
ATOM     13  C   UNL     1      -7.872  -3.288 130.057  0.00  0.00    +0.000 A 
ATOM     14  C   UNL     1      -8.585  -3.490 128.889  0.00  0.00    +0.000 A 
ENDROOT
BRANCH  12  15
ATOM     15  C   UNL     1      -5.926  -2.349 131.197  0.00  0.00    +0.000 C 
ATOM     16  N   UNL     1      -5.319  -2.146 132.172  0.00  0.00    +0.000 NA
ENDBRANCH  12  15
BRANCH   1  17
ATOM     17  C   UNL     1      -5.186  -0.987 126.321  0.00  0.00    +0.000 C 
BRANCH  17  18
ATOM     18  C   UNL     1      -5.366   0.352 127.014  0.00  0.00    +0.000 C 
BRANCH  18  19
ATOM     19  C   UNL     1      -5.174   1.482 126.022  0.00  0.00    +0.000 C 
BRANCH  19  23
ATOM     20  C   UNL     1      -8.854   2.890 124.352  0.00  0.00    +0.000 C 
ATOM     21  C   UNL     1      -8.830   1.672 125.272  0.00  0.00    +0.000 C 
ATOM     22  C   UNL     1      -7.555   1.619 126.106  0.00  0.00    +0.000 C 
ATOM     23  N   UNL     1      -6.387   1.644 125.220  0.00  0.00    +0.000 NA
ATOM     24  C   UNL     1      -6.369   2.900 124.443  0.00  0.00    +0.000 C 
ATOM     25  C   UNL     1      -7.581   2.989 123.536  0.00  0.00    +0.000 C 
BRANCH  20  26
ATOM     26  O   UNL     1      -8.984   4.084 125.125  0.00  0.00    +0.000 OA
ATOM     27  H   UNL     1      -9.805   4.010 125.640  0.00  0.00    +0.000 HD
ENDBRANCH  20  26
ENDBRANCH  19  23
ENDBRANCH  18  19
ENDBRANCH  17  18
ENDBRANCH   1  17
TORSDOF 6
ENDMDL
MODEL 5
REMARK VINA RESULT:      -7.2      7.796      9.166
REMARK  Name = Periciazine
REMARK  6 active torsions:
REMARK  status: ('A' for Active; 'I' for Inactive)
REMARK    1  A    between atoms: O_1  and  C_2
REMARK    2  A    between atoms: N_5  and  C_6
REMARK    3  A    between atoms: C_6  and  C_7
REMARK    4  A    between atoms: C_7  and  C_8
REMARK    5  A    between atoms: C_8  and  N_9
REMARK    6  A    between atoms: C_20  and  C_23
REMARK                            x       y       z     vdW  Elec       q    Type
REMARK                         _______ _______ _______ _____ _____    ______ ____
ROOT
ATOM      1  N   UNL     1      -7.892   2.687 124.194  0.00  0.00    +0.000 N 
ATOM      2  C   UNL     1      -7.555   2.489 125.568  0.00  0.00    +0.000 A 
ATOM      3  C   UNL     1      -8.399   1.798 126.462  0.00  0.00    +0.000 A 
ATOM      4  C   UNL     1      -8.158   1.727 127.832  0.00  0.00    +0.000 A 
ATOM      5  C   UNL     1      -6.979   2.227 128.343  0.00  0.00    +0.000 A 
ATOM      6  C   UNL     1      -6.076   2.834 127.487  0.00  0.00    +0.000 A 
ATOM      7  C   UNL     1      -6.364   2.984 126.122  0.00  0.00    +0.000 A 
ATOM      8  S   UNL     1      -5.099   3.801 125.212  0.00  0.00    +0.000 S 
ATOM      9  C   UNL     1      -5.792   3.826 123.590  0.00  0.00    +0.000 A 
ATOM     10  C   UNL     1      -7.057   3.315 123.237  0.00  0.00    +0.000 A 
ATOM     11  C   UNL     1      -7.420   3.453 121.883  0.00  0.00    +0.000 A 
ATOM     12  C   UNL     1      -6.579   4.051 120.938  0.00  0.00    +0.000 A 
ATOM     13  C   UNL     1      -5.339   4.537 121.322  0.00  0.00    +0.000 A 
ATOM     14  C   UNL     1      -4.950   4.424 122.645  0.00  0.00    +0.000 A 
ENDROOT
BRANCH  12  15
ATOM     15  C   UNL     1      -7.010   4.153 119.582  0.00  0.00    +0.000 C 
ATOM     16  N   UNL     1      -7.383   4.238 118.480  0.00  0.00    +0.000 NA
ENDBRANCH  12  15
BRANCH   1  17
ATOM     17  C   UNL     1      -9.222   2.208 123.765  0.00  0.00    +0.000 C 
BRANCH  17  18
ATOM     18  C   UNL     1      -9.114   0.924 122.962  0.00  0.00    +0.000 C 
BRANCH  18  19
ATOM     19  C   UNL     1      -9.473  -0.266 123.831  0.00  0.00    +0.000 C 
BRANCH  19  23
ATOM     20  C   UNL     1      -6.244  -3.072 123.941  0.00  0.00    +0.000 C 
ATOM     21  C   UNL     1      -6.282  -1.967 122.888  0.00  0.00    +0.000 C 
ATOM     22  C   UNL     1      -7.219  -0.834 123.292  0.00  0.00    +0.000 C 
ATOM     23  N   UNL     1      -8.558  -1.372 123.551  0.00  0.00    +0.000 NA
ATOM     24  C   UNL     1      -8.506  -2.339 124.669  0.00  0.00    +0.000 C 
ATOM     25  C   UNL     1      -7.641  -3.531 124.309  0.00  0.00    +0.000 C 
BRANCH  20  26
ATOM     26  O   UNL     1      -5.602  -2.596 125.125  0.00  0.00    +0.000 OA
ATOM     27  H   UNL     1      -4.983  -1.897 124.860  0.00  0.00    +0.000 HD
ENDBRANCH  20  26
ENDBRANCH  19  23
ENDBRANCH  18  19
ENDBRANCH  17  18
ENDBRANCH   1  17
TORSDOF 6
ENDMDL
MODEL 6
REMARK VINA RESULT:      -7.1      6.367      9.232
REMARK  Name = Periciazine
REMARK  6 active torsions:
REMARK  status: ('A' for Active; 'I' for Inactive)
REMARK    1  A    between atoms: O_1  and  C_2
REMARK    2  A    between atoms: N_5  and  C_6
REMARK    3  A    between atoms: C_6  and  C_7
REMARK    4  A    between atoms: C_7  and  C_8
REMARK    5  A    between atoms: C_8  and  N_9
REMARK    6  A    between atoms: C_20  and  C_23
REMARK                            x       y       z     vdW  Elec       q    Type
REMARK                         _______ _______ _______ _____ _____    ______ ____
ROOT
ATOM      1  N   UNL     1      -5.482   1.772 125.853  0.00  0.00    +0.000 N 
ATOM      2  C   UNL     1      -4.715   2.837 126.415  0.00  0.00    +0.000 A 
ATOM      3  C   UNL     1      -3.511   2.615 127.117  0.00  0.00    +0.000 A 
ATOM      4  C   UNL     1      -2.832   3.622 127.798  0.00  0.00    +0.000 A 
ATOM      5  C   UNL     1      -3.259   4.929 127.683  0.00  0.00    +0.000 A 
ATOM      6  C   UNL     1      -4.385   5.207 126.927  0.00  0.00    +0.000 A 
ATOM      7  C   UNL     1      -5.117   4.179 126.317  0.00  0.00    +0.000 A 
ATOM      8  S   UNL     1      -6.526   4.739 125.423  0.00  0.00    +0.000 S 
ATOM      9  C   UNL     1      -7.192   3.219 124.826  0.00  0.00    +0.000 A 
ATOM     10  C   UNL     1      -6.660   1.939 125.085  0.00  0.00    +0.000 A 
ATOM     11  C   UNL     1      -7.362   0.856 124.519  0.00  0.00    +0.000 A 
ATOM     12  C   UNL     1      -8.511   1.032 123.740  0.00  0.00    +0.000 A 
ATOM     13  C   UNL     1      -9.000   2.306 123.502  0.00  0.00    +0.000 A 
ATOM     14  C   UNL     1      -8.341   3.394 124.045  0.00  0.00    +0.000 A 
ENDROOT
BRANCH  12  15
ATOM     15  C   UNL     1      -9.168  -0.112 123.194  0.00  0.00    +0.000 C 
ATOM     16  N   UNL     1      -9.705  -1.055 122.769  0.00  0.00    +0.000 NA
ENDBRANCH  12  15
BRANCH   1  17
ATOM     17  C   UNL     1      -5.001   0.401 126.119  0.00  0.00    +0.000 C 
BRANCH  17  18
ATOM     18  C   UNL     1      -5.875  -0.302 127.144  0.00  0.00    +0.000 C 
BRANCH  18  19
ATOM     19  C   UNL     1      -5.434  -1.743 127.304  0.00  0.00    +0.000 C 
BRANCH  19  23
ATOM     20  C   UNL     1      -9.185  -3.351 126.017  0.00  0.00    +0.000 C 
ATOM     21  C   UNL     1      -8.786  -3.384 127.490  0.00  0.00    +0.000 C 
ATOM     22  C   UNL     1      -7.680  -2.382 127.799  0.00  0.00    +0.000 C 
ATOM     23  N   UNL     1      -6.529  -2.637 126.927  0.00  0.00    +0.000 NA
ATOM     24  C   UNL     1      -6.919  -2.462 125.512  0.00  0.00    +0.000 C 
ATOM     25  C   UNL     1      -7.974  -3.476 125.115  0.00  0.00    +0.000 C 
BRANCH  20  26
ATOM     26  O   UNL     1      -9.842  -2.118 125.717  0.00  0.00    +0.000 OA
ATOM     27  H   UNL     1     -10.799  -2.285 125.739  0.00  0.00    +0.000 HD
ENDBRANCH  20  26
ENDBRANCH  19  23
ENDBRANCH  18  19
ENDBRANCH  17  18
ENDBRANCH   1  17
TORSDOF 6
ENDMDL
MODEL 7
REMARK VINA RESULT:      -7.1      3.032      4.110
REMARK  Name = Periciazine
REMARK  6 active torsions:
REMARK  status: ('A' for Active; 'I' for Inactive)
REMARK    1  A    between atoms: O_1  and  C_2
REMARK    2  A    between atoms: N_5  and  C_6
REMARK    3  A    between atoms: C_6  and  C_7
REMARK    4  A    between atoms: C_7  and  C_8
REMARK    5  A    between atoms: C_8  and  N_9
REMARK    6  A    between atoms: C_20  and  C_23
REMARK                            x       y       z     vdW  Elec       q    Type
REMARK                         _______ _______ _______ _____ _____    ______ ____
ROOT
ATOM      1  N   UNL     1      -8.698   3.243 131.256  0.00  0.00    +0.000 N 
ATOM      2  C   UNL     1      -8.118   3.455 132.544  0.00  0.00    +0.000 A 
ATOM      3  C   UNL     1      -8.744   4.236 133.538  0.00  0.00    +0.000 A 
ATOM      4  C   UNL     1      -8.127   4.574 134.739  0.00  0.00    +0.000 A 
ATOM      5  C   UNL     1      -6.903   4.022 135.054  0.00  0.00    +0.000 A 
ATOM      6  C   UNL     1      -6.290   3.175 134.147  0.00  0.00    +0.000 A 
ATOM      7  C   UNL     1      -6.874   2.908 132.901  0.00  0.00    +0.000 A 
ATOM      8  S   UNL     1      -5.927   1.828 131.885  0.00  0.00    +0.000 S 
ATOM      9  C   UNL     1      -6.929   1.736 130.436  0.00  0.00    +0.000 A 
ATOM     10  C   UNL     1      -8.148   2.419 130.244  0.00  0.00    +0.000 A 
ATOM     11  C   UNL     1      -8.778   2.213 129.001  0.00  0.00    +0.000 A 
ATOM     12  C   UNL     1      -8.241   1.376 128.017  0.00  0.00    +0.000 A 
ATOM     13  C   UNL     1      -7.044   0.717 128.245  0.00  0.00    +0.000 A 
ATOM     14  C   UNL     1      -6.392   0.899 129.452  0.00  0.00    +0.000 A 
ENDROOT
BRANCH  12  15
ATOM     15  C   UNL     1      -8.938   1.211 126.783  0.00  0.00    +0.000 C 
ATOM     16  N   UNL     1      -9.520   1.060 125.784  0.00  0.00    +0.000 NA
ENDBRANCH  12  15
BRANCH   1  17
ATOM     17  C   UNL     1      -9.958   3.961 130.974  0.00  0.00    +0.000 C 
BRANCH  17  18
ATOM     18  C   UNL     1      -9.691   5.337 130.390  0.00  0.00    +0.000 C 
BRANCH  18  19
ATOM     19  C   UNL     1     -10.660   6.348 130.971  0.00  0.00    +0.000 C 
BRANCH  19  23
ATOM     20  C   UNL     1     -12.128   7.628 127.161  0.00  0.00    +0.000 C 
ATOM     21  C   UNL     1     -10.966   8.354 127.833  0.00  0.00    +0.000 C 
ATOM     22  C   UNL     1     -10.310   7.496 128.908  0.00  0.00    +0.000 C 
ATOM     23  N   UNL     1     -11.318   7.078 129.887  0.00  0.00    +0.000 NA
ATOM     24  C   UNL     1     -12.356   6.261 129.225  0.00  0.00    +0.000 C 
ATOM     25  C   UNL     1     -13.100   7.075 128.184  0.00  0.00    +0.000 C 
BRANCH  20  26
ATOM     26  O   UNL     1     -11.636   6.539 126.377  0.00  0.00    +0.000 OA
ATOM     27  H   UNL     1     -11.827   6.741 125.446  0.00  0.00    +0.000 HD
ENDBRANCH  20  26
ENDBRANCH  19  23
ENDBRANCH  18  19
ENDBRANCH  17  18
ENDBRANCH   1  17
TORSDOF 6
ENDMDL
MODEL 8
REMARK VINA RESULT:      -7.1      6.575      9.329
REMARK  Name = Periciazine
REMARK  6 active torsions:
REMARK  status: ('A' for Active; 'I' for Inactive)
REMARK    1  A    between atoms: O_1  and  C_2
REMARK    2  A    between atoms: N_5  and  C_6
REMARK    3  A    between atoms: C_6  and  C_7
REMARK    4  A    between atoms: C_7  and  C_8
REMARK    5  A    between atoms: C_8  and  N_9
REMARK    6  A    between atoms: C_20  and  C_23
REMARK                            x       y       z     vdW  Elec       q    Type
REMARK                         _______ _______ _______ _____ _____    ______ ____
ROOT
ATOM      1  N   UNL     1      -6.495  -1.732 126.277  0.00  0.00    +0.000 N 
ATOM      2  C   UNL     1      -7.145  -1.952 125.024  0.00  0.00    +0.000 A 
ATOM      3  C   UNL     1      -6.605  -1.499 123.802  0.00  0.00    +0.000 A 
ATOM      4  C   UNL     1      -7.294  -1.572 122.594  0.00  0.00    +0.000 A 
ATOM      5  C   UNL     1      -8.501  -2.238 122.539  0.00  0.00    +0.000 A 
ATOM      6  C   UNL     1      -9.027  -2.781 123.698  0.00  0.00    +0.000 A 
ATOM      7  C   UNL     1      -8.373  -2.626 124.929  0.00  0.00    +0.000 A 
ATOM      8  S   UNL     1      -9.216  -3.368 126.283  0.00  0.00    +0.000 S 
ATOM      9  C   UNL     1      -8.144  -2.970 127.627  0.00  0.00    +0.000 A 
ATOM     10  C   UNL     1      -6.955  -2.219 127.525  0.00  0.00    +0.000 A 
ATOM     11  C   UNL     1      -6.258  -2.006 128.731  0.00  0.00    +0.000 A 
ATOM     12  C   UNL     1      -6.706  -2.512 129.956  0.00  0.00    +0.000 A 
ATOM     13  C   UNL     1      -7.876  -3.252 130.015  0.00  0.00    +0.000 A 
ATOM     14  C   UNL     1      -8.591  -3.477 128.852  0.00  0.00    +0.000 A 
ENDROOT
BRANCH  12  15
ATOM     15  C   UNL     1      -5.945  -2.261 131.137  0.00  0.00    +0.000 C 
ATOM     16  N   UNL     1      -5.314  -2.039 132.092  0.00  0.00    +0.000 NA
ENDBRANCH  12  15
BRANCH   1  17
ATOM     17  C   UNL     1      -5.263  -0.919 126.247  0.00  0.00    +0.000 C 
BRANCH  17  18
ATOM     18  C   UNL     1      -5.581   0.565 126.194  0.00  0.00    +0.000 C 
BRANCH  18  19
ATOM     19  C   UNL     1      -5.546   1.157 127.589  0.00  0.00    +0.000 C 
BRANCH  19  23
ATOM     20  C   UNL     1      -2.624   4.265 127.252  0.00  0.00    +0.000 C 
ATOM     21  C   UNL     1      -3.144   3.828 128.618  0.00  0.00    +0.000 C 
ATOM     22  C   UNL     1      -3.791   2.449 128.563  0.00  0.00    +0.000 C 
ATOM     23  N   UNL     1      -4.860   2.449 127.558  0.00  0.00    +0.000 NA
ATOM     24  C   UNL     1      -4.298   2.741 126.223  0.00  0.00    +0.000 C 
ATOM     25  C   UNL     1      -3.693   4.131 126.186  0.00  0.00    +0.000 C 
BRANCH  20  26
ATOM     26  O   UNL     1      -1.510   3.456 126.871  0.00  0.00    +0.000 OA
ATOM     27  H   UNL     1      -0.778   3.664 127.476  0.00  0.00    +0.000 HD
ENDBRANCH  20  26
ENDBRANCH  19  23
ENDBRANCH  18  19
ENDBRANCH  17  18
ENDBRANCH   1  17
TORSDOF 6
ENDMDL
MODEL 9
REMARK VINA RESULT:      -7.0      5.285      6.421
REMARK  Name = Periciazine
REMARK  6 active torsions:
REMARK  status: ('A' for Active; 'I' for Inactive)
REMARK    1  A    between atoms: O_1  and  C_2
REMARK    2  A    between atoms: N_5  and  C_6
REMARK    3  A    between atoms: C_6  and  C_7
REMARK    4  A    between atoms: C_7  and  C_8
REMARK    5  A    between atoms: C_8  and  N_9
REMARK    6  A    between atoms: C_20  and  C_23
REMARK                            x       y       z     vdW  Elec       q    Type
REMARK                         _______ _______ _______ _____ _____    ______ ____
ROOT
ATOM      1  N   UNL     1      -7.302  -0.014 127.167  0.00  0.00    +0.000 N 
ATOM      2  C   UNL     1      -7.815  -1.309 127.487  0.00  0.00    +0.000 A 
ATOM      3  C   UNL     1      -7.948  -1.762 128.816  0.00  0.00    +0.000 A 
ATOM      4  C   UNL     1      -8.303  -3.069 129.140  0.00  0.00    +0.000 A 
ATOM      5  C   UNL     1      -8.680  -3.940 128.139  0.00  0.00    +0.000 A 
ATOM      6  C   UNL     1      -8.653  -3.510 126.823  0.00  0.00    +0.000 A 
ATOM      7  C   UNL     1      -8.208  -2.221 126.495  0.00  0.00    +0.000 A 
ATOM      8  S   UNL     1      -8.229  -1.878 124.769  0.00  0.00    +0.000 S 
ATOM      9  C   UNL     1      -7.608  -0.227 124.731  0.00  0.00    +0.000 A 
ATOM     10  C   UNL     1      -7.206   0.518 125.857  0.00  0.00    +0.000 A 
ATOM     11  C   UNL     1      -6.726   1.817 125.596  0.00  0.00    +0.000 A 
ATOM     12  C   UNL     1      -6.658   2.346 124.302  0.00  0.00    +0.000 A 
ATOM     13  C   UNL     1      -7.070   1.584 123.220  0.00  0.00    +0.000 A 
ATOM     14  C   UNL     1      -7.542   0.302 123.436  0.00  0.00    +0.000 A 
ENDROOT
BRANCH  12  15
ATOM     15  C   UNL     1      -6.166   3.671 124.113  0.00  0.00    +0.000 C 
ATOM     16  N   UNL     1      -5.784   4.762 123.960  0.00  0.00    +0.000 NA
ENDBRANCH  12  15
BRANCH   1  17
ATOM     17  C   UNL     1      -6.826   0.805 128.299  0.00  0.00    +0.000 C 
BRANCH  17  18
ATOM     18  C   UNL     1      -7.978   1.505 128.998  0.00  0.00    +0.000 C 
BRANCH  18  19
ATOM     19  C   UNL     1      -7.696   2.991 129.107  0.00  0.00    +0.000 C 
BRANCH  19  23
ATOM     20  C   UNL     1     -10.993   5.213 130.690  0.00  0.00    +0.000 C 
ATOM     21  C   UNL     1     -11.129   3.724 130.389  0.00  0.00    +0.000 C 
ATOM     22  C   UNL     1      -9.770   3.041 130.287  0.00  0.00    +0.000 C 
ATOM     23  N   UNL     1      -8.954   3.719 129.275  0.00  0.00    +0.000 NA
ATOM     24  C   UNL     1      -8.728   5.125 129.669  0.00  0.00    +0.000 C 
ATOM     25  C   UNL     1     -10.038   5.886 129.724  0.00  0.00    +0.000 C 
BRANCH  20  26
ATOM     26  O   UNL     1     -10.494   5.400 132.016  0.00  0.00    +0.000 OA
ATOM     27  H   UNL     1      -9.738   4.801 132.130  0.00  0.00    +0.000 HD
ENDBRANCH  20  26
ENDBRANCH  19  23
ENDBRANCH  18  19
ENDBRANCH  17  18
ENDBRANCH   1  17
TORSDOF 6
ENDMDL
