MODEL 1
REMARK VINA RESULT:      -8.0      0.000      0.000
REMARK  Name = Permethrin
REMARK  9 active torsions:
REMARK  status: ('A' for Active; 'I' for Inactive)
REMARK    1  A    between atoms: C_1  and  C_2
REMARK    2  A    between atoms: C_2  and  C_3
REMARK    3  A    between atoms: C_4  and  C_5
REMARK    4  A    between atoms: C_9  and  C_10
REMARK    5  A    between atoms: C_10  and  O_12
REMARK    6  A    between atoms: O_12  and  C_13
REMARK    7  A    between atoms: C_13  and  C_14
REMARK    8  A    between atoms: C_16  and  O_17
REMARK    9  A    between atoms: O_17  and  C_18
REMARK                            x       y       z     vdW  Elec       q    Type
REMARK                         _______ _______ _______ _____ _____    ______ ____
ROOT
ATOM      1  C   UNL     1      -8.859   2.610 122.211  0.00  0.00    +0.000 C 
ENDROOT
BRANCH   1   2
ATOM      2  C   UNL     1      -7.535   3.200 122.667  0.00  0.00    +0.000 A 
ATOM      3  C   UNL     1      -7.257   3.499 124.012  0.00  0.00    +0.000 A 
ATOM      4  C   UNL     1      -6.106   4.226 124.354  0.00  0.00    +0.000 A 
ATOM      5  C   UNL     1      -5.159   4.516 123.375  0.00  0.00    +0.000 A 
ATOM      6  C   UNL     1      -5.412   4.224 122.044  0.00  0.00    +0.000 A 
ATOM      7  C   UNL     1      -6.593   3.574 121.690  0.00  0.00    +0.000 A 
BRANCH   4   8
ATOM      8  O   UNL     1      -5.978   4.625 125.667  0.00  0.00    +0.000 OA
BRANCH   8   9
ATOM      9  C   UNL     1      -4.779   4.421 126.325  0.00  0.00    +0.000 A 
ATOM     10  C   UNL     1      -4.197   3.169 126.145  0.00  0.00    +0.000 A 
ATOM     11  C   UNL     1      -3.036   2.830 126.842  0.00  0.00    +0.000 A 
ATOM     12  C   UNL     1      -2.401   3.775 127.648  0.00  0.00    +0.000 A 
ATOM     13  C   UNL     1      -2.963   5.039 127.812  0.00  0.00    +0.000 A 
ATOM     14  C   UNL     1      -4.172   5.349 127.184  0.00  0.00    +0.000 A 
ENDBRANCH   8   9
ENDBRANCH   4   8
ENDBRANCH   1   2
BRANCH   1  15
ATOM     15  O   UNL     1      -9.670   2.176 123.317  0.00  0.00    +0.000 OA
BRANCH  15  16
ATOM     16  C   UNL     1      -9.796   0.827 123.434  0.00  0.00    +0.000 C 
ATOM     17  O   UNL     1     -10.347   0.092 122.619  0.00  0.00    +0.000 OA
BRANCH  16  22
ATOM     18  C   UNL     1      -6.769   0.136 125.765  0.00  0.00    +0.000 C 
ATOM     19  C   UNL     1      -7.699  -0.221 124.623  0.00  0.00    +0.000 C 
ATOM     20  C   UNL     1      -7.007  -0.247 123.279  0.00  0.00    +0.000 C 
ATOM     21  C   UNL     1      -8.861  -1.181 124.828  0.00  0.00    +0.000 C 
ATOM     22  C   UNL     1      -9.139   0.303 124.682  0.00  0.00    +0.000 C 
BRANCH  21  23
ATOM     23  C   UNL     1      -8.978  -1.929 126.099  0.00  0.00    +0.000 C 
ATOM     24  C   UNL     1      -8.710  -3.238 126.258  0.00  0.00    +0.000 C 
ATOM     25 CL   UNL     1      -8.163  -4.227 124.947  0.00  0.00    +0.000 Cl
ATOM     26 CL   UNL     1      -8.917  -4.020 127.785  0.00  0.00    +0.000 Cl
ENDBRANCH  21  23
ENDBRANCH  16  22
ENDBRANCH  15  16
ENDBRANCH   1  15
TORSDOF 7
ENDMDL
MODEL 2
REMARK VINA RESULT:      -8.0      1.458      2.254
REMARK  Name = Permethrin
REMARK  9 active torsions:
REMARK  status: ('A' for Active; 'I' for Inactive)
REMARK    1  A    between atoms: C_1  and  C_2
REMARK    2  A    between atoms: C_2  and  C_3
REMARK    3  A    between atoms: C_4  and  C_5
REMARK    4  A    between atoms: C_9  and  C_10
REMARK    5  A    between atoms: C_10  and  O_12
REMARK    6  A    between atoms: O_12  and  C_13
REMARK    7  A    between atoms: C_13  and  C_14
REMARK    8  A    between atoms: C_16  and  O_17
REMARK    9  A    between atoms: O_17  and  C_18
REMARK                            x       y       z     vdW  Elec       q    Type
REMARK                         _______ _______ _______ _____ _____    ______ ____
ROOT
ATOM      1  C   UNL     1      -8.768   2.237 122.521  0.00  0.00    +0.000 C 
ENDROOT
BRANCH   1   2
ATOM      2  C   UNL     1      -7.483   2.968 122.873  0.00  0.00    +0.000 A 
ATOM      3  C   UNL     1      -7.153   3.340 124.189  0.00  0.00    +0.000 A 
ATOM      4  C   UNL     1      -6.061   4.186 124.435  0.00  0.00    +0.000 A 
ATOM      5  C   UNL     1      -5.210   4.532 123.388  0.00  0.00    +0.000 A 
ATOM      6  C   UNL     1      -5.514   4.170 122.085  0.00  0.00    +0.000 A 
ATOM      7  C   UNL     1      -6.645   3.397 121.827  0.00  0.00    +0.000 A 
BRANCH   4   8
ATOM      8  O   UNL     1      -5.893   4.642 125.725  0.00  0.00    +0.000 OA
BRANCH   8   9
ATOM      9  C   UNL     1      -4.677   4.457 126.357  0.00  0.00    +0.000 A 
ATOM     10  C   UNL     1      -4.077   3.216 126.161  0.00  0.00    +0.000 A 
ATOM     11  C   UNL     1      -2.896   2.896 126.832  0.00  0.00    +0.000 A 
ATOM     12  C   UNL     1      -2.261   3.850 127.628  0.00  0.00    +0.000 A 
ATOM     13  C   UNL     1      -2.842   5.103 127.808  0.00  0.00    +0.000 A 
ATOM     14  C   UNL     1      -4.069   5.393 127.206  0.00  0.00    +0.000 A 
ENDBRANCH   8   9
ENDBRANCH   4   8
ENDBRANCH   1   2
BRANCH   1  15
ATOM     15  O   UNL     1      -9.080   1.199 123.468  0.00  0.00    +0.000 OA
BRANCH  15  16
ATOM     16  C   UNL     1      -9.796   0.163 122.959  0.00  0.00    +0.000 C 
ATOM     17  O   UNL     1     -10.939   0.239 122.513  0.00  0.00    +0.000 OA
BRANCH  16  22
ATOM     18  C   UNL     1      -8.993  -3.441 124.158  0.00  0.00    +0.000 C 
ATOM     19  C   UNL     1      -8.879  -1.933 124.253  0.00  0.00    +0.000 C 
ATOM     20  C   UNL     1      -9.497  -1.368 125.512  0.00  0.00    +0.000 C 
ATOM     21  C   UNL     1      -7.678  -1.199 123.675  0.00  0.00    +0.000 C 
ATOM     22  C   UNL     1      -9.013  -1.122 122.959  0.00  0.00    +0.000 C 
BRANCH  21  23
ATOM     23  C   UNL     1      -6.515  -1.969 123.186  0.00  0.00    +0.000 C 
ATOM     24  C   UNL     1      -5.548  -2.494 123.962  0.00  0.00    +0.000 C 
ATOM     25 CL   UNL     1      -5.569  -2.334 125.685  0.00  0.00    +0.000 Cl
ATOM     26 CL   UNL     1      -4.210  -3.348 123.280  0.00  0.00    +0.000 Cl
ENDBRANCH  21  23
ENDBRANCH  16  22
ENDBRANCH  15  16
ENDBRANCH   1  15
TORSDOF 7
ENDMDL
MODEL 3
REMARK VINA RESULT:      -7.8      3.853      7.205
REMARK  Name = Permethrin
REMARK  9 active torsions:
REMARK  status: ('A' for Active; 'I' for Inactive)
REMARK    1  A    between atoms: C_1  and  C_2
REMARK    2  A    between atoms: C_2  and  C_3
REMARK    3  A    between atoms: C_4  and  C_5
REMARK    4  A    between atoms: C_9  and  C_10
REMARK    5  A    between atoms: C_10  and  O_12
REMARK    6  A    between atoms: O_12  and  C_13
REMARK    7  A    between atoms: C_13  and  C_14
REMARK    8  A    between atoms: C_16  and  O_17
REMARK    9  A    between atoms: O_17  and  C_18
REMARK                            x       y       z     vdW  Elec       q    Type
REMARK                         _______ _______ _______ _____ _____    ______ ____
ROOT
ATOM      1  C   UNL     1      -6.426   1.470 128.477  0.00  0.00    +0.000 C 
ENDROOT
BRANCH   1   2
ATOM      2  C   UNL     1      -6.661  -0.030 128.411  0.00  0.00    +0.000 A 
ATOM      3  C   UNL     1      -6.211  -0.825 127.342  0.00  0.00    +0.000 A 
ATOM      4  C   UNL     1      -6.627  -2.161 127.228  0.00  0.00    +0.000 A 
ATOM      5  C   UNL     1      -7.359  -2.744 128.260  0.00  0.00    +0.000 A 
ATOM      6  C   UNL     1      -7.806  -1.978 129.325  0.00  0.00    +0.000 A 
ATOM      7  C   UNL     1      -7.463  -0.629 129.400  0.00  0.00    +0.000 A 
BRANCH   4   8
ATOM      8  O   UNL     1      -6.284  -2.833 126.075  0.00  0.00    +0.000 OA
BRANCH   8   9
ATOM      9  C   UNL     1      -7.108  -2.746 124.968  0.00  0.00    +0.000 A 
ATOM     10  C   UNL     1      -6.626  -1.971 123.916  0.00  0.00    +0.000 A 
ATOM     11  C   UNL     1      -7.423  -1.742 122.793  0.00  0.00    +0.000 A 
ATOM     12  C   UNL     1      -8.666  -2.364 122.676  0.00  0.00    +0.000 A 
ATOM     13  C   UNL     1      -9.144  -3.162 123.713  0.00  0.00    +0.000 A 
ATOM     14  C   UNL     1      -8.384  -3.321 124.876  0.00  0.00    +0.000 A 
ENDBRANCH   8   9
ENDBRANCH   4   8
ENDBRANCH   1   2
BRANCH   1  15
ATOM     15  O   UNL     1      -6.648   2.111 127.208  0.00  0.00    +0.000 OA
BRANCH  15  16
ATOM     16  C   UNL     1      -7.933   2.490 126.980  0.00  0.00    +0.000 C 
ATOM     17  O   UNL     1      -8.739   2.825 127.845  0.00  0.00    +0.000 OA
BRANCH  16  22
ATOM     18  C   UNL     1     -10.089   1.561 123.888  0.00  0.00    +0.000 C 
ATOM     19  C   UNL     1      -8.989   1.289 124.894  0.00  0.00    +0.000 C 
ATOM     20  C   UNL     1      -9.276   0.100 125.782  0.00  0.00    +0.000 C 
ATOM     21  C   UNL     1      -7.532   1.575 124.561  0.00  0.00    +0.000 C 
ATOM     22  C   UNL     1      -8.272   2.494 125.515  0.00  0.00    +0.000 C 
BRANCH  21  23
ATOM     23  C   UNL     1      -7.156   1.940 123.178  0.00  0.00    +0.000 C 
ATOM     24  C   UNL     1      -6.358   2.969 122.835  0.00  0.00    +0.000 C 
ATOM     25 CL   UNL     1      -5.644   4.009 124.020  0.00  0.00    +0.000 Cl
ATOM     26 CL   UNL     1      -6.012   3.327 121.181  0.00  0.00    +0.000 Cl
ENDBRANCH  21  23
ENDBRANCH  16  22
ENDBRANCH  15  16
ENDBRANCH   1  15
TORSDOF 7
ENDMDL
MODEL 4
REMARK VINA RESULT:      -7.8      3.267      4.722
REMARK  Name = Permethrin
REMARK  9 active torsions:
REMARK  status: ('A' for Active; 'I' for Inactive)
REMARK    1  A    between atoms: C_1  and  C_2
REMARK    2  A    between atoms: C_2  and  C_3
REMARK    3  A    between atoms: C_4  and  C_5
REMARK    4  A    between atoms: C_9  and  C_10
REMARK    5  A    between atoms: C_10  and  O_12
REMARK    6  A    between atoms: O_12  and  C_13
REMARK    7  A    between atoms: C_13  and  C_14
REMARK    8  A    between atoms: C_16  and  O_17
REMARK    9  A    between atoms: O_17  and  C_18
REMARK                            x       y       z     vdW  Elec       q    Type
REMARK                         _______ _______ _______ _____ _____    ______ ____
ROOT
ATOM      1  C   UNL     1      -8.809  -1.475 123.133  0.00  0.00    +0.000 C 
ENDROOT
BRANCH   1   2
ATOM      2  C   UNL     1      -8.728   0.022 123.387  0.00  0.00    +0.000 A 
ATOM      3  C   UNL     1      -7.605   0.793 123.041  0.00  0.00    +0.000 A 
ATOM      4  C   UNL     1      -7.496   2.123 123.478  0.00  0.00    +0.000 A 
ATOM      5  C   UNL     1      -8.574   2.726 124.121  0.00  0.00    +0.000 A 
ATOM      6  C   UNL     1      -9.693   1.983 124.464  0.00  0.00    +0.000 A 
ATOM      7  C   UNL     1      -9.769   0.639 124.104  0.00  0.00    +0.000 A 
BRANCH   4   8
ATOM      8  O   UNL     1      -6.301   2.768 123.244  0.00  0.00    +0.000 OA
BRANCH   8   9
ATOM      9  C   UNL     1      -6.127   3.471 122.066  0.00  0.00    +0.000 A 
ATOM     10  C   UNL     1      -4.959   4.225 121.980  0.00  0.00    +0.000 A 
ATOM     11  C   UNL     1      -4.737   5.045 120.873  0.00  0.00    +0.000 A 
ATOM     12  C   UNL     1      -5.634   5.042 119.805  0.00  0.00    +0.000 A 
ATOM     13  C   UNL     1      -6.791   4.270 119.873  0.00  0.00    +0.000 A 
ATOM     14  C   UNL     1      -7.058   3.516 121.019  0.00  0.00    +0.000 A 
ENDBRANCH   8   9
ENDBRANCH   4   8
ENDBRANCH   1   2
BRANCH   1  15
ATOM     15  O   UNL     1      -9.568  -2.158 124.147  0.00  0.00    +0.000 OA
BRANCH  15  16
ATOM     16  C   UNL     1      -8.824  -2.901 125.008  0.00  0.00    +0.000 C 
ATOM     17  O   UNL     1      -8.255  -3.954 124.729  0.00  0.00    +0.000 OA
BRANCH  16  22
ATOM     18  C   UNL     1      -7.690  -0.172 127.526  0.00  0.00    +0.000 C 
ATOM     19  C   UNL     1      -7.488  -1.459 126.753  0.00  0.00    +0.000 C 
ATOM     20  C   UNL     1      -6.357  -1.381 125.752  0.00  0.00    +0.000 C 
ATOM     21  C   UNL     1      -7.757  -2.812 127.396  0.00  0.00    +0.000 C 
ATOM     22  C   UNL     1      -8.733  -2.269 126.370  0.00  0.00    +0.000 C 
BRANCH  21  23
ATOM     23  C   UNL     1      -8.032  -2.891 128.847  0.00  0.00    +0.000 C 
ATOM     24  C   UNL     1      -7.097  -2.926 129.815  0.00  0.00    +0.000 C 
ATOM     25 CL   UNL     1      -5.405  -2.863 129.457  0.00  0.00    +0.000 Cl
ATOM     26 CL   UNL     1      -7.532  -3.055 131.482  0.00  0.00    +0.000 Cl
ENDBRANCH  21  23
ENDBRANCH  16  22
ENDBRANCH  15  16
ENDBRANCH   1  15
TORSDOF 7
ENDMDL
MODEL 5
REMARK VINA RESULT:      -7.7      3.245      5.864
REMARK  Name = Permethrin
REMARK  9 active torsions:
REMARK  status: ('A' for Active; 'I' for Inactive)
REMARK    1  A    between atoms: C_1  and  C_2
REMARK    2  A    between atoms: C_2  and  C_3
REMARK    3  A    between atoms: C_4  and  C_5
REMARK    4  A    between atoms: C_9  and  C_10
REMARK    5  A    between atoms: C_10  and  O_12
REMARK    6  A    between atoms: O_12  and  C_13
REMARK    7  A    between atoms: C_13  and  C_14
REMARK    8  A    between atoms: C_16  and  O_17
REMARK    9  A    between atoms: O_17  and  C_18
REMARK                            x       y       z     vdW  Elec       q    Type
REMARK                         _______ _______ _______ _____ _____    ______ ____
ROOT
ATOM      1  C   UNL     1      -9.476  -3.243 126.118  0.00  0.00    +0.000 C 
ENDROOT
BRANCH   1   2
ATOM      2  C   UNL     1      -8.580  -2.850 127.281  0.00  0.00    +0.000 A 
ATOM      3  C   UNL     1      -7.593  -1.854 127.179  0.00  0.00    +0.000 A 
ATOM      4  C   UNL     1      -6.661  -1.670 128.213  0.00  0.00    +0.000 A 
ATOM      5  C   UNL     1      -6.813  -2.369 129.408  0.00  0.00    +0.000 A 
ATOM      6  C   UNL     1      -7.784  -3.351 129.530  0.00  0.00    +0.000 A 
ATOM      7  C   UNL     1      -8.660  -3.593 128.473  0.00  0.00    +0.000 A 
BRANCH   4   8
ATOM      8  O   UNL     1      -5.624  -0.793 127.980  0.00  0.00    +0.000 OA
BRANCH   8   9
ATOM      9  C   UNL     1      -5.901   0.475 127.501  0.00  0.00    +0.000 A 
ATOM     10  C   UNL     1      -5.078   0.924 126.472  0.00  0.00    +0.000 A 
ATOM     11  C   UNL     1      -5.214   2.225 125.985  0.00  0.00    +0.000 A 
ATOM     12  C   UNL     1      -6.235   3.049 126.459  0.00  0.00    +0.000 A 
ATOM     13  C   UNL     1      -7.079   2.596 127.470  0.00  0.00    +0.000 A 
ATOM     14  C   UNL     1      -6.888   1.326 128.019  0.00  0.00    +0.000 A 
ENDBRANCH   8   9
ENDBRANCH   4   8
ENDBRANCH   1   2
BRANCH   1  15
ATOM     15  O   UNL     1      -9.516  -2.231 125.096  0.00  0.00    +0.000 OA
BRANCH  15  16
ATOM     16  C   UNL     1      -9.286  -2.685 123.836  0.00  0.00    +0.000 C 
ATOM     17  O   UNL     1      -9.826  -3.664 123.325  0.00  0.00    +0.000 OA
BRANCH  16  22
ATOM     18  C   UNL     1      -5.941  -1.997 121.990  0.00  0.00    +0.000 C 
ATOM     19  C   UNL     1      -6.798  -2.088 123.236  0.00  0.00    +0.000 C 
ATOM     20  C   UNL     1      -6.356  -3.180 124.183  0.00  0.00    +0.000 C 
ATOM     21  C   UNL     1      -7.426  -0.845 123.850  0.00  0.00    +0.000 C 
ATOM     22  C   UNL     1      -8.302  -1.824 123.093  0.00  0.00    +0.000 C 
BRANCH  21  23
ATOM     23  C   UNL     1      -7.045   0.493 123.347  0.00  0.00    +0.000 C 
ATOM     24  C   UNL     1      -7.793   1.607 123.457  0.00  0.00    +0.000 C 
ATOM     25 CL   UNL     1      -9.334   1.601 124.244  0.00  0.00    +0.000 Cl
ATOM     26 CL   UNL     1      -7.264   3.114 122.798  0.00  0.00    +0.000 Cl
ENDBRANCH  21  23
ENDBRANCH  16  22
ENDBRANCH  15  16
ENDBRANCH   1  15
TORSDOF 7
ENDMDL
MODEL 6
REMARK VINA RESULT:      -7.5      4.913      7.927
REMARK  Name = Permethrin
REMARK  9 active torsions:
REMARK  status: ('A' for Active; 'I' for Inactive)
REMARK    1  A    between atoms: C_1  and  C_2
REMARK    2  A    between atoms: C_2  and  C_3
REMARK    3  A    between atoms: C_4  and  C_5
REMARK    4  A    between atoms: C_9  and  C_10
REMARK    5  A    between atoms: C_10  and  O_12
REMARK    6  A    between atoms: O_12  and  C_13
REMARK    7  A    between atoms: C_13  and  C_14
REMARK    8  A    between atoms: C_16  and  O_17
REMARK    9  A    between atoms: O_17  and  C_18
REMARK                            x       y       z     vdW  Elec       q    Type
REMARK                         _______ _______ _______ _____ _____    ______ ____
ROOT
ATOM      1  C   UNL     1      -7.539  -0.284 129.359  0.00  0.00    +0.000 C 
ENDROOT
BRANCH   1   2
ATOM      2  C   UNL     1      -7.937  -1.535 128.594  0.00  0.00    +0.000 A 
ATOM      3  C   UNL     1      -8.026  -1.575 127.192  0.00  0.00    +0.000 A 
ATOM      4  C   UNL     1      -8.592  -2.687 126.548  0.00  0.00    +0.000 A 
ATOM      5  C   UNL     1      -8.921  -3.818 127.292  0.00  0.00    +0.000 A 
ATOM      6  C   UNL     1      -8.834  -3.800 128.675  0.00  0.00    +0.000 A 
ATOM      7  C   UNL     1      -8.350  -2.666 129.324  0.00  0.00    +0.000 A 
BRANCH   4   8
ATOM      8  O   UNL     1      -8.798  -2.593 125.189  0.00  0.00    +0.000 OA
BRANCH   8   9
ATOM      9  C   UNL     1      -7.709  -2.559 124.338  0.00  0.00    +0.000 A 
ATOM     10  C   UNL     1      -6.738  -3.532 124.561  0.00  0.00    +0.000 A 
ATOM     11  C   UNL     1      -5.556  -3.524 123.818  0.00  0.00    +0.000 A 
ATOM     12  C   UNL     1      -5.381  -2.602 122.786  0.00  0.00    +0.000 A 
ATOM     13  C   UNL     1      -6.360  -1.642 122.540  0.00  0.00    +0.000 A 
ATOM     14  C   UNL     1      -7.505  -1.594 123.340  0.00  0.00    +0.000 A 
ENDBRANCH   8   9
ENDBRANCH   4   8
ENDBRANCH   1   2
BRANCH   1  15
ATOM     15  O   UNL     1      -6.533  -0.551 130.353  0.00  0.00    +0.000 OA
BRANCH  15  16
ATOM     16  C   UNL     1      -5.258  -0.562 129.883  0.00  0.00    +0.000 C 
ATOM     17  O   UNL     1      -4.733   0.340 129.233  0.00  0.00    +0.000 OA
BRANCH  16  22
ATOM     18  C   UNL     1      -2.877  -3.563 129.258  0.00  0.00    +0.000 C 
ATOM     19  C   UNL     1      -4.237  -2.897 129.239  0.00  0.00    +0.000 C 
ATOM     20  C   UNL     1      -4.783  -2.698 127.843  0.00  0.00    +0.000 C 
ATOM     21  C   UNL     1      -5.245  -3.136 130.354  0.00  0.00    +0.000 C 
ATOM     22  C   UNL     1      -4.516  -1.808 130.282  0.00  0.00    +0.000 C 
BRANCH  21  23
ATOM     23  C   UNL     1      -4.979  -4.177 131.370  0.00  0.00    +0.000 C 
ATOM     24  C   UNL     1      -5.681  -4.354 132.505  0.00  0.00    +0.000 C 
ATOM     25 CL   UNL     1      -7.035  -3.355 132.909  0.00  0.00    +0.000 Cl
ATOM     26 CL   UNL     1      -5.259  -5.584 133.642  0.00  0.00    +0.000 Cl
ENDBRANCH  21  23
ENDBRANCH  16  22
ENDBRANCH  15  16
ENDBRANCH   1  15
TORSDOF 7
ENDMDL
MODEL 7
REMARK VINA RESULT:      -7.4      2.319      3.761
REMARK  Name = Permethrin
REMARK  9 active torsions:
REMARK  status: ('A' for Active; 'I' for Inactive)
REMARK    1  A    between atoms: C_1  and  C_2
REMARK    2  A    between atoms: C_2  and  C_3
REMARK    3  A    between atoms: C_4  and  C_5
REMARK    4  A    between atoms: C_9  and  C_10
REMARK    5  A    between atoms: C_10  and  O_12
REMARK    6  A    between atoms: O_12  and  C_13
REMARK    7  A    between atoms: C_13  and  C_14
REMARK    8  A    between atoms: C_16  and  O_17
REMARK    9  A    between atoms: O_17  and  C_18
REMARK                            x       y       z     vdW  Elec       q    Type
REMARK                         _______ _______ _______ _____ _____    ______ ____
ROOT
ATOM      1  C   UNL     1      -8.238   1.944 123.558  0.00  0.00    +0.000 C 
ENDROOT
BRANCH   1   2
ATOM      2  C   UNL     1      -6.960   2.377 124.258  0.00  0.00    +0.000 A 
ATOM      3  C   UNL     1      -6.330   1.598 125.244  0.00  0.00    +0.000 A 
ATOM      4  C   UNL     1      -5.273   2.130 126.001  0.00  0.00    +0.000 A 
ATOM      5  C   UNL     1      -4.748   3.376 125.666  0.00  0.00    +0.000 A 
ATOM      6  C   UNL     1      -5.352   4.156 124.693  0.00  0.00    +0.000 A 
ATOM      7  C   UNL     1      -6.453   3.663 123.996  0.00  0.00    +0.000 A 
BRANCH   4   8
ATOM      8  O   UNL     1      -4.811   1.375 127.057  0.00  0.00    +0.000 OA
BRANCH   8   9
ATOM      9  C   UNL     1      -5.703   0.618 127.793  0.00  0.00    +0.000 A 
ATOM     10  C   UNL     1      -5.567  -0.763 127.672  0.00  0.00    +0.000 A 
ATOM     11  C   UNL     1      -6.479  -1.614 128.298  0.00  0.00    +0.000 A 
ATOM     12  C   UNL     1      -7.473  -1.091 129.124  0.00  0.00    +0.000 A 
ATOM     13  C   UNL     1      -7.600   0.289 129.271  0.00  0.00    +0.000 A 
ATOM     14  C   UNL     1      -6.742   1.144 128.575  0.00  0.00    +0.000 A 
ENDBRANCH   8   9
ENDBRANCH   4   8
ENDBRANCH   1   2
BRANCH   1  15
ATOM     15  O   UNL     1      -8.114   0.641 122.959  0.00  0.00    +0.000 OA
BRANCH  15  16
ATOM     16  C   UNL     1      -9.180  -0.178 123.155  0.00  0.00    +0.000 C 
ATOM     17  O   UNL     1     -10.337   0.069 122.819  0.00  0.00    +0.000 OA
BRANCH  16  22
ATOM     18  C   UNL     1      -9.422  -2.931 125.881  0.00  0.00    +0.000 C 
ATOM     19  C   UNL     1      -8.893  -1.622 125.332  0.00  0.00    +0.000 C 
ATOM     20  C   UNL     1      -9.335  -0.418 126.133  0.00  0.00    +0.000 C 
ATOM     21  C   UNL     1      -7.531  -1.548 124.656  0.00  0.00    +0.000 C 
ATOM     22  C   UNL     1      -8.787  -1.474 123.809  0.00  0.00    +0.000 C 
BRANCH  21  23
ATOM     23  C   UNL     1      -6.626  -2.717 124.702  0.00  0.00    +0.000 C 
ATOM     24  C   UNL     1      -5.775  -3.080 123.724  0.00  0.00    +0.000 C 
ATOM     25 CL   UNL     1      -5.628  -2.177 122.255  0.00  0.00    +0.000 Cl
ATOM     26 CL   UNL     1      -4.787  -4.490 123.870  0.00  0.00    +0.000 Cl
ENDBRANCH  21  23
ENDBRANCH  16  22
ENDBRANCH  15  16
ENDBRANCH   1  15
TORSDOF 7
ENDMDL
MODEL 8
REMARK VINA RESULT:      -7.4      3.255      5.311
REMARK  Name = Permethrin
REMARK  9 active torsions:
REMARK  status: ('A' for Active; 'I' for Inactive)
REMARK    1  A    between atoms: C_1  and  C_2
REMARK    2  A    between atoms: C_2  and  C_3
REMARK    3  A    between atoms: C_4  and  C_5
REMARK    4  A    between atoms: C_9  and  C_10
REMARK    5  A    between atoms: C_10  and  O_12
REMARK    6  A    between atoms: O_12  and  C_13
REMARK    7  A    between atoms: C_13  and  C_14
REMARK    8  A    between atoms: C_16  and  O_17
REMARK    9  A    between atoms: O_17  and  C_18
REMARK                            x       y       z     vdW  Elec       q    Type
REMARK                         _______ _______ _______ _____ _____    ______ ____
ROOT
ATOM      1  C   UNL     1      -6.075  -1.938 123.247  0.00  0.00    +0.000 C 
ENDROOT
BRANCH   1   2
ATOM      2  C   UNL     1      -7.166  -0.893 123.075  0.00  0.00    +0.000 A 
ATOM      3  C   UNL     1      -6.902   0.488 123.061  0.00  0.00    +0.000 A 
ATOM      4  C   UNL     1      -7.957   1.413 123.104  0.00  0.00    +0.000 A 
ATOM      5  C   UNL     1      -9.271   0.961 123.003  0.00  0.00    +0.000 A 
ATOM      6  C   UNL     1      -9.551  -0.397 123.010  0.00  0.00    +0.000 A 
ATOM      7  C   UNL     1      -8.506  -1.319 123.050  0.00  0.00    +0.000 A 
BRANCH   4   8
ATOM      8  O   UNL     1      -7.627   2.742 123.252  0.00  0.00    +0.000 OA
BRANCH   8   9
ATOM      9  C   UNL     1      -6.908   3.378 122.257  0.00  0.00    +0.000 A 
ATOM     10  C   UNL     1      -5.669   3.887 122.639  0.00  0.00    +0.000 A 
ATOM     11  C   UNL     1      -4.909   4.630 121.734  0.00  0.00    +0.000 A 
ATOM     12  C   UNL     1      -5.340   4.785 120.417  0.00  0.00    +0.000 A 
ATOM     13  C   UNL     1      -6.565   4.255 120.020  0.00  0.00    +0.000 A 
ATOM     14  C   UNL     1      -7.368   3.587 120.949  0.00  0.00    +0.000 A 
ENDBRANCH   8   9
ENDBRANCH   4   8
ENDBRANCH   1   2
BRANCH   1  15
ATOM     15  O   UNL     1      -6.318  -2.797 124.376  0.00  0.00    +0.000 OA
BRANCH  15  16
ATOM     16  C   UNL     1      -5.974  -2.265 125.579  0.00  0.00    +0.000 C 
ATOM     17  O   UNL     1      -5.270  -1.270 125.741  0.00  0.00    +0.000 OA
BRANCH  16  22
ATOM     18  C   UNL     1      -8.946  -3.694 127.628  0.00  0.00    +0.000 C 
ATOM     19  C   UNL     1      -7.967  -2.598 127.260  0.00  0.00    +0.000 C 
ATOM     20  C   UNL     1      -8.632  -1.390 126.639  0.00  0.00    +0.000 C 
ATOM     21  C   UNL     1      -6.713  -2.355 128.088  0.00  0.00    +0.000 C 
ATOM     22  C   UNL     1      -6.590  -3.015 126.728  0.00  0.00    +0.000 C 
BRANCH  21  23
ATOM     23  C   UNL     1      -6.537  -3.062 129.375  0.00  0.00    +0.000 C 
ATOM     24  C   UNL     1      -5.378  -3.574 129.828  0.00  0.00    +0.000 C 
ATOM     25 CL   UNL     1      -3.905  -3.444 128.929  0.00  0.00    +0.000 Cl
ATOM     26 CL   UNL     1      -5.293  -4.415 131.335  0.00  0.00    +0.000 Cl
ENDBRANCH  21  23
ENDBRANCH  16  22
ENDBRANCH  15  16
ENDBRANCH   1  15
TORSDOF 7
ENDMDL
MODEL 9
REMARK VINA RESULT:      -7.4      2.572      4.793
REMARK  Name = Permethrin
REMARK  9 active torsions:
REMARK  status: ('A' for Active; 'I' for Inactive)
REMARK    1  A    between atoms: C_1  and  C_2
REMARK    2  A    between atoms: C_2  and  C_3
REMARK    3  A    between atoms: C_4  and  C_5
REMARK    4  A    between atoms: C_9  and  C_10
REMARK    5  A    between atoms: C_10  and  O_12
REMARK    6  A    between atoms: O_12  and  C_13
REMARK    7  A    between atoms: C_13  and  C_14
REMARK    8  A    between atoms: C_16  and  O_17
REMARK    9  A    between atoms: O_17  and  C_18
REMARK                            x       y       z     vdW  Elec       q    Type
REMARK                         _______ _______ _______ _____ _____    ______ ____
ROOT
ATOM      1  C   UNL     1      -9.579   0.984 123.946  0.00  0.00    +0.000 C 
ENDROOT
BRANCH   1   2
ATOM      2  C   UNL     1      -8.633   2.172 123.927  0.00  0.00    +0.000 A 
ATOM      3  C   UNL     1      -7.691   2.381 122.904  0.00  0.00    +0.000 A 
ATOM      4  C   UNL     1      -6.709   3.374 123.035  0.00  0.00    +0.000 A 
ATOM      5  C   UNL     1      -6.764   4.258 124.110  0.00  0.00    +0.000 A 
ATOM      6  C   UNL     1      -7.688   4.072 125.126  0.00  0.00    +0.000 A 
ATOM      7  C   UNL     1      -8.615   3.035 125.039  0.00  0.00    +0.000 A 
BRANCH   4   8
ATOM      8  O   UNL     1      -5.721   3.417 122.074  0.00  0.00    +0.000 OA
BRANCH   8   9
ATOM      9  C   UNL     1      -5.972   4.048 120.870  0.00  0.00    +0.000 A 
ATOM     10  C   UNL     1      -5.051   5.023 120.496  0.00  0.00    +0.000 A 
ATOM     11  C   UNL     1      -5.265   5.784 119.346  0.00  0.00    +0.000 A 
ATOM     12  C   UNL     1      -6.351   5.509 118.515  0.00  0.00    +0.000 A 
ATOM     13  C   UNL     1      -7.263   4.517 118.868  0.00  0.00    +0.000 A 
ATOM     14  C   UNL     1      -7.096   3.814 120.065  0.00  0.00    +0.000 A 
ENDBRANCH   8   9
ENDBRANCH   4   8
ENDBRANCH   1   2
BRANCH   1  15
ATOM     15  O   UNL     1      -8.883  -0.263 124.129  0.00  0.00    +0.000 OA
BRANCH  15  16
ATOM     16  C   UNL     1      -8.697  -0.623 125.427  0.00  0.00    +0.000 C 
ATOM     17  O   UNL     1      -9.470  -0.378 126.350  0.00  0.00    +0.000 OA
BRANCH  16  22
ATOM     18  C   UNL     1      -5.308  -1.424 127.142  0.00  0.00    +0.000 C 
ATOM     19  C   UNL     1      -6.163  -0.705 126.118  0.00  0.00    +0.000 C 
ATOM     20  C   UNL     1      -6.222   0.789 126.337  0.00  0.00    +0.000 C 
ATOM     21  C   UNL     1      -6.256  -1.204 124.683  0.00  0.00    +0.000 C 
ATOM     22  C   UNL     1      -7.430  -1.411 125.620  0.00  0.00    +0.000 C 
BRANCH  21  23
ATOM     23  C   UNL     1      -5.357  -2.285 124.224  0.00  0.00    +0.000 C 
ATOM     24  C   UNL     1      -5.703  -3.579 124.091  0.00  0.00    +0.000 C 
ATOM     25 CL   UNL     1      -7.302  -4.141 124.440  0.00  0.00    +0.000 Cl
ATOM     26 CL   UNL     1      -4.558  -4.768 123.579  0.00  0.00    +0.000 Cl
ENDBRANCH  21  23
ENDBRANCH  16  22
ENDBRANCH  15  16
ENDBRANCH   1  15
TORSDOF 7
ENDMDL
