MODEL 1
REMARK VINA RESULT:      -7.2      0.000      0.000
REMARK  Name = Perphenazine
REMARK  7 active torsions:
REMARK  status: ('A' for Active; 'I' for Inactive)
REMARK    1  A    between atoms: O_1  and  C_2
REMARK    2  A    between atoms: C_2  and  C_3
REMARK    3  A    between atoms: C_3  and  N_4
REMARK    4  A    between atoms: N_7  and  C_8
REMARK    5  A    between atoms: C_8  and  C_9
REMARK    6  A    between atoms: C_9  and  C_10
REMARK    7  A    between atoms: C_10  and  N_11
REMARK                            x       y       z     vdW  Elec       q    Type
REMARK                         _______ _______ _______ _____ _____    ______ ____
ROOT
ATOM      1  N   UNL     1      -5.367   5.969 132.908  0.00  0.00    +0.000 N 
ATOM      2  C   UNL     1      -5.824   5.903 134.251  0.00  0.00    +0.000 A 
ATOM      3  C   UNL     1      -7.167   5.632 134.599  0.00  0.00    +0.000 A 
ATOM      4  C   UNL     1      -7.621   5.611 135.919  0.00  0.00    +0.000 A 
ATOM      5  C   UNL     1      -6.739   5.870 136.955  0.00  0.00    +0.000 A 
ATOM      6  C   UNL     1      -5.413   6.136 136.657  0.00  0.00    +0.000 A 
ATOM      7  C   UNL     1      -4.951   6.150 135.332  0.00  0.00    +0.000 A 
ATOM      8  S   UNL     1      -3.220   6.489 135.163  0.00  0.00    +0.000 S 
ATOM      9  C   UNL     1      -2.994   6.484 133.412  0.00  0.00    +0.000 A 
ATOM     10  C   UNL     1      -4.034   6.277 132.484  0.00  0.00    +0.000 A 
ATOM     11  C   UNL     1      -3.665   6.358 131.119  0.00  0.00    +0.000 A 
ATOM     12  C   UNL     1      -2.344   6.493 130.702  0.00  0.00    +0.000 A 
ATOM     13 CL   UNL     1      -1.959   6.394 129.028  0.00  0.00    +0.000 Cl
ATOM     14  C   UNL     1      -1.336   6.674 131.634  0.00  0.00    +0.000 A 
ATOM     15  C   UNL     1      -1.674   6.694 132.981  0.00  0.00    +0.000 A 
ENDROOT
BRANCH   1  16
ATOM     16  C   UNL     1      -6.272   5.471 131.861  0.00  0.00    +0.000 C 
BRANCH  16  17
ATOM     17  C   UNL     1      -7.132   6.599 131.320  0.00  0.00    +0.000 C 
BRANCH  17  18
ATOM     18  C   UNL     1      -8.438   6.004 130.876  0.00  0.00    +0.000 C 
BRANCH  18  22
ATOM     19  N   UNL     1     -11.722   6.141 129.193  0.00  0.00    +0.000 NA
ATOM     20  C   UNL     1     -10.478   6.786 128.711  0.00  0.00    +0.000 C 
ATOM     21  C   UNL     1      -9.695   7.627 129.764  0.00  0.00    +0.000 C 
ATOM     22  N   UNL     1      -9.531   6.952 131.067  0.00  0.00    +0.000 NA
ATOM     23  C   UNL     1     -10.789   6.274 131.504  0.00  0.00    +0.000 C 
ATOM     24  C   UNL     1     -11.427   5.383 130.423  0.00  0.00    +0.000 C 
BRANCH  19  25
ATOM     25  C   UNL     1     -12.845   7.094 129.405  0.00  0.00    +0.000 C 
BRANCH  25  26
ATOM     26  C   UNL     1     -13.132   8.103 128.280  0.00  0.00    +0.000 C 
BRANCH  26  27
ATOM     27  O   UNL     1     -12.780   9.445 128.544  0.00  0.00    +0.000 OA
ATOM     28  H   UNL     1     -13.157   9.609 129.432  0.00  0.00    +0.000 HD
ENDBRANCH  26  27
ENDBRANCH  25  26
ENDBRANCH  19  25
ENDBRANCH  18  22
ENDBRANCH  17  18
ENDBRANCH  16  17
ENDBRANCH   1  16
TORSDOF 7
ENDMDL
MODEL 2
REMARK VINA RESULT:      -7.1      6.914      8.664
REMARK  Name = Perphenazine
REMARK  7 active torsions:
REMARK  status: ('A' for Active; 'I' for Inactive)
REMARK    1  A    between atoms: O_1  and  C_2
REMARK    2  A    between atoms: C_2  and  C_3
REMARK    3  A    between atoms: C_3  and  N_4
REMARK    4  A    between atoms: N_7  and  C_8
REMARK    5  A    between atoms: C_8  and  C_9
REMARK    6  A    between atoms: C_9  and  C_10
REMARK    7  A    between atoms: C_10  and  N_11
REMARK                            x       y       z     vdW  Elec       q    Type
REMARK                         _______ _______ _______ _____ _____    ______ ____
ROOT
ATOM      1  N   UNL     1      -7.202  -0.123 127.256  0.00  0.00    +0.000 N 
ATOM      2  C   UNL     1      -7.783  -1.400 127.473  0.00  0.00    +0.000 A 
ATOM      3  C   UNL     1      -7.845  -2.015 128.744  0.00  0.00    +0.000 A 
ATOM      4  C   UNL     1      -8.378  -3.291 128.946  0.00  0.00    +0.000 A 
ATOM      5  C   UNL     1      -8.868  -4.011 127.869  0.00  0.00    +0.000 A 
ATOM      6  C   UNL     1      -8.828  -3.442 126.607  0.00  0.00    +0.000 A 
ATOM      7  C   UNL     1      -8.301  -2.158 126.401  0.00  0.00    +0.000 A 
ATOM      8  S   UNL     1      -8.361  -1.602 124.720  0.00  0.00    +0.000 S 
ATOM      9  C   UNL     1      -7.590  -0.016 124.809  0.00  0.00    +0.000 A 
ATOM     10  C   UNL     1      -7.069   0.541 125.994  0.00  0.00    +0.000 A 
ATOM     11  C   UNL     1      -6.444   1.805 125.856  0.00  0.00    +0.000 A 
ATOM     12  C   UNL     1      -6.458   2.527 124.666  0.00  0.00    +0.000 A 
ATOM     13 CL   UNL     1      -5.843   4.133 124.630  0.00  0.00    +0.000 Cl
ATOM     14  C   UNL     1      -6.995   1.966 123.519  0.00  0.00    +0.000 A 
ATOM     15  C   UNL     1      -7.534   0.689 123.595  0.00  0.00    +0.000 A 
ENDROOT
BRANCH   1  16
ATOM     16  C   UNL     1      -6.904   0.695 128.442  0.00  0.00    +0.000 C 
BRANCH  16  17
ATOM     17  C   UNL     1      -8.185   1.237 129.049  0.00  0.00    +0.000 C 
BRANCH  17  18
ATOM     18  C   UNL     1      -7.914   2.641 129.511  0.00  0.00    +0.000 C 
BRANCH  18  22
ATOM     19  N   UNL     1      -9.133   5.572 131.397  0.00  0.00    +0.000 NA
ATOM     20  C   UNL     1      -9.530   4.166 131.637  0.00  0.00    +0.000 C 
ATOM     21  C   UNL     1      -9.960   3.354 130.378  0.00  0.00    +0.000 C 
ATOM     22  N   UNL     1      -9.051   3.511 129.225  0.00  0.00    +0.000 NA
ATOM     23  C   UNL     1      -8.633   4.933 129.036  0.00  0.00    +0.000 C 
ATOM     24  C   UNL     1      -8.125   5.611 130.320  0.00  0.00    +0.000 C 
BRANCH  19  25
ATOM     25  C   UNL     1     -10.279   6.472 131.092  0.00  0.00    +0.000 C 
BRANCH  25  26
ATOM     26  C   UNL     1     -11.472   6.443 132.063  0.00  0.00    +0.000 C 
BRANCH  26  27
ATOM     27  O   UNL     1     -12.721   6.819 131.523  0.00  0.00    +0.000 OA
ATOM     28  H   UNL     1     -12.878   7.706 131.906  0.00  0.00    +0.000 HD
ENDBRANCH  26  27
ENDBRANCH  25  26
ENDBRANCH  19  25
ENDBRANCH  18  22
ENDBRANCH  17  18
ENDBRANCH  16  17
ENDBRANCH   1  16
TORSDOF 7
ENDMDL
MODEL 3
REMARK VINA RESULT:      -7.0      8.255     10.785
REMARK  Name = Perphenazine
REMARK  7 active torsions:
REMARK  status: ('A' for Active; 'I' for Inactive)
REMARK    1  A    between atoms: O_1  and  C_2
REMARK    2  A    between atoms: C_2  and  C_3
REMARK    3  A    between atoms: C_3  and  N_4
REMARK    4  A    between atoms: N_7  and  C_8
REMARK    5  A    between atoms: C_8  and  C_9
REMARK    6  A    between atoms: C_9  and  C_10
REMARK    7  A    between atoms: C_10  and  N_11
REMARK                            x       y       z     vdW  Elec       q    Type
REMARK                         _______ _______ _______ _____ _____    ______ ____
ROOT
ATOM      1  N   UNL     1      -6.620  -1.349 126.414  0.00  0.00    +0.000 N 
ATOM      2  C   UNL     1      -7.319  -1.818 125.270  0.00  0.00    +0.000 A 
ATOM      3  C   UNL     1      -7.052  -1.362 123.960  0.00  0.00    +0.000 A 
ATOM      4  C   UNL     1      -7.771  -1.794 122.843  0.00  0.00    +0.000 A 
ATOM      5  C   UNL     1      -8.803  -2.704 122.998  0.00  0.00    +0.000 A 
ATOM      6  C   UNL     1      -9.096  -3.178 124.266  0.00  0.00    +0.000 A 
ATOM      7  C   UNL     1      -8.370  -2.753 125.390  0.00  0.00    +0.000 A 
ATOM      8  S   UNL     1      -8.883  -3.492 126.916  0.00  0.00    +0.000 S 
ATOM      9  C   UNL     1      -7.824  -2.715 128.097  0.00  0.00    +0.000 A 
ATOM     10  C   UNL     1      -6.866  -1.736 127.771  0.00  0.00    +0.000 A 
ATOM     11  C   UNL     1      -6.144  -1.194 128.864  0.00  0.00    +0.000 A 
ATOM     12  C   UNL     1      -6.262  -1.683 130.161  0.00  0.00    +0.000 A 
ATOM     13 CL   UNL     1      -5.216  -1.099 131.396  0.00  0.00    +0.000 Cl
ATOM     14  C   UNL     1      -7.198  -2.662 130.453  0.00  0.00    +0.000 A 
ATOM     15  C   UNL     1      -7.989  -3.151 129.423  0.00  0.00    +0.000 A 
ENDROOT
BRANCH   1  16
ATOM     16  C   UNL     1      -5.397  -0.565 126.184  0.00  0.00    +0.000 C 
BRANCH  16  17
ATOM     17  C   UNL     1      -5.730   0.908 126.030  0.00  0.00    +0.000 C 
BRANCH  17  18
ATOM     18  C   UNL     1      -4.814   1.681 126.935  0.00  0.00    +0.000 C 
BRANCH  18  22
ATOM     19  N   UNL     1      -2.888   4.447 128.444  0.00  0.00    +0.000 NA
ATOM     20  C   UNL     1      -4.235   4.001 128.869  0.00  0.00    +0.000 C 
ATOM     21  C   UNL     1      -5.285   3.823 127.731  0.00  0.00    +0.000 C 
ATOM     22  N   UNL     1      -4.776   3.090 126.555  0.00  0.00    +0.000 NA
ATOM     23  C   UNL     1      -3.398   3.530 126.179  0.00  0.00    +0.000 C 
ATOM     24  C   UNL     1      -2.411   3.570 127.358  0.00  0.00    +0.000 C 
BRANCH  19  25
ATOM     25  C   UNL     1      -2.833   5.878 128.042  0.00  0.00    +0.000 C 
BRANCH  25  26
ATOM     26  C   UNL     1      -3.146   6.925 129.125  0.00  0.00    +0.000 C 
BRANCH  26  27
ATOM     27  O   UNL     1      -4.126   7.887 128.795  0.00  0.00    +0.000 OA
ATOM     28  H   UNL     1      -4.014   8.573 129.484  0.00  0.00    +0.000 HD
ENDBRANCH  26  27
ENDBRANCH  25  26
ENDBRANCH  19  25
ENDBRANCH  18  22
ENDBRANCH  17  18
ENDBRANCH  16  17
ENDBRANCH   1  16
TORSDOF 7
ENDMDL
MODEL 4
REMARK VINA RESULT:      -7.0      9.685     12.015
REMARK  Name = Perphenazine
REMARK  7 active torsions:
REMARK  status: ('A' for Active; 'I' for Inactive)
REMARK    1  A    between atoms: O_1  and  C_2
REMARK    2  A    between atoms: C_2  and  C_3
REMARK    3  A    between atoms: C_3  and  N_4
REMARK    4  A    between atoms: N_7  and  C_8
REMARK    5  A    between atoms: C_8  and  C_9
REMARK    6  A    between atoms: C_9  and  C_10
REMARK    7  A    between atoms: C_10  and  N_11
REMARK                            x       y       z     vdW  Elec       q    Type
REMARK                         _______ _______ _______ _____ _____    ______ ____
ROOT
ATOM      1  N   UNL     1      -6.371  -0.976 125.650  0.00  0.00    +0.000 N 
ATOM      2  C   UNL     1      -7.374  -1.684 124.935  0.00  0.00    +0.000 A 
ATOM      3  C   UNL     1      -7.632  -3.060 125.123  0.00  0.00    +0.000 A 
ATOM      4  C   UNL     1      -8.589  -3.762 124.388  0.00  0.00    +0.000 A 
ATOM      5  C   UNL     1      -9.331  -3.105 123.419  0.00  0.00    +0.000 A 
ATOM      6  C   UNL     1      -9.111  -1.755 123.206  0.00  0.00    +0.000 A 
ATOM      7  C   UNL     1      -8.155  -1.044 123.949  0.00  0.00    +0.000 A 
ATOM      8  S   UNL     1      -8.042   0.676 123.541  0.00  0.00    +0.000 S 
ATOM      9  C   UNL     1      -6.742   1.239 124.597  0.00  0.00    +0.000 A 
ATOM     10  C   UNL     1      -6.030   0.405 125.482  0.00  0.00    +0.000 A 
ATOM     11  C   UNL     1      -4.989   1.030 126.211  0.00  0.00    +0.000 A 
ATOM     12  C   UNL     1      -4.761   2.403 126.174  0.00  0.00    +0.000 A 
ATOM     13 CL   UNL     1      -3.602   3.109 127.231  0.00  0.00    +0.000 Cl
ATOM     14  C   UNL     1      -5.490   3.205 125.311  0.00  0.00    +0.000 A 
ATOM     15  C   UNL     1      -6.457   2.611 124.511  0.00  0.00    +0.000 A 
ENDROOT
BRANCH   1  16
ATOM     16  C   UNL     1      -5.770  -1.645 126.814  0.00  0.00    +0.000 C 
BRANCH  16  17
ATOM     17  C   UNL     1      -6.621  -1.423 128.051  0.00  0.00    +0.000 C 
BRANCH  17  18
ATOM     18  C   UNL     1      -6.612  -2.698 128.846  0.00  0.00    +0.000 C 
BRANCH  18  22
ATOM     19  N   UNL     1      -3.865  -3.707 131.098  0.00  0.00    +0.000 NA
ATOM     20  C   UNL     1      -5.080  -4.503 130.809  0.00  0.00    +0.000 C 
ATOM     21  C   UNL     1      -6.436  -3.745 130.925  0.00  0.00    +0.000 C 
ATOM     22  N   UNL     1      -6.440  -2.422 130.269  0.00  0.00    +0.000 NA
ATOM     23  C   UNL     1      -5.183  -1.662 130.543  0.00  0.00    +0.000 C 
ATOM     24  C   UNL     1      -3.898  -2.470 130.296  0.00  0.00    +0.000 C 
BRANCH  19  25
ATOM     25  C   UNL     1      -3.679  -3.406 132.543  0.00  0.00    +0.000 C 
BRANCH  25  26
ATOM     26  C   UNL     1      -3.348  -4.588 133.471  0.00  0.00    +0.000 C 
BRANCH  26  27
ATOM     27  O   UNL     1      -2.039  -5.108 133.371  0.00  0.00    +0.000 OA
ATOM     28  H   UNL     1      -1.517  -4.527 133.959  0.00  0.00    +0.000 HD
ENDBRANCH  26  27
ENDBRANCH  25  26
ENDBRANCH  19  25
ENDBRANCH  18  22
ENDBRANCH  17  18
ENDBRANCH  16  17
ENDBRANCH   1  16
TORSDOF 7
ENDMDL
MODEL 5
REMARK VINA RESULT:      -6.8      9.450     11.606
REMARK  Name = Perphenazine
REMARK  7 active torsions:
REMARK  status: ('A' for Active; 'I' for Inactive)
REMARK    1  A    between atoms: O_1  and  C_2
REMARK    2  A    between atoms: C_2  and  C_3
REMARK    3  A    between atoms: C_3  and  N_4
REMARK    4  A    between atoms: N_7  and  C_8
REMARK    5  A    between atoms: C_8  and  C_9
REMARK    6  A    between atoms: C_9  and  C_10
REMARK    7  A    between atoms: C_10  and  N_11
REMARK                            x       y       z     vdW  Elec       q    Type
REMARK                         _______ _______ _______ _____ _____    ______ ____
ROOT
ATOM      1  N   UNL     1      -6.290  -1.150 125.590  0.00  0.00    +0.000 N 
ATOM      2  C   UNL     1      -7.329  -1.797 124.870  0.00  0.00    +0.000 A 
ATOM      3  C   UNL     1      -7.574  -3.187 124.946  0.00  0.00    +0.000 A 
ATOM      4  C   UNL     1      -8.568  -3.825 124.203  0.00  0.00    +0.000 A 
ATOM      5  C   UNL     1      -9.362  -3.089 123.338  0.00  0.00    +0.000 A 
ATOM      6  C   UNL     1      -9.156  -1.724 123.236  0.00  0.00    +0.000 A 
ATOM      7  C   UNL     1      -8.163  -1.076 123.988  0.00  0.00    +0.000 A 
ATOM      8  S   UNL     1      -8.074   0.674 123.732  0.00  0.00    +0.000 S 
ATOM      9  C   UNL     1      -6.720   1.148 124.763  0.00  0.00    +0.000 A 
ATOM     10  C   UNL     1      -5.960   0.242 125.529  0.00  0.00    +0.000 A 
ATOM     11  C   UNL     1      -4.883   0.807 126.256  0.00  0.00    +0.000 A 
ATOM     12  C   UNL     1      -4.659   2.178 126.330  0.00  0.00    +0.000 A 
ATOM     13 CL   UNL     1      -3.446   2.794 127.383  0.00  0.00    +0.000 Cl
ATOM     14  C   UNL     1      -5.435   3.050 125.583  0.00  0.00    +0.000 A 
ATOM     15  C   UNL     1      -6.442   2.525 124.786  0.00  0.00    +0.000 A 
ENDROOT
BRANCH   1  16
ATOM     16  C   UNL     1      -5.626  -1.917 126.655  0.00  0.00    +0.000 C 
BRANCH  16  17
ATOM     17  C   UNL     1      -6.460  -1.896 127.924  0.00  0.00    +0.000 C 
BRANCH  17  18
ATOM     18  C   UNL     1      -5.706  -2.654 128.979  0.00  0.00    +0.000 C 
BRANCH  18  22
ATOM     19  N   UNL     1      -5.898  -3.050 132.645  0.00  0.00    +0.000 NA
ATOM     20  C   UNL     1      -5.037  -3.841 131.736  0.00  0.00    +0.000 C 
ATOM     21  C   UNL     1      -5.739  -4.440 130.481  0.00  0.00    +0.000 C 
ATOM     22  N   UNL     1      -6.610  -3.484 129.768  0.00  0.00    +0.000 NA
ATOM     23  C   UNL     1      -7.433  -2.670 130.714  0.00  0.00    +0.000 C 
ATOM     24  C   UNL     1      -6.625  -2.035 131.859  0.00  0.00    +0.000 C 
BRANCH  19  25
ATOM     25  C   UNL     1      -6.835  -3.878 133.451  0.00  0.00    +0.000 C 
BRANCH  25  26
ATOM     26  C   UNL     1      -7.924  -3.136 134.245  0.00  0.00    +0.000 C 
BRANCH  26  27
ATOM     27  O   UNL     1      -9.011  -3.919 134.691  0.00  0.00    +0.000 OA
ATOM     28  H   UNL     1      -9.291  -3.473 135.515  0.00  0.00    +0.000 HD
ENDBRANCH  26  27
ENDBRANCH  25  26
ENDBRANCH  19  25
ENDBRANCH  18  22
ENDBRANCH  17  18
ENDBRANCH  16  17
ENDBRANCH   1  16
TORSDOF 7
ENDMDL
MODEL 6
REMARK VINA RESULT:      -6.8      3.139      4.047
REMARK  Name = Perphenazine
REMARK  7 active torsions:
REMARK  status: ('A' for Active; 'I' for Inactive)
REMARK    1  A    between atoms: O_1  and  C_2
REMARK    2  A    between atoms: C_2  and  C_3
REMARK    3  A    between atoms: C_3  and  N_4
REMARK    4  A    between atoms: N_7  and  C_8
REMARK    5  A    between atoms: C_8  and  C_9
REMARK    6  A    between atoms: C_9  and  C_10
REMARK    7  A    between atoms: C_10  and  N_11
REMARK                            x       y       z     vdW  Elec       q    Type
REMARK                         _______ _______ _______ _____ _____    ______ ____
ROOT
ATOM      1  N   UNL     1      -6.598   3.514 132.527  0.00  0.00    +0.000 N 
ATOM      2  C   UNL     1      -7.257   2.376 131.992  0.00  0.00    +0.000 A 
ATOM      3  C   UNL     1      -8.468   1.868 132.514  0.00  0.00    +0.000 A 
ATOM      4  C   UNL     1      -9.091   0.722 132.013  0.00  0.00    +0.000 A 
ATOM      5  C   UNL     1      -8.514   0.029 130.961  0.00  0.00    +0.000 A 
ATOM      6  C   UNL     1      -7.329   0.496 130.419  0.00  0.00    +0.000 A 
ATOM      7  C   UNL     1      -6.704   1.652 130.914  0.00  0.00    +0.000 A 
ATOM      8  S   UNL     1      -5.211   2.095 130.071  0.00  0.00    +0.000 S 
ATOM      9  C   UNL     1      -4.675   3.524 130.961  0.00  0.00    +0.000 A 
ATOM     10  C   UNL     1      -5.352   4.058 132.075  0.00  0.00    +0.000 A 
ATOM     11  C   UNL     1      -4.740   5.181 132.685  0.00  0.00    +0.000 A 
ATOM     12  C   UNL     1      -3.621   5.812 132.153  0.00  0.00    +0.000 A 
ATOM     13 CL   UNL     1      -3.051   7.279 132.847  0.00  0.00    +0.000 Cl
ATOM     14  C   UNL     1      -2.984   5.280 131.043  0.00  0.00    +0.000 A 
ATOM     15  C   UNL     1      -3.502   4.125 130.472  0.00  0.00    +0.000 A 
ENDROOT
BRANCH   1  16
ATOM     16  C   UNL     1      -7.348   4.344 133.482  0.00  0.00    +0.000 C 
BRANCH  16  17
ATOM     17  C   UNL     1      -7.865   5.599 132.803  0.00  0.00    +0.000 C 
BRANCH  17  18
ATOM     18  C   UNL     1      -9.325   5.392 132.513  0.00  0.00    +0.000 C 
BRANCH  18  22
ATOM     19  N   UNL     1     -10.932   5.875 129.223  0.00  0.00    +0.000 NA
ATOM     20  C   UNL     1      -9.486   6.022 129.507  0.00  0.00    +0.000 C 
ATOM     21  C   UNL     1      -9.118   6.898 130.741  0.00  0.00    +0.000 C 
ATOM     22  N   UNL     1      -9.918   6.600 131.947  0.00  0.00    +0.000 NA
ATOM     23  C   UNL     1     -11.364   6.413 131.622  0.00  0.00    +0.000 C 
ATOM     24  C   UNL     1     -11.623   5.446 130.454  0.00  0.00    +0.000 C 
BRANCH  19  25
ATOM     25  C   UNL     1     -11.557   7.101 128.656  0.00  0.00    +0.000 C 
BRANCH  25  26
ATOM     26  C   UNL     1     -11.046   7.581 127.287  0.00  0.00    +0.000 C 
BRANCH  26  27
ATOM     27  O   UNL     1     -11.174   6.665 126.220  0.00  0.00    +0.000 OA
ATOM     28  H   UNL     1     -10.752   5.852 126.565  0.00  0.00    +0.000 HD
ENDBRANCH  26  27
ENDBRANCH  25  26
ENDBRANCH  19  25
ENDBRANCH  18  22
ENDBRANCH  17  18
ENDBRANCH  16  17
ENDBRANCH   1  16
TORSDOF 7
ENDMDL
MODEL 7
REMARK VINA RESULT:      -6.6      7.653      9.937
REMARK  Name = Perphenazine
REMARK  7 active torsions:
REMARK  status: ('A' for Active; 'I' for Inactive)
REMARK    1  A    between atoms: O_1  and  C_2
REMARK    2  A    between atoms: C_2  and  C_3
REMARK    3  A    between atoms: C_3  and  N_4
REMARK    4  A    between atoms: N_7  and  C_8
REMARK    5  A    between atoms: C_8  and  C_9
REMARK    6  A    between atoms: C_9  and  C_10
REMARK    7  A    between atoms: C_10  and  N_11
REMARK                            x       y       z     vdW  Elec       q    Type
REMARK                         _______ _______ _______ _____ _____    ______ ____
ROOT
ATOM      1  N   UNL     1      -7.876  -0.607 126.748  0.00  0.00    +0.000 N 
ATOM      2  C   UNL     1      -8.286  -1.099 125.480  0.00  0.00    +0.000 A 
ATOM      3  C   UNL     1      -8.357  -0.290 124.324  0.00  0.00    +0.000 A 
ATOM      4  C   UNL     1      -8.802  -0.766 123.089  0.00  0.00    +0.000 A 
ATOM      5  C   UNL     1      -9.206  -2.085 122.964  0.00  0.00    +0.000 A 
ATOM      6  C   UNL     1      -9.149  -2.912 124.074  0.00  0.00    +0.000 A 
ATOM      7  C   UNL     1      -8.694  -2.440 125.315  0.00  0.00    +0.000 A 
ATOM      8  S   UNL     1      -8.676  -3.658 126.601  0.00  0.00    +0.000 S 
ATOM      9  C   UNL     1      -8.116  -2.735 127.999  0.00  0.00    +0.000 A 
ATOM     10  C   UNL     1      -7.820  -1.358 127.966  0.00  0.00    +0.000 A 
ATOM     11  C   UNL     1      -7.431  -0.784 129.202  0.00  0.00    +0.000 A 
ATOM     12  C   UNL     1      -7.217  -1.541 130.351  0.00  0.00    +0.000 A 
ATOM     13 CL   UNL     1      -6.565  -0.797 131.758  0.00  0.00    +0.000 Cl
ATOM     14  C   UNL     1      -7.495  -2.898 130.351  0.00  0.00    +0.000 A 
ATOM     15  C   UNL     1      -7.968  -3.478 129.182  0.00  0.00    +0.000 A 
ENDROOT
BRANCH   1  16
ATOM     16  C   UNL     1      -7.248   0.722 126.788  0.00  0.00    +0.000 C 
BRANCH  16  17
ATOM     17  C   UNL     1      -8.289   1.795 127.050  0.00  0.00    +0.000 C 
BRANCH  17  18
ATOM     18  C   UNL     1      -7.689   2.791 128.000  0.00  0.00    +0.000 C 
BRANCH  18  22
ATOM     19  N   UNL     1      -7.715   3.641 131.594  0.00  0.00    +0.000 NA
ATOM     20  C   UNL     1      -8.167   2.358 131.007  0.00  0.00    +0.000 C 
ATOM     21  C   UNL     1      -9.143   2.468 129.797  0.00  0.00    +0.000 C 
ATOM     22  N   UNL     1      -8.728   3.456 128.781  0.00  0.00    +0.000 NA
ATOM     23  C   UNL     1      -8.236   4.721 129.404  0.00  0.00    +0.000 C 
ATOM     24  C   UNL     1      -7.196   4.506 130.517  0.00  0.00    +0.000 C 
BRANCH  19  25
ATOM     25  C   UNL     1      -8.765   4.339 132.384  0.00  0.00    +0.000 C 
BRANCH  25  26
ATOM     26  C   UNL     1      -9.157   3.717 133.736  0.00  0.00    +0.000 C 
BRANCH  26  27
ATOM     27  O   UNL     1      -8.863   4.486 134.882  0.00  0.00    +0.000 OA
ATOM     28  H   UNL     1      -7.998   4.891 134.670  0.00  0.00    +0.000 HD
ENDBRANCH  26  27
ENDBRANCH  25  26
ENDBRANCH  19  25
ENDBRANCH  18  22
ENDBRANCH  17  18
ENDBRANCH  16  17
ENDBRANCH   1  16
TORSDOF 7
ENDMDL
MODEL 8
REMARK VINA RESULT:      -6.6      6.420      7.937
REMARK  Name = Perphenazine
REMARK  7 active torsions:
REMARK  status: ('A' for Active; 'I' for Inactive)
REMARK    1  A    between atoms: O_1  and  C_2
REMARK    2  A    between atoms: C_2  and  C_3
REMARK    3  A    between atoms: C_3  and  N_4
REMARK    4  A    between atoms: N_7  and  C_8
REMARK    5  A    between atoms: C_8  and  C_9
REMARK    6  A    between atoms: C_9  and  C_10
REMARK    7  A    between atoms: C_10  and  N_11
REMARK                            x       y       z     vdW  Elec       q    Type
REMARK                         _______ _______ _______ _____ _____    ______ ____
ROOT
ATOM      1  N   UNL     1      -6.511  -0.763 129.301  0.00  0.00    +0.000 N 
ATOM      2  C   UNL     1      -7.328  -1.767 128.717  0.00  0.00    +0.000 A 
ATOM      3  C   UNL     1      -8.027  -2.732 129.477  0.00  0.00    +0.000 A 
ATOM      4  C   UNL     1      -8.795  -3.745 128.897  0.00  0.00    +0.000 A 
ATOM      5  C   UNL     1      -8.888  -3.836 127.518  0.00  0.00    +0.000 A 
ATOM      6  C   UNL     1      -8.220  -2.907 126.738  0.00  0.00    +0.000 A 
ATOM      7  C   UNL     1      -7.454  -1.882 127.316  0.00  0.00    +0.000 A 
ATOM      8  S   UNL     1      -6.698  -0.784 126.149  0.00  0.00    +0.000 S 
ATOM      9  C   UNL     1      -5.792   0.320 127.188  0.00  0.00    +0.000 A 
ATOM     10  C   UNL     1      -5.745   0.219 128.593  0.00  0.00    +0.000 A 
ATOM     11  C   UNL     1      -4.924   1.169 129.250  0.00  0.00    +0.000 A 
ATOM     12  C   UNL     1      -4.309   2.224 128.582  0.00  0.00    +0.000 A 
ATOM     13 CL   UNL     1      -3.485   3.441 129.476  0.00  0.00    +0.000 Cl
ATOM     14  C   UNL     1      -4.388   2.314 127.202  0.00  0.00    +0.000 A 
ATOM     15  C   UNL     1      -5.108   1.346 126.515  0.00  0.00    +0.000 A 
ENDROOT
BRANCH   1  16
ATOM     16  C   UNL     1      -6.619  -0.562 130.754  0.00  0.00    +0.000 C 
BRANCH  16  17
ATOM     17  C   UNL     1      -7.831   0.291 131.083  0.00  0.00    +0.000 C 
BRANCH  17  18
ATOM     18  C   UNL     1      -7.399   1.338 132.070  0.00  0.00    +0.000 C 
BRANCH  18  22
ATOM     19  N   UNL     1      -8.596   4.831 132.051  0.00  0.00    +0.000 NA
ATOM     20  C   UNL     1      -7.599   4.266 132.989  0.00  0.00    +0.000 C 
ATOM     21  C   UNL     1      -7.992   2.924 133.676  0.00  0.00    +0.000 C 
ATOM     22  N   UNL     1      -8.552   1.918 132.750  0.00  0.00    +0.000 NA
ATOM     23  C   UNL     1      -9.520   2.527 131.788  0.00  0.00    +0.000 C 
ATOM     24  C   UNL     1      -8.992   3.789 131.084  0.00  0.00    +0.000 C 
BRANCH  19  25
ATOM     25  C   UNL     1      -9.785   5.417 132.726  0.00  0.00    +0.000 C 
BRANCH  25  26
ATOM     26  C   UNL     1     -10.696   6.325 131.881  0.00  0.00    +0.000 C 
BRANCH  26  27
ATOM     27  O   UNL     1     -12.073   6.013 131.898  0.00  0.00    +0.000 OA
ATOM     28  H   UNL     1     -12.156   5.385 132.644  0.00  0.00    +0.000 HD
ENDBRANCH  26  27
ENDBRANCH  25  26
ENDBRANCH  19  25
ENDBRANCH  18  22
ENDBRANCH  17  18
ENDBRANCH  16  17
ENDBRANCH   1  16
TORSDOF 7
ENDMDL
MODEL 9
REMARK VINA RESULT:      -6.5      3.946      5.264
REMARK  Name = Perphenazine
REMARK  7 active torsions:
REMARK  status: ('A' for Active; 'I' for Inactive)
REMARK    1  A    between atoms: O_1  and  C_2
REMARK    2  A    between atoms: C_2  and  C_3
REMARK    3  A    between atoms: C_3  and  N_4
REMARK    4  A    between atoms: N_7  and  C_8
REMARK    5  A    between atoms: C_8  and  C_9
REMARK    6  A    between atoms: C_9  and  C_10
REMARK    7  A    between atoms: C_10  and  N_11
REMARK                            x       y       z     vdW  Elec       q    Type
REMARK                         _______ _______ _______ _____ _____    ______ ____
ROOT
ATOM      1  N   UNL     1      -8.298   2.246 132.941  0.00  0.00    +0.000 N 
ATOM      2  C   UNL     1      -7.887   1.070 132.260  0.00  0.00    +0.000 A 
ATOM      3  C   UNL     1      -8.701   0.395 131.321  0.00  0.00    +0.000 A 
ATOM      4  C   UNL     1      -8.310  -0.786 130.686  0.00  0.00    +0.000 A 
ATOM      5  C   UNL     1      -7.077  -1.348 130.975  0.00  0.00    +0.000 A 
ATOM      6  C   UNL     1      -6.248  -0.716 131.887  0.00  0.00    +0.000 A 
ATOM      7  C   UNL     1      -6.634   0.475 132.521  0.00  0.00    +0.000 A 
ATOM      8  S   UNL     1      -5.425   1.136 133.635  0.00  0.00    +0.000 S 
ATOM      9  C   UNL     1      -6.236   2.567 134.281  0.00  0.00    +0.000 A 
ATOM     10  C   UNL     1      -7.544   2.956 133.930  0.00  0.00    +0.000 A 
ATOM     11  C   UNL     1      -8.040   4.107 134.591  0.00  0.00    +0.000 A 
ATOM     12  C   UNL     1      -7.255   4.893 135.428  0.00  0.00    +0.000 A 
ATOM     13 CL   UNL     1      -7.874   6.376 136.042  0.00  0.00    +0.000 Cl
ATOM     14  C   UNL     1      -5.963   4.501 135.741  0.00  0.00    +0.000 A 
ATOM     15  C   UNL     1      -5.474   3.327 135.184  0.00  0.00    +0.000 A 
ENDROOT
BRANCH   1  16
ATOM     16  C   UNL     1      -9.503   2.928 132.445  0.00  0.00    +0.000 C 
BRANCH  16  17
ATOM     17  C   UNL     1      -9.154   3.854 131.294  0.00  0.00    +0.000 C 
BRANCH  17  18
ATOM     18  C   UNL     1     -10.434   4.455 130.787  0.00  0.00    +0.000 C 
BRANCH  18  22
ATOM     19  N   UNL     1     -11.659   7.215 128.662  0.00  0.00    +0.000 NA
ATOM     20  C   UNL     1     -10.279   6.677 128.666  0.00  0.00    +0.000 C 
ATOM     21  C   UNL     1      -9.614   6.518 130.066  0.00  0.00    +0.000 C 
ATOM     22  N   UNL     1     -10.487   5.885 131.076  0.00  0.00    +0.000 NA
ATOM     23  C   UNL     1     -11.882   6.416 131.016  0.00  0.00    +0.000 C 
ATOM     24  C   UNL     1     -12.485   6.432 129.600  0.00  0.00    +0.000 C 
BRANCH  19  25
ATOM     25  C   UNL     1     -11.733   8.670 128.965  0.00  0.00    +0.000 C 
BRANCH  25  26
ATOM     26  C   UNL     1     -13.086   9.367 128.737  0.00  0.00    +0.000 C 
BRANCH  26  27
ATOM     27  O   UNL     1     -13.258  10.614 129.376  0.00  0.00    +0.000 OA
ATOM     28  H   UNL     1     -12.414  10.745 129.853  0.00  0.00    +0.000 HD
ENDBRANCH  26  27
ENDBRANCH  25  26
ENDBRANCH  19  25
ENDBRANCH  18  22
ENDBRANCH  17  18
ENDBRANCH  16  17
ENDBRANCH   1  16
TORSDOF 7
ENDMDL
