MODEL 1
REMARK VINA RESULT:     -10.4      0.000      0.000
REMARK  Name = Pexidartinib
REMARK  5 active torsions:
REMARK  status: ('A' for Active; 'I' for Inactive)
REMARK    1  A    between atoms: C_2  and  C_5
REMARK    2  A    between atoms: C_8  and  C_9
REMARK    3  A    between atoms: C_9  and  N_10
REMARK    4  A    between atoms: C_14  and  C_15
REMARK    5  A    between atoms: C_15  and  C_16
REMARK                            x       y       z     vdW  Elec       q    Type
REMARK                         _______ _______ _______ _____ _____    ______ ____
ROOT
ATOM      1  N   UNL     1      -9.745   3.915 133.610  0.00  0.00    +0.000 N 
ATOM      2  C   UNL     1      -9.266   2.733 132.971  0.00  0.00    +0.000 A 
ATOM      3  N   UNL     1     -10.065   1.896 132.285  0.00  0.00    +0.000 NA
ATOM      4  C   UNL     1      -9.491   0.738 131.655  0.00  0.00    +0.000 A 
ATOM      5  C   UNL     1      -8.117   0.282 131.625  0.00  0.00    +0.000 A 
ATOM      6  C   UNL     1      -7.381   1.118 132.476  0.00  0.00    +0.000 A 
ATOM      7  C   UNL     1      -7.941   2.324 133.108  0.00  0.00    +0.000 A 
ATOM      8  H   UNL     1     -10.751   3.999 133.490  0.00  0.00    +0.000 HD
ENDROOT
BRANCH   1   9
ATOM      9  C   UNL     1      -9.025   5.184 133.329  0.00  0.00    +0.000 C 
BRANCH   9  13
ATOM     10  C   UNL     1     -10.689   7.430 130.032  0.00  0.00    +0.000 A 
ATOM     11  C   UNL     1      -9.304   7.302 130.116  0.00  0.00    +0.000 A 
ATOM     12  C   UNL     1      -8.741   6.585 131.175  0.00  0.00    +0.000 A 
ATOM     13  C   UNL     1      -9.550   5.991 132.144  0.00  0.00    +0.000 A 
ATOM     14  C   UNL     1     -10.930   6.171 131.979  0.00  0.00    +0.000 A 
ATOM     15  N   UNL     1     -11.508   6.858 130.958  0.00  0.00    +0.000 NA
BRANCH  10  17
ATOM     16  F   UNL     1     -12.171   9.177 129.260  0.00  0.00    +0.000 F 
ATOM     17  C   UNL     1     -11.294   8.208 128.871  0.00  0.00    +0.000 C 
ATOM     18  F   UNL     1     -11.972   7.413 127.993  0.00  0.00    +0.000 F 
ATOM     19  F   UNL     1     -10.352   8.856 128.118  0.00  0.00    +0.000 F 
ENDBRANCH  10  17
ENDBRANCH   9  13
ENDBRANCH   1   9
BRANCH   5  20
ATOM     20  C   UNL     1      -7.640  -1.098 130.695  0.00  0.00    +0.000 C 
BRANCH  20  21
ATOM     21  C   UNL     1      -7.469  -1.237 128.919  0.00  0.00    +0.000 A 
ATOM     22  C   UNL     1      -6.708  -2.388 128.791  0.00  0.00    +0.000 A 
ATOM     23  N   UNL     1      -5.890  -1.936 127.788  0.00  0.00    +0.000 N 
ATOM     24  C   UNL     1      -6.686  -1.987 126.719  0.00  0.00    +0.000 A 
ATOM     25  N   UNL     1      -6.224  -2.547 125.562  0.00  0.00    +0.000 NA
ATOM     26  C   UNL     1      -7.139  -2.991 124.740  0.00  0.00    +0.000 A 
ATOM     27  C   UNL     1      -8.485  -2.768 124.952  0.00  0.00    +0.000 A 
ATOM     28 CL   UNL     1      -9.513  -3.406 123.692  0.00  0.00    +0.000 Cl
ATOM     29  C   UNL     1      -8.951  -2.041 126.186  0.00  0.00    +0.000 A 
ATOM     30  C   UNL     1      -7.951  -1.621 127.248  0.00  0.00    +0.000 A 
ATOM     31  H   UNL     1      -5.340  -1.073 127.866  0.00  0.00    +0.000 HD
ENDBRANCH  20  21
ENDBRANCH   5  20
TORSDOF 5
ENDMDL
MODEL 2
REMARK VINA RESULT:      -9.7      4.890      9.850
REMARK  Name = Pexidartinib
REMARK  5 active torsions:
REMARK  status: ('A' for Active; 'I' for Inactive)
REMARK    1  A    between atoms: C_2  and  C_5
REMARK    2  A    between atoms: C_8  and  C_9
REMARK    3  A    between atoms: C_9  and  N_10
REMARK    4  A    between atoms: C_14  and  C_15
REMARK    5  A    between atoms: C_15  and  C_16
REMARK                            x       y       z     vdW  Elec       q    Type
REMARK                         _______ _______ _______ _____ _____    ______ ____
ROOT
ATOM      1  N   UNL     1      -7.439  -2.157 131.686  0.00  0.00    +0.000 N 
ATOM      2  C   UNL     1      -7.764  -0.768 131.656  0.00  0.00    +0.000 A 
ATOM      3  N   UNL     1      -7.698   0.023 132.742  0.00  0.00    +0.000 NA
ATOM      4  C   UNL     1      -8.024   1.418 132.614  0.00  0.00    +0.000 A 
ATOM      5  C   UNL     1      -8.439   2.171 131.448  0.00  0.00    +0.000 A 
ATOM      6  C   UNL     1      -8.625   1.255 130.404  0.00  0.00    +0.000 A 
ATOM      7  C   UNL     1      -8.270  -0.170 130.504  0.00  0.00    +0.000 A 
ATOM      8  H   UNL     1      -7.189  -2.442 132.630  0.00  0.00    +0.000 HD
ENDROOT
BRANCH   1   9
ATOM      9  C   UNL     1      -6.486  -2.659 130.663  0.00  0.00    +0.000 C 
BRANCH   9  13
ATOM     10  C   UNL     1      -7.993  -3.129 126.639  0.00  0.00    +0.000 A 
ATOM     11  C   UNL     1      -8.712  -3.699 127.688  0.00  0.00    +0.000 A 
ATOM     12  C   UNL     1      -8.243  -3.565 128.996  0.00  0.00    +0.000 A 
ATOM     13  C   UNL     1      -7.069  -2.862 129.266  0.00  0.00    +0.000 A 
ATOM     14  C   UNL     1      -6.413  -2.323 128.151  0.00  0.00    +0.000 A 
ATOM     15  N   UNL     1      -6.846  -2.431 126.866  0.00  0.00    +0.000 NA
BRANCH  10  17
ATOM     16  F   UNL     1      -8.297  -4.507 124.676  0.00  0.00    +0.000 F 
ATOM     17  C   UNL     1      -8.515  -3.274 125.215  0.00  0.00    +0.000 C 
ATOM     18  F   UNL     1      -7.957  -2.379 124.350  0.00  0.00    +0.000 F 
ATOM     19  F   UNL     1      -9.865  -3.074 125.122  0.00  0.00    +0.000 F 
ENDBRANCH  10  17
ENDBRANCH   9  13
ENDBRANCH   1   9
BRANCH   5  20
ATOM     20  C   UNL     1      -8.670   3.886 131.514  0.00  0.00    +0.000 C 
BRANCH  20  21
ATOM     21  C   UNL     1     -10.182   4.814 131.279  0.00  0.00    +0.000 A 
ATOM     22  C   UNL     1      -9.951   5.942 132.051  0.00  0.00    +0.000 A 
ATOM     23  N   UNL     1     -11.208   6.033 132.591  0.00  0.00    +0.000 N 
ATOM     24  C   UNL     1     -11.927   6.512 131.574  0.00  0.00    +0.000 A 
ATOM     25  N   UNL     1     -12.782   7.555 131.787  0.00  0.00    +0.000 NA
ATOM     26  C   UNL     1     -13.083   8.267 130.732  0.00  0.00    +0.000 A 
ATOM     27  C   UNL     1     -12.692   7.898 129.461  0.00  0.00    +0.000 A 
ATOM     28 CL   UNL     1     -13.260   8.972 128.207  0.00  0.00    +0.000 Cl
ATOM     29  C   UNL     1     -11.844   6.670 129.254  0.00  0.00    +0.000 A 
ATOM     30  C   UNL     1     -11.343   5.877 130.447  0.00  0.00    +0.000 A 
ATOM     31  H   UNL     1     -11.653   5.259 133.098  0.00  0.00    +0.000 HD
ENDBRANCH  20  21
ENDBRANCH   5  20
TORSDOF 5
ENDMDL
MODEL 3
REMARK VINA RESULT:      -9.7      4.688      9.702
REMARK  Name = Pexidartinib
REMARK  5 active torsions:
REMARK  status: ('A' for Active; 'I' for Inactive)
REMARK    1  A    between atoms: C_2  and  C_5
REMARK    2  A    between atoms: C_8  and  C_9
REMARK    3  A    between atoms: C_9  and  N_10
REMARK    4  A    between atoms: C_14  and  C_15
REMARK    5  A    between atoms: C_15  and  C_16
REMARK                            x       y       z     vdW  Elec       q    Type
REMARK                         _______ _______ _______ _____ _____    ______ ____
ROOT
ATOM      1  N   UNL     1      -6.955  -1.837 129.519  0.00  0.00    +0.000 N 
ATOM      2  C   UNL     1      -7.291  -0.548 130.028  0.00  0.00    +0.000 A 
ATOM      3  N   UNL     1      -6.641   0.573 129.666  0.00  0.00    +0.000 NA
ATOM      4  C   UNL     1      -7.062   1.835 130.214  0.00  0.00    +0.000 A 
ATOM      5  C   UNL     1      -8.130   2.132 131.146  0.00  0.00    +0.000 A 
ATOM      6  C   UNL     1      -8.656   0.908 131.583  0.00  0.00    +0.000 A 
ATOM      7  C   UNL     1      -8.260  -0.391 131.016  0.00  0.00    +0.000 A 
ATOM      8  H   UNL     1      -6.159  -1.774 128.890  0.00  0.00    +0.000 HD
ENDROOT
BRANCH   1   9
ATOM      9  C   UNL     1      -8.059  -2.665 128.969  0.00  0.00    +0.000 C 
BRANCH   9  13
ATOM     10  C   UNL     1      -8.518  -2.262 124.689  0.00  0.00    +0.000 A 
ATOM     11  C   UNL     1      -9.054  -3.387 125.312  0.00  0.00    +0.000 A 
ATOM     12  C   UNL     1      -8.915  -3.543 126.693  0.00  0.00    +0.000 A 
ATOM     13  C   UNL     1      -8.252  -2.582 127.456  0.00  0.00    +0.000 A 
ATOM     14  C   UNL     1      -7.746  -1.485 126.747  0.00  0.00    +0.000 A 
ATOM     15  N   UNL     1      -7.869  -1.301 125.405  0.00  0.00    +0.000 NA
BRANCH  10  17
ATOM     16  F   UNL     1      -9.621  -1.176 122.833  0.00  0.00    +0.000 F 
ATOM     17  C   UNL     1      -8.680  -2.097 123.184  0.00  0.00    +0.000 C 
ATOM     18  F   UNL     1      -9.032  -3.256 122.556  0.00  0.00    +0.000 F 
ATOM     19  F   UNL     1      -7.528  -1.688 122.568  0.00  0.00    +0.000 F 
ENDBRANCH  10  17
ENDBRANCH   9  13
ENDBRANCH   1   9
BRANCH   5  20
ATOM     20  C   UNL     1      -8.527   3.761 131.579  0.00  0.00    +0.000 C 
BRANCH  20  21
ATOM     21  C   UNL     1     -10.086   4.616 131.380  0.00  0.00    +0.000 A 
ATOM     22  C   UNL     1      -9.800   5.866 131.907  0.00  0.00    +0.000 A 
ATOM     23  N   UNL     1     -10.983   6.038 132.578  0.00  0.00    +0.000 N 
ATOM     24  C   UNL     1     -11.837   6.320 131.593  0.00  0.00    +0.000 A 
ATOM     25  N   UNL     1     -12.694   7.376 131.727  0.00  0.00    +0.000 NA
ATOM     26  C   UNL     1     -13.146   7.886 130.611  0.00  0.00    +0.000 A 
ATOM     27  C   UNL     1     -12.902   7.300 129.385  0.00  0.00    +0.000 A 
ATOM     28 CL   UNL     1     -13.656   8.128 128.045  0.00  0.00    +0.000 Cl
ATOM     29  C   UNL     1     -12.047   6.064 129.290  0.00  0.00    +0.000 A 
ATOM     30  C   UNL     1     -11.377   5.502 130.529  0.00  0.00    +0.000 A 
ATOM     31  H   UNL     1     -11.336   5.362 133.265  0.00  0.00    +0.000 HD
ENDBRANCH  20  21
ENDBRANCH   5  20
TORSDOF 5
ENDMDL
MODEL 4
REMARK VINA RESULT:      -9.5      2.350      2.974
REMARK  Name = Pexidartinib
REMARK  5 active torsions:
REMARK  status: ('A' for Active; 'I' for Inactive)
REMARK    1  A    between atoms: C_2  and  C_5
REMARK    2  A    between atoms: C_8  and  C_9
REMARK    3  A    between atoms: C_9  and  N_10
REMARK    4  A    between atoms: C_14  and  C_15
REMARK    5  A    between atoms: C_15  and  C_16
REMARK                            x       y       z     vdW  Elec       q    Type
REMARK                         _______ _______ _______ _____ _____    ______ ____
ROOT
ATOM      1  N   UNL     1      -7.119   4.674 132.099  0.00  0.00    +0.000 N 
ATOM      2  C   UNL     1      -7.454   3.854 130.980  0.00  0.00    +0.000 A 
ATOM      3  N   UNL     1      -8.130   2.698 131.097  0.00  0.00    +0.000 NA
ATOM      4  C   UNL     1      -8.443   1.946 129.911  0.00  0.00    +0.000 A 
ATOM      5  C   UNL     1      -8.139   2.231 128.524  0.00  0.00    +0.000 A 
ATOM      6  C   UNL     1      -7.315   3.364 128.501  0.00  0.00    +0.000 A 
ATOM      7  C   UNL     1      -7.006   4.164 129.698  0.00  0.00    +0.000 A 
ATOM      8  H   UNL     1      -7.437   4.241 132.962  0.00  0.00    +0.000 HD
ENDROOT
BRANCH   1   9
ATOM      9  C   UNL     1      -7.464   6.117 132.017  0.00  0.00    +0.000 C 
BRANCH   9  13
ATOM     10  C   UNL     1     -11.463   7.081 130.688  0.00  0.00    +0.000 A 
ATOM     11  C   UNL     1     -11.308   6.432 131.911  0.00  0.00    +0.000 A 
ATOM     12  C   UNL     1     -10.027   6.105 132.361  0.00  0.00    +0.000 A 
ATOM     13  C   UNL     1      -8.901   6.427 131.603  0.00  0.00    +0.000 A 
ATOM     14  C   UNL     1      -9.152   7.079 130.388  0.00  0.00    +0.000 A 
ATOM     15  N   UNL     1     -10.385   7.416 129.925  0.00  0.00    +0.000 NA
BRANCH  10  17
ATOM     16  F   UNL     1     -12.996   8.743 129.832  0.00  0.00    +0.000 F 
ATOM     17  C   UNL     1     -12.864   7.439 130.209  0.00  0.00    +0.000 C 
ATOM     18  F   UNL     1     -13.823   7.218 131.153  0.00  0.00    +0.000 F 
ATOM     19  F   UNL     1     -13.255   6.709 129.119  0.00  0.00    +0.000 F 
ENDBRANCH  10  17
ENDBRANCH   9  13
ENDBRANCH   1   9
BRANCH   5  20
ATOM     20  C   UNL     1      -8.724   1.224 127.243  0.00  0.00    +0.000 C 
BRANCH  20  21
ATOM     21  C   UNL     1      -8.126  -0.383 126.730  0.00  0.00    +0.000 A 
ATOM     22  C   UNL     1      -8.884  -0.625 125.595  0.00  0.00    +0.000 A 
ATOM     23  N   UNL     1      -9.130  -1.951 125.840  0.00  0.00    +0.000 N 
ATOM     24  C   UNL     1      -7.962  -2.523 125.544  0.00  0.00    +0.000 A 
ATOM     25  N   UNL     1      -7.940  -3.641 124.759  0.00  0.00    +0.000 NA
ATOM     26  C   UNL     1      -6.818  -3.871 124.129  0.00  0.00    +0.000 A 
ATOM     27  C   UNL     1      -5.679  -3.125 124.362  0.00  0.00    +0.000 A 
ATOM     28 CL   UNL     1      -4.289  -3.653 123.446  0.00  0.00    +0.000 Cl
ATOM     29  C   UNL     1      -5.712  -1.968 125.327  0.00  0.00    +0.000 A 
ATOM     30  C   UNL     1      -7.017  -1.561 125.986  0.00  0.00    +0.000 A 
ATOM     31  H   UNL     1      -9.557  -2.286 126.712  0.00  0.00    +0.000 HD
ENDBRANCH  20  21
ENDBRANCH   5  20
TORSDOF 5
ENDMDL
MODEL 5
REMARK VINA RESULT:      -9.3      2.973      3.591
REMARK  Name = Pexidartinib
REMARK  5 active torsions:
REMARK  status: ('A' for Active; 'I' for Inactive)
REMARK    1  A    between atoms: C_2  and  C_5
REMARK    2  A    between atoms: C_8  and  C_9
REMARK    3  A    between atoms: C_9  and  N_10
REMARK    4  A    between atoms: C_14  and  C_15
REMARK    5  A    between atoms: C_15  and  C_16
REMARK                            x       y       z     vdW  Elec       q    Type
REMARK                         _______ _______ _______ _____ _____    ______ ____
ROOT
ATOM      1  N   UNL     1     -10.183   4.852 131.914  0.00  0.00    +0.000 N 
ATOM      2  C   UNL     1      -9.657   3.602 131.470  0.00  0.00    +0.000 A 
ATOM      3  N   UNL     1      -9.593   3.255 130.172  0.00  0.00    +0.000 NA
ATOM      4  C   UNL     1      -9.026   1.982 129.814  0.00  0.00    +0.000 A 
ATOM      5  C   UNL     1      -8.477   0.940 130.657  0.00  0.00    +0.000 A 
ATOM      6  C   UNL     1      -8.713   1.312 131.988  0.00  0.00    +0.000 A 
ATOM      7  C   UNL     1      -9.264   2.620 132.376  0.00  0.00    +0.000 A 
ATOM      8  H   UNL     1     -10.514   5.397 131.123  0.00  0.00    +0.000 HD
ENDROOT
BRANCH   1   9
ATOM      9  C   UNL     1      -9.353   5.648 132.855  0.00  0.00    +0.000 C 
BRANCH   9  13
ATOM     10  C   UNL     1      -5.569   6.944 131.215  0.00  0.00    +0.000 A 
ATOM     11  C   UNL     1      -5.560   6.150 132.360  0.00  0.00    +0.000 A 
ATOM     12  C   UNL     1      -6.770   5.723 132.912  0.00  0.00    +0.000 A 
ATOM     13  C   UNL     1      -7.986   6.075 132.326  0.00  0.00    +0.000 A 
ATOM     14  C   UNL     1      -7.899   6.873 131.178  0.00  0.00    +0.000 A 
ATOM     15  N   UNL     1      -6.738   7.302 130.614  0.00  0.00    +0.000 NA
BRANCH  10  17
ATOM     16  F   UNL     1      -4.387   8.175 129.503  0.00  0.00    +0.000 F 
ATOM     17  C   UNL     1      -4.245   7.400 130.616  0.00  0.00    +0.000 C 
ATOM     18  F   UNL     1      -3.438   6.362 130.255  0.00  0.00    +0.000 F 
ATOM     19  F   UNL     1      -3.501   8.152 131.485  0.00  0.00    +0.000 F 
ENDBRANCH  10  17
ENDBRANCH   9  13
ENDBRANCH   1   9
BRANCH   5  20
ATOM     20  C   UNL     1      -7.739  -0.474 129.984  0.00  0.00    +0.000 C 
BRANCH  20  21
ATOM     21  C   UNL     1      -7.548  -0.916 128.260  0.00  0.00    +0.000 A 
ATOM     22  C   UNL     1      -6.983  -2.178 128.347  0.00  0.00    +0.000 A 
ATOM     23  N   UNL     1      -6.077  -2.024 127.330  0.00  0.00    +0.000 N 
ATOM     24  C   UNL     1      -6.843  -2.116 126.242  0.00  0.00    +0.000 A 
ATOM     25  N   UNL     1      -6.450  -2.917 125.207  0.00  0.00    +0.000 NA
ATOM     26  C   UNL     1      -7.404  -3.334 124.417  0.00  0.00    +0.000 A 
ATOM     27  C   UNL     1      -8.701  -2.871 124.524  0.00  0.00    +0.000 A 
ATOM     28 CL   UNL     1      -9.787  -3.528 123.324  0.00  0.00    +0.000 Cl
ATOM     29  C   UNL     1      -9.072  -1.894 125.609  0.00  0.00    +0.000 A 
ATOM     30  C   UNL     1      -8.044  -1.476 126.644  0.00  0.00    +0.000 A 
ATOM     31  H   UNL     1      -5.394  -1.258 127.305  0.00  0.00    +0.000 HD
ENDBRANCH  20  21
ENDBRANCH   5  20
TORSDOF 5
ENDMDL
MODEL 6
REMARK VINA RESULT:      -9.2      4.698      9.240
REMARK  Name = Pexidartinib
REMARK  5 active torsions:
REMARK  status: ('A' for Active; 'I' for Inactive)
REMARK    1  A    between atoms: C_2  and  C_5
REMARK    2  A    between atoms: C_8  and  C_9
REMARK    3  A    between atoms: C_9  and  N_10
REMARK    4  A    between atoms: C_14  and  C_15
REMARK    5  A    between atoms: C_15  and  C_16
REMARK                            x       y       z     vdW  Elec       q    Type
REMARK                         _______ _______ _______ _____ _____    ______ ____
ROOT
ATOM      1  N   UNL     1      -5.196  -1.925 131.035  0.00  0.00    +0.000 N 
ATOM      2  C   UNL     1      -6.247  -0.993 131.279  0.00  0.00    +0.000 A 
ATOM      3  N   UNL     1      -6.181   0.298 130.907  0.00  0.00    +0.000 NA
ATOM      4  C   UNL     1      -7.298   1.164 131.175  0.00  0.00    +0.000 A 
ATOM      5  C   UNL     1      -8.564   0.873 131.817  0.00  0.00    +0.000 A 
ATOM      6  C   UNL     1      -8.495  -0.440 132.302  0.00  0.00    +0.000 A 
ATOM      7  C   UNL     1      -7.375  -1.351 132.015  0.00  0.00    +0.000 A 
ATOM      8  H   UNL     1      -4.412  -1.465 130.580  0.00  0.00    +0.000 HD
ENDROOT
BRANCH   1   9
ATOM      9  C   UNL     1      -5.560  -3.213 130.389  0.00  0.00    +0.000 C 
BRANCH   9  13
ATOM     10  C   UNL     1      -8.158  -2.807 126.957  0.00  0.00    +0.000 A 
ATOM     11  C   UNL     1      -8.626  -3.511 128.066  0.00  0.00    +0.000 A 
ATOM     12  C   UNL     1      -7.804  -3.660 129.185  0.00  0.00    +0.000 A 
ATOM     13  C   UNL     1      -6.524  -3.107 129.208  0.00  0.00    +0.000 A 
ATOM     14  C   UNL     1      -6.137  -2.417 128.052  0.00  0.00    +0.000 A 
ATOM     15  N   UNL     1      -6.915  -2.250 126.949  0.00  0.00    +0.000 NA
BRANCH  10  17
ATOM     16  F   UNL     1      -8.565  -3.213 124.609  0.00  0.00    +0.000 F 
ATOM     17  C   UNL     1      -9.063  -2.644 125.743  0.00  0.00    +0.000 C 
ATOM     18  F   UNL     1      -9.311  -1.339 125.436  0.00  0.00    +0.000 F 
ATOM     19  F   UNL     1     -10.295  -3.214 125.920  0.00  0.00    +0.000 F 
ENDBRANCH  10  17
ENDBRANCH   9  13
ENDBRANCH   1   9
BRANCH   5  20
ATOM     20  C   UNL     1      -9.817   2.063 131.929  0.00  0.00    +0.000 C 
BRANCH  20  21
ATOM     21  C   UNL     1      -9.776   3.774 131.404  0.00  0.00    +0.000 A 
ATOM     22  C   UNL     1      -9.878   3.656 130.027  0.00  0.00    +0.000 A 
ATOM     23  N   UNL     1      -8.960   4.623 129.710  0.00  0.00    +0.000 N 
ATOM     24  C   UNL     1      -9.626   5.751 129.961  0.00  0.00    +0.000 A 
ATOM     25  N   UNL     1      -9.609   6.762 129.043  0.00  0.00    +0.000 NA
ATOM     26  C   UNL     1     -10.610   7.602 129.105  0.00  0.00    +0.000 A 
ATOM     27  C   UNL     1     -11.537   7.565 130.127  0.00  0.00    +0.000 A 
ATOM     28 CL   UNL     1     -12.747   8.821 130.028  0.00  0.00    +0.000 Cl
ATOM     29  C   UNL     1     -11.454   6.503 131.191  0.00  0.00    +0.000 A 
ATOM     30  C   UNL     1     -10.401   5.414 131.102  0.00  0.00    +0.000 A 
ATOM     31  H   UNL     1      -7.996   4.612 130.063  0.00  0.00    +0.000 HD
ENDBRANCH  20  21
ENDBRANCH   5  20
TORSDOF 5
ENDMDL
MODEL 7
REMARK VINA RESULT:      -9.2      7.567     11.018
REMARK  Name = Pexidartinib
REMARK  5 active torsions:
REMARK  status: ('A' for Active; 'I' for Inactive)
REMARK    1  A    between atoms: C_2  and  C_5
REMARK    2  A    between atoms: C_8  and  C_9
REMARK    3  A    between atoms: C_9  and  N_10
REMARK    4  A    between atoms: C_14  and  C_15
REMARK    5  A    between atoms: C_15  and  C_16
REMARK                            x       y       z     vdW  Elec       q    Type
REMARK                         _______ _______ _______ _____ _____    ______ ____
ROOT
ATOM      1  N   UNL     1      -7.626   5.257 131.617  0.00  0.00    +0.000 N 
ATOM      2  C   UNL     1      -6.353   5.771 132.003  0.00  0.00    +0.000 A 
ATOM      3  N   UNL     1      -5.477   6.292 131.125  0.00  0.00    +0.000 NA
ATOM      4  C   UNL     1      -4.224   6.808 131.607  0.00  0.00    +0.000 A 
ATOM      5  C   UNL     1      -3.703   6.870 132.957  0.00  0.00    +0.000 A 
ATOM      6  C   UNL     1      -4.602   6.181 133.783  0.00  0.00    +0.000 A 
ATOM      7  C   UNL     1      -5.902   5.671 133.317  0.00  0.00    +0.000 A 
ATOM      8  H   UNL     1      -7.743   5.319 130.608  0.00  0.00    +0.000 HD
ENDROOT
BRANCH   1   9
ATOM      9  C   UNL     1      -8.815   5.741 132.364  0.00  0.00    +0.000 C 
BRANCH   9  13
ATOM     10  C   UNL     1     -11.718   7.736 129.857  0.00  0.00    +0.000 A 
ATOM     11  C   UNL     1     -12.162   7.113 131.022  0.00  0.00    +0.000 A 
ATOM     12  C   UNL     1     -11.245   6.457 131.846  0.00  0.00    +0.000 A 
ATOM     13  C   UNL     1      -9.889   6.426 131.520  0.00  0.00    +0.000 A 
ATOM     14  C   UNL     1      -9.533   7.078 130.333  0.00  0.00    +0.000 A 
ATOM     15  N   UNL     1     -10.400   7.729 129.512  0.00  0.00    +0.000 NA
BRANCH  10  17
ATOM     16  F   UNL     1     -13.797   7.685 128.625  0.00  0.00    +0.000 F 
ATOM     17  C   UNL     1     -12.724   8.454 128.967  0.00  0.00    +0.000 C 
ATOM     18  F   UNL     1     -12.181   8.890 127.795  0.00  0.00    +0.000 F 
ATOM     19  F   UNL     1     -13.254   9.569 129.558  0.00  0.00    +0.000 F 
ENDBRANCH  10  17
ENDBRANCH   9  13
ENDBRANCH   1   9
BRANCH   5  20
ATOM     20  C   UNL     1      -2.198   7.648 133.312  0.00  0.00    +0.000 C 
BRANCH  20  21
ATOM     21  C   UNL     1      -1.793   9.388 133.205  0.00  0.00    +0.000 A 
ATOM     22  C   UNL     1      -2.018   9.817 134.504  0.00  0.00    +0.000 A 
ATOM     23  N   UNL     1      -2.621  11.005 134.183  0.00  0.00    +0.000 N 
ATOM     24  C   UNL     1      -1.590  11.759 133.797  0.00  0.00    +0.000 A 
ATOM     25  N   UNL     1      -1.468  13.031 134.278  0.00  0.00    +0.000 NA
ATOM     26  C   UNL     1      -0.261  13.533 134.260  0.00  0.00    +0.000 A 
ATOM     27  C   UNL     1       0.794  12.884 133.650  0.00  0.00    +0.000 A 
ATOM     28 CL   UNL     1       2.296  13.773 133.703  0.00  0.00    +0.000 Cl
ATOM     29  C   UNL     1       0.593  11.529 133.023  0.00  0.00    +0.000 A 
ATOM     30  C   UNL     1      -0.749  10.829 133.132  0.00  0.00    +0.000 A 
ATOM     31  H   UNL     1      -3.443  11.065 133.572  0.00  0.00    +0.000 HD
ENDBRANCH  20  21
ENDBRANCH   5  20
TORSDOF 5
ENDMDL
MODEL 8
REMARK VINA RESULT:      -9.1      8.469     11.119
REMARK  Name = Pexidartinib
REMARK  5 active torsions:
REMARK  status: ('A' for Active; 'I' for Inactive)
REMARK    1  A    between atoms: C_2  and  C_5
REMARK    2  A    between atoms: C_8  and  C_9
REMARK    3  A    between atoms: C_9  and  N_10
REMARK    4  A    between atoms: C_14  and  C_15
REMARK    5  A    between atoms: C_15  and  C_16
REMARK                            x       y       z     vdW  Elec       q    Type
REMARK                         _______ _______ _______ _____ _____    ______ ____
ROOT
ATOM      1  N   UNL     1      -2.026   8.481 132.686  0.00  0.00    +0.000 N 
ATOM      2  C   UNL     1      -3.168   7.636 132.553  0.00  0.00    +0.000 A 
ATOM      3  N   UNL     1      -3.486   6.690 133.454  0.00  0.00    +0.000 NA
ATOM      4  C   UNL     1      -4.670   5.898 133.250  0.00  0.00    +0.000 A 
ATOM      5  C   UNL     1      -5.642   5.941 132.178  0.00  0.00    +0.000 A 
ATOM      6  C   UNL     1      -5.163   6.841 131.216  0.00  0.00    +0.000 A 
ATOM      7  C   UNL     1      -3.972   7.682 131.417  0.00  0.00    +0.000 A 
ATOM      8  H   UNL     1      -1.501   8.238 133.522  0.00  0.00    +0.000 HD
ENDROOT
BRANCH   1   9
ATOM      9  C   UNL     1      -2.237   9.945 132.545  0.00  0.00    +0.000 C 
BRANCH   9  13
ATOM     10  C   UNL     1       1.215  12.275 133.702  0.00  0.00    +0.000 A 
ATOM     11  C   UNL     1       0.173  12.917 133.038  0.00  0.00    +0.000 A 
ATOM     12  C   UNL     1      -0.952  12.185 132.649  0.00  0.00    +0.000 A 
ATOM     13  C   UNL     1      -1.045  10.821 132.924  0.00  0.00    +0.000 A 
ATOM     14  C   UNL     1       0.048  10.260 133.596  0.00  0.00    +0.000 A 
ATOM     15  N   UNL     1       1.154  10.945 133.992  0.00  0.00    +0.000 NA
BRANCH  10  17
ATOM     16  F   UNL     1       3.610  12.402 134.004  0.00  0.00    +0.000 F 
ATOM     17  C   UNL     1       2.435  13.081 134.128  0.00  0.00    +0.000 C 
ATOM     18  F   UNL     1       2.372  13.497 135.426  0.00  0.00    +0.000 F 
ATOM     19  F   UNL     1       2.600  14.223 133.391  0.00  0.00    +0.000 F 
ENDBRANCH  10  17
ENDBRANCH   9  13
ENDBRANCH   1   9
BRANCH   5  20
ATOM     20  C   UNL     1      -7.064   4.954 132.205  0.00  0.00    +0.000 C 
BRANCH  20  21
ATOM     21  C   UNL     1      -8.711   5.360 131.633  0.00  0.00    +0.000 A 
ATOM     22  C   UNL     1      -9.234   6.042 132.721  0.00  0.00    +0.000 A 
ATOM     23  N   UNL     1     -10.486   5.484 132.679  0.00  0.00    +0.000 N 
ATOM     24  C   UNL     1     -11.047   6.106 131.641  0.00  0.00    +0.000 A 
ATOM     25  N   UNL     1     -12.307   6.620 131.765  0.00  0.00    +0.000 NA
ATOM     26  C   UNL     1     -12.610   7.587 130.939  0.00  0.00    +0.000 A 
ATOM     27  C   UNL     1     -11.773   7.960 129.906  0.00  0.00    +0.000 A 
ATOM     28 CL   UNL     1     -12.415   9.235 128.902  0.00  0.00    +0.000 Cl
ATOM     29  C   UNL     1     -10.437   7.286 129.730  0.00  0.00    +0.000 A 
ATOM     30  C   UNL     1      -9.964   6.253 130.736  0.00  0.00    +0.000 A 
ATOM     31  H   UNL     1     -10.644   4.470 132.701  0.00  0.00    +0.000 HD
ENDBRANCH  20  21
ENDBRANCH   5  20
TORSDOF 5
ENDMDL
MODEL 9
REMARK VINA RESULT:      -9.0      6.746      8.179
REMARK  Name = Pexidartinib
REMARK  5 active torsions:
REMARK  status: ('A' for Active; 'I' for Inactive)
REMARK    1  A    between atoms: C_2  and  C_5
REMARK    2  A    between atoms: C_8  and  C_9
REMARK    3  A    between atoms: C_9  and  N_10
REMARK    4  A    between atoms: C_14  and  C_15
REMARK    5  A    between atoms: C_15  and  C_16
REMARK                            x       y       z     vdW  Elec       q    Type
REMARK                         _______ _______ _______ _____ _____    ______ ____
ROOT
ATOM      1  N   UNL     1      -9.530   0.542 124.875  0.00  0.00    +0.000 N 
ATOM      2  C   UNL     1      -8.453  -0.193 125.453  0.00  0.00    +0.000 A 
ATOM      3  N   UNL     1      -7.841  -1.211 124.822  0.00  0.00    +0.000 NA
ATOM      4  C   UNL     1      -6.749  -1.884 125.473  0.00  0.00    +0.000 A 
ATOM      5  C   UNL     1      -6.151  -1.644 126.770  0.00  0.00    +0.000 A 
ATOM      6  C   UNL     1      -6.933  -0.677 127.417  0.00  0.00    +0.000 A 
ATOM      7  C   UNL     1      -8.036   0.044 126.761  0.00  0.00    +0.000 A 
ATOM      8  H   UNL     1      -9.766   0.165 123.961  0.00  0.00    +0.000 HD
ENDROOT
BRANCH   1   9
ATOM      9  C   UNL     1      -9.425   2.025 124.877  0.00  0.00    +0.000 C 
BRANCH   9  13
ATOM     10  C   UNL     1      -6.377   3.652 122.280  0.00  0.00    +0.000 A 
ATOM     11  C   UNL     1      -6.075   3.474 123.629  0.00  0.00    +0.000 A 
ATOM     12  C   UNL     1      -7.044   2.955 124.489  0.00  0.00    +0.000 A 
ATOM     13  C   UNL     1      -8.308   2.606 124.013  0.00  0.00    +0.000 A 
ATOM     14  C   UNL     1      -8.522   2.818 122.645  0.00  0.00    +0.000 A 
ATOM     15  N   UNL     1      -7.599   3.317 121.780  0.00  0.00    +0.000 NA
BRANCH  10  17
ATOM     16  F   UNL     1      -4.399   5.008 121.975  0.00  0.00    +0.000 F 
ATOM     17  C   UNL     1      -5.312   4.214 121.347  0.00  0.00    +0.000 C 
ATOM     18  F   UNL     1      -5.833   4.964 120.334  0.00  0.00    +0.000 F 
ATOM     19  F   UNL     1      -4.576   3.237 120.733  0.00  0.00    +0.000 F 
ENDBRANCH  10  17
ENDBRANCH   9  13
ENDBRANCH   1   9
BRANCH   5  20
ATOM     20  C   UNL     1      -4.754  -2.518 127.299  0.00  0.00    +0.000 C 
BRANCH  20  21
ATOM     21  C   UNL     1      -4.450  -3.268 128.896  0.00  0.00    +0.000 A 
ATOM     22  C   UNL     1      -4.151  -2.166 129.681  0.00  0.00    +0.000 A 
ATOM     23  N   UNL     1      -3.119  -2.736 130.380  0.00  0.00    +0.000 N 
ATOM     24  C   UNL     1      -3.755  -3.542 131.231  0.00  0.00    +0.000 A 
ATOM     25  N   UNL     1      -3.403  -3.540 132.551  0.00  0.00    +0.000 NA
ATOM     26  C   UNL     1      -4.320  -3.958 133.385  0.00  0.00    +0.000 A 
ATOM     27  C   UNL     1      -5.508  -4.513 132.951  0.00  0.00    +0.000 A 
ATOM     28 CL   UNL     1      -6.550  -5.050 134.245  0.00  0.00    +0.000 Cl
ATOM     29  C   UNL     1      -5.810  -4.606 131.478  0.00  0.00    +0.000 A 
ATOM     30  C   UNL     1      -4.850  -4.014 130.463  0.00  0.00    +0.000 A 
ATOM     31  H   UNL     1      -2.304  -3.160 129.922  0.00  0.00    +0.000 HD
ENDBRANCH  20  21
ENDBRANCH   5  20
TORSDOF 5
ENDMDL
