MODEL 1
REMARK VINA RESULT:      -8.1      0.000      0.000
REMARK  Name = Phenprocoumon
REMARK  5 active torsions:
REMARK  status: ('A' for Active; 'I' for Inactive)
REMARK    1  A    between atoms: C_1  and  C_2
REMARK    2  A    between atoms: C_2  and  C_3
REMARK    3  A    between atoms: C_3  and  C_4
REMARK    4  A    between atoms: C_3  and  C_10
REMARK    5  A    between atoms: C_11  and  O_12
REMARK                            x       y       z     vdW  Elec       q    Type
REMARK                         _______ _______ _______ _____ _____    ______ ____
ROOT
ATOM      1  C   UNL     1      -9.966   6.286 130.055  0.00  0.00    +0.000 A 
ATOM      2  C   UNL     1     -11.095   6.678 130.684  0.00  0.00    +0.000 A 
ATOM      3  C   UNL     1     -12.175   7.228 129.867  0.00  0.00    +0.000 A 
ATOM      4  C   UNL     1     -11.926   8.500 129.379  0.00  0.00    +0.000 A 
ATOM      5  O   UNL     1     -10.640   8.055 128.456  0.00  0.00    +0.000 OA
ATOM      6  C   UNL     1      -9.947   6.781 128.633  0.00  0.00    +0.000 A 
ATOM      7  O   UNL     1      -9.448   6.146 127.738  0.00  0.00    +0.000 OA
ATOM      8  C   UNL     1     -12.939   9.143 128.620  0.00  0.00    +0.000 A 
ATOM      9  C   UNL     1     -13.887   8.359 127.956  0.00  0.00    +0.000 A 
ATOM     10  C   UNL     1     -13.758   6.980 128.028  0.00  0.00    +0.000 A 
ATOM     11  C   UNL     1     -12.891   6.423 128.974  0.00  0.00    +0.000 A 
ENDROOT
BRANCH   2  12
ATOM     12  O   UNL     1     -11.260   6.894 132.035  0.00  0.00    +0.000 OA
ATOM     13  H   UNL     1     -10.900   7.763 132.289  0.00  0.00    +0.000 HD
ENDBRANCH   2  12
BRANCH   1  14
ATOM     14  C   UNL     1      -8.679   5.714 130.700  0.00  0.00    +0.000 C 
BRANCH  14  15
ATOM     15  C   UNL     1      -9.022   4.364 131.342  0.00  0.00    +0.000 A 
ATOM     16  C   UNL     1      -9.140   4.123 132.713  0.00  0.00    +0.000 A 
ATOM     17  C   UNL     1      -9.288   2.826 133.205  0.00  0.00    +0.000 A 
ATOM     18  C   UNL     1      -9.469   1.761 132.331  0.00  0.00    +0.000 A 
ATOM     19  C   UNL     1      -9.453   1.983 130.972  0.00  0.00    +0.000 A 
ATOM     20  C   UNL     1      -9.251   3.264 130.506  0.00  0.00    +0.000 A 
ENDBRANCH  14  15
BRANCH  14  22
ATOM     21  C   UNL     1      -6.373   6.913 131.072  0.00  0.00    +0.000 C 
ATOM     22  C   UNL     1      -7.797   6.628 131.625  0.00  0.00    +0.000 C 
ENDBRANCH  14  22
ENDBRANCH   1  14
TORSDOF 4
ENDMDL
MODEL 2
REMARK VINA RESULT:      -8.0      7.548     10.155
REMARK  Name = Phenprocoumon
REMARK  5 active torsions:
REMARK  status: ('A' for Active; 'I' for Inactive)
REMARK    1  A    between atoms: C_1  and  C_2
REMARK    2  A    between atoms: C_2  and  C_3
REMARK    3  A    between atoms: C_3  and  C_4
REMARK    4  A    between atoms: C_3  and  C_10
REMARK    5  A    between atoms: C_11  and  O_12
REMARK                            x       y       z     vdW  Elec       q    Type
REMARK                         _______ _______ _______ _____ _____    ______ ____
ROOT
ATOM      1  C   UNL     1      -8.504   1.263 124.051  0.00  0.00    +0.000 A 
ATOM      2  C   UNL     1      -7.578   0.281 124.112  0.00  0.00    +0.000 A 
ATOM      3  C   UNL     1      -8.052  -1.100 124.153  0.00  0.00    +0.000 A 
ATOM      4  C   UNL     1      -8.620  -1.471 125.360  0.00  0.00    +0.000 A 
ATOM      5  O   UNL     1      -9.871  -0.407 125.266  0.00  0.00    +0.000 OA
ATOM      6  C   UNL     1      -9.878   0.721 124.337  0.00  0.00    +0.000 A 
ATOM      7  O   UNL     1     -10.866   1.157 123.801  0.00  0.00    +0.000 OA
ATOM      8  C   UNL     1      -9.060  -2.811 125.518  0.00  0.00    +0.000 A 
ATOM      9  C   UNL     1      -9.398  -3.551 124.380  0.00  0.00    +0.000 A 
ATOM     10  C   UNL     1      -9.336  -2.916 123.149  0.00  0.00    +0.000 A 
ATOM     11  C   UNL     1      -8.676  -1.687 123.045  0.00  0.00    +0.000 A 
ENDROOT
BRANCH   2  12
ATOM     12  O   UNL     1      -6.244   0.417 124.429  0.00  0.00    +0.000 OA
ATOM     13  H   UNL     1      -5.699  -0.176 123.880  0.00  0.00    +0.000 HD
ENDBRANCH   2  12
BRANCH   1  14
ATOM     14  C   UNL     1      -8.254   2.792 124.038  0.00  0.00    +0.000 C 
BRANCH  14  15
ATOM     15  C   UNL     1      -7.727   3.181 122.651  0.00  0.00    +0.000 A 
ATOM     16  C   UNL     1      -6.383   3.351 122.310  0.00  0.00    +0.000 A 
ATOM     17  C   UNL     1      -6.016   3.871 121.069  0.00  0.00    +0.000 A 
ATOM     18  C   UNL     1      -6.976   4.092 120.090  0.00  0.00    +0.000 A 
ATOM     19  C   UNL     1      -8.302   3.843 120.365  0.00  0.00    +0.000 A 
ATOM     20  C   UNL     1      -8.649   3.381 121.615  0.00  0.00    +0.000 A 
ENDBRANCH  14  15
BRANCH  14  22
ATOM     21  C   UNL     1      -8.000   4.848 125.651  0.00  0.00    +0.000 C 
ATOM     22  C   UNL     1      -7.451   3.462 125.210  0.00  0.00    +0.000 C 
ENDBRANCH  14  22
ENDBRANCH   1  14
TORSDOF 4
ENDMDL
MODEL 3
REMARK VINA RESULT:      -8.0      0.923      2.851
REMARK  Name = Phenprocoumon
REMARK  5 active torsions:
REMARK  status: ('A' for Active; 'I' for Inactive)
REMARK    1  A    between atoms: C_1  and  C_2
REMARK    2  A    between atoms: C_2  and  C_3
REMARK    3  A    between atoms: C_3  and  C_4
REMARK    4  A    between atoms: C_3  and  C_10
REMARK    5  A    between atoms: C_11  and  O_12
REMARK                            x       y       z     vdW  Elec       q    Type
REMARK                         _______ _______ _______ _____ _____    ______ ____
ROOT
ATOM      1  C   UNL     1     -10.505   5.555 130.266  0.00  0.00    +0.000 A 
ATOM      2  C   UNL     1     -11.655   6.040 130.786  0.00  0.00    +0.000 A 
ATOM      3  C   UNL     1     -12.432   6.970 129.970  0.00  0.00    +0.000 A 
ATOM      4  C   UNL     1     -11.874   8.232 129.858  0.00  0.00    +0.000 A 
ATOM      5  O   UNL     1     -10.522   7.725 129.070  0.00  0.00    +0.000 OA
ATOM      6  C   UNL     1     -10.111   6.323 129.033  0.00  0.00    +0.000 A 
ATOM      7  O   UNL     1      -9.557   5.799 128.099  0.00  0.00    +0.000 OA
ATOM      8  C   UNL     1     -12.584   9.223 129.132  0.00  0.00    +0.000 A 
ATOM      9  C   UNL     1     -13.497   8.821 128.152  0.00  0.00    +0.000 A 
ATOM     10  C   UNL     1     -13.625   7.463 127.900  0.00  0.00    +0.000 A 
ATOM     11  C   UNL     1     -13.079   6.545 128.804  0.00  0.00    +0.000 A 
ENDROOT
BRANCH   2  12
ATOM     12  O   UNL     1     -12.052   5.996 132.105  0.00  0.00    +0.000 OA
ATOM     13  H   UNL     1     -11.335   6.301 132.689  0.00  0.00    +0.000 HD
ENDBRANCH   2  12
BRANCH   1  14
ATOM     14  C   UNL     1      -9.496   4.596 130.945  0.00  0.00    +0.000 C 
BRANCH  14  15
ATOM     15  C   UNL     1      -8.107   5.245 130.894  0.00  0.00    +0.000 A 
ATOM     16  C   UNL     1      -7.771   6.490 131.431  0.00  0.00    +0.000 A 
ATOM     17  C   UNL     1      -6.525   7.066 131.185  0.00  0.00    +0.000 A 
ATOM     18  C   UNL     1      -5.538   6.347 130.523  0.00  0.00    +0.000 A 
ATOM     19  C   UNL     1      -5.810   5.078 130.063  0.00  0.00    +0.000 A 
ATOM     20  C   UNL     1      -7.065   4.547 130.269  0.00  0.00    +0.000 A 
ENDBRANCH  14  15
BRANCH  14  22
ATOM     21  C   UNL     1      -9.889   2.112 131.699  0.00  0.00    +0.000 C 
ATOM     22  C   UNL     1      -9.478   3.075 130.550  0.00  0.00    +0.000 C 
ENDBRANCH  14  22
ENDBRANCH   1  14
TORSDOF 4
ENDMDL
MODEL 4
REMARK VINA RESULT:      -7.4      7.531     10.085
REMARK  Name = Phenprocoumon
REMARK  5 active torsions:
REMARK  status: ('A' for Active; 'I' for Inactive)
REMARK    1  A    between atoms: C_1  and  C_2
REMARK    2  A    between atoms: C_2  and  C_3
REMARK    3  A    between atoms: C_3  and  C_4
REMARK    4  A    between atoms: C_3  and  C_10
REMARK    5  A    between atoms: C_11  and  O_12
REMARK                            x       y       z     vdW  Elec       q    Type
REMARK                         _______ _______ _______ _____ _____    ______ ____
ROOT
ATOM      1  C   UNL     1      -8.355   1.523 124.182  0.00  0.00    +0.000 A 
ATOM      2  C   UNL     1      -9.530   0.856 124.186  0.00  0.00    +0.000 A 
ATOM      3  C   UNL     1      -9.486  -0.600 124.305  0.00  0.00    +0.000 A 
ATOM      4  C   UNL     1      -9.045  -1.250 123.165  0.00  0.00    +0.000 A 
ATOM      5  O   UNL     1      -7.536  -0.598 123.199  0.00  0.00    +0.000 OA
ATOM      6  C   UNL     1      -7.201   0.572 124.008  0.00  0.00    +0.000 A 
ATOM      7  O   UNL     1      -6.132   0.754 124.534  0.00  0.00    +0.000 OA
ATOM      8  C   UNL     1      -9.021  -2.669 123.163  0.00  0.00    +0.000 A 
ATOM      9  C   UNL     1      -8.926  -3.347 124.383  0.00  0.00    +0.000 A 
ATOM     10  C   UNL     1      -8.806  -2.591 125.539  0.00  0.00    +0.000 A 
ATOM     11  C   UNL     1      -9.073  -1.218 125.491  0.00  0.00    +0.000 A 
ENDROOT
BRANCH   2  12
ATOM     12  O   UNL     1     -10.761   1.342 123.805  0.00  0.00    +0.000 OA
ATOM     13  H   UNL     1     -11.297   0.638 123.398  0.00  0.00    +0.000 HD
ENDBRANCH   2  12
BRANCH   1  14
ATOM     14  C   UNL     1      -8.140   3.049 124.029  0.00  0.00    +0.000 C 
BRANCH  14  15
ATOM     15  C   UNL     1      -7.659   3.326 122.599  0.00  0.00    +0.000 A 
ATOM     16  C   UNL     1      -6.326   3.438 122.197  0.00  0.00    +0.000 A 
ATOM     17  C   UNL     1      -5.997   3.859 120.908  0.00  0.00    +0.000 A 
ATOM     18  C   UNL     1      -6.990   4.034 119.953  0.00  0.00    +0.000 A 
ATOM     19  C   UNL     1      -8.309   3.839 120.295  0.00  0.00    +0.000 A 
ATOM     20  C   UNL     1      -8.617   3.475 121.588  0.00  0.00    +0.000 A 
ENDBRANCH  14  15
BRANCH  14  22
ATOM     21  C   UNL     1      -8.152   4.874 125.918  0.00  0.00    +0.000 C 
ATOM     22  C   UNL     1      -7.319   3.835 125.115  0.00  0.00    +0.000 C 
ENDBRANCH  14  22
ENDBRANCH   1  14
TORSDOF 4
ENDMDL
MODEL 5
REMARK VINA RESULT:      -7.2      2.055      3.411
REMARK  Name = Phenprocoumon
REMARK  5 active torsions:
REMARK  status: ('A' for Active; 'I' for Inactive)
REMARK    1  A    between atoms: C_1  and  C_2
REMARK    2  A    between atoms: C_2  and  C_3
REMARK    3  A    between atoms: C_3  and  C_4
REMARK    4  A    between atoms: C_3  and  C_10
REMARK    5  A    between atoms: C_11  and  O_12
REMARK                            x       y       z     vdW  Elec       q    Type
REMARK                         _______ _______ _______ _____ _____    ______ ____
ROOT
ATOM      1  C   UNL     1      -9.518   4.867 130.813  0.00  0.00    +0.000 A 
ATOM      2  C   UNL     1     -10.788   4.733 130.371  0.00  0.00    +0.000 A 
ATOM      3  C   UNL     1     -11.595   5.944 130.239  0.00  0.00    +0.000 A 
ATOM      4  C   UNL     1     -12.001   6.490 131.445  0.00  0.00    +0.000 A 
ATOM      5  O   UNL     1     -10.482   6.833 131.971  0.00  0.00    +0.000 OA
ATOM      6  C   UNL     1      -9.287   6.248 131.366  0.00  0.00    +0.000 A 
ATOM      7  O   UNL     1      -8.228   6.813 131.263  0.00  0.00    +0.000 OA
ATOM      8  C   UNL     1     -12.837   7.637 131.420  0.00  0.00    +0.000 A 
ATOM      9  C   UNL     1     -12.807   8.472 130.299  0.00  0.00    +0.000 A 
ATOM     10  C   UNL     1     -11.916   8.165 129.282  0.00  0.00    +0.000 A 
ATOM     11  C   UNL     1     -11.303   6.907 129.266  0.00  0.00    +0.000 A 
ENDROOT
BRANCH   2  12
ATOM     12  O   UNL     1     -11.523   3.569 130.298  0.00  0.00    +0.000 OA
ATOM     13  H   UNL     1     -12.476   3.767 130.278  0.00  0.00    +0.000 HD
ENDBRANCH   2  12
BRANCH   1  14
ATOM     14  C   UNL     1      -8.488   3.740 131.071  0.00  0.00    +0.000 C 
BRANCH  14  15
ATOM     15  C   UNL     1      -8.152   3.077 129.729  0.00  0.00    +0.000 A 
ATOM     16  C   UNL     1      -7.664   3.736 128.597  0.00  0.00    +0.000 A 
ATOM     17  C   UNL     1      -7.551   3.075 127.374  0.00  0.00    +0.000 A 
ATOM     18  C   UNL     1      -7.783   1.707 127.292  0.00  0.00    +0.000 A 
ATOM     19  C   UNL     1      -8.175   1.013 128.414  0.00  0.00    +0.000 A 
ATOM     20  C   UNL     1      -8.333   1.694 129.601  0.00  0.00    +0.000 A 
ENDBRANCH  14  15
BRANCH  14  22
ATOM     21  C   UNL     1      -9.200   3.332 133.566  0.00  0.00    +0.000 C 
ATOM     22  C   UNL     1      -8.740   2.700 132.222  0.00  0.00    +0.000 C 
ENDBRANCH  14  22
ENDBRANCH   1  14
TORSDOF 4
ENDMDL
MODEL 6
REMARK VINA RESULT:      -7.1      7.518      9.253
REMARK  Name = Phenprocoumon
REMARK  5 active torsions:
REMARK  status: ('A' for Active; 'I' for Inactive)
REMARK    1  A    between atoms: C_1  and  C_2
REMARK    2  A    between atoms: C_2  and  C_3
REMARK    3  A    between atoms: C_3  and  C_4
REMARK    4  A    between atoms: C_3  and  C_10
REMARK    5  A    between atoms: C_11  and  O_12
REMARK                            x       y       z     vdW  Elec       q    Type
REMARK                         _______ _______ _______ _____ _____    ______ ____
ROOT
ATOM      1  C   UNL     1      -8.271  -0.768 125.175  0.00  0.00    +0.000 A 
ATOM      2  C   UNL     1      -7.039  -0.619 124.640  0.00  0.00    +0.000 A 
ATOM      3  C   UNL     1      -6.609   0.733 124.290  0.00  0.00    +0.000 A 
ATOM      4  C   UNL     1      -7.231   1.256 123.169  0.00  0.00    +0.000 A 
ATOM      5  O   UNL     1      -8.739   1.256 123.825  0.00  0.00    +0.000 OA
ATOM      6  C   UNL     1      -9.075   0.496 125.027  0.00  0.00    +0.000 A 
ATOM      7  O   UNL     1      -9.875   0.850 125.856  0.00  0.00    +0.000 OA
ATOM      8  C   UNL     1      -6.838   2.542 122.716  0.00  0.00    +0.000 A 
ATOM      9  C   UNL     1      -6.271   3.437 123.627  0.00  0.00    +0.000 A 
ATOM     10  C   UNL     1      -6.168   3.039 124.952  0.00  0.00    +0.000 A 
ATOM     11  C   UNL     1      -6.352   1.691 125.277  0.00  0.00    +0.000 A 
ENDROOT
BRANCH   2  12
ATOM     12  O   UNL     1      -6.238  -1.608 124.113  0.00  0.00    +0.000 OA
ATOM     13  H   UNL     1      -6.017  -1.412 123.185  0.00  0.00    +0.000 HD
ENDBRANCH   2  12
BRANCH   1  14
ATOM     14  C   UNL     1      -8.963  -2.091 125.588  0.00  0.00    +0.000 C 
BRANCH  14  15
ATOM     15  C   UNL     1      -8.530  -2.434 127.019  0.00  0.00    +0.000 A 
ATOM     16  C   UNL     1      -8.774  -3.644 127.674  0.00  0.00    +0.000 A 
ATOM     17  C   UNL     1      -8.489  -3.797 129.031  0.00  0.00    +0.000 A 
ATOM     18  C   UNL     1      -7.819  -2.796 129.723  0.00  0.00    +0.000 A 
ATOM     19  C   UNL     1      -7.481  -1.628 129.079  0.00  0.00    +0.000 A 
ATOM     20  C   UNL     1      -7.819  -1.475 127.752  0.00  0.00    +0.000 A 
ENDBRANCH  14  15
BRANCH  14  22
ATOM     21  C   UNL     1      -9.459  -3.041 123.190  0.00  0.00    +0.000 C 
ATOM     22  C   UNL     1      -8.923  -3.329 124.621  0.00  0.00    +0.000 C 
ENDBRANCH  14  22
ENDBRANCH   1  14
TORSDOF 4
ENDMDL
MODEL 7
REMARK VINA RESULT:      -6.9      8.077     10.727
REMARK  Name = Phenprocoumon
REMARK  5 active torsions:
REMARK  status: ('A' for Active; 'I' for Inactive)
REMARK    1  A    between atoms: C_1  and  C_2
REMARK    2  A    between atoms: C_2  and  C_3
REMARK    3  A    between atoms: C_3  and  C_4
REMARK    4  A    between atoms: C_3  and  C_10
REMARK    5  A    between atoms: C_11  and  O_12
REMARK                            x       y       z     vdW  Elec       q    Type
REMARK                         _______ _______ _______ _____ _____    ______ ____
ROOT
ATOM      1  C   UNL     1      -6.356  -1.817 125.829  0.00  0.00    +0.000 A 
ATOM      2  C   UNL     1      -5.725  -1.271 126.892  0.00  0.00    +0.000 A 
ATOM      3  C   UNL     1      -6.139  -1.704 128.225  0.00  0.00    +0.000 A 
ATOM      4  C   UNL     1      -7.372  -1.217 128.623  0.00  0.00    +0.000 A 
ATOM      5  O   UNL     1      -8.223  -1.992 127.449  0.00  0.00    +0.000 OA
ATOM      6  C   UNL     1      -7.587  -2.566 126.265  0.00  0.00    +0.000 A 
ATOM      7  O   UNL     1      -7.962  -3.567 125.707  0.00  0.00    +0.000 OA
ATOM      8  C   UNL     1      -7.835  -1.536 129.926  0.00  0.00    +0.000 A 
ATOM      9  C   UNL     1      -7.351  -2.687 130.555  0.00  0.00    +0.000 A 
ATOM     10  C   UNL     1      -6.475  -3.495 129.847  0.00  0.00    +0.000 A 
ATOM     11  C   UNL     1      -5.884  -3.004 128.677  0.00  0.00    +0.000 A 
ENDROOT
BRANCH   2  12
ATOM     12  O   UNL     1      -4.934  -0.143 126.897  0.00  0.00    +0.000 OA
ATOM     13  H   UNL     1      -5.464   0.648 126.695  0.00  0.00    +0.000 HD
ENDBRANCH   2  12
BRANCH   1  14
ATOM     14  C   UNL     1      -6.127  -1.495 124.331  0.00  0.00    +0.000 C 
BRANCH  14  15
ATOM     15  C   UNL     1      -7.343  -0.716 123.815  0.00  0.00    +0.000 A 
ATOM     16  C   UNL     1      -7.601   0.637 124.051  0.00  0.00    +0.000 A 
ATOM     17  C   UNL     1      -8.818   1.211 123.682  0.00  0.00    +0.000 A 
ATOM     18  C   UNL     1      -9.739   0.484 122.938  0.00  0.00    +0.000 A 
ATOM     19  C   UNL     1      -9.471  -0.825 122.609  0.00  0.00    +0.000 A 
ATOM     20  C   UNL     1      -8.287  -1.390 123.030  0.00  0.00    +0.000 A 
ENDBRANCH  14  15
BRANCH  14  22
ATOM     21  C   UNL     1      -4.838  -3.762 124.024  0.00  0.00    +0.000 C 
ATOM     22  C   UNL     1      -5.665  -2.633 123.350  0.00  0.00    +0.000 C 
ENDBRANCH  14  22
ENDBRANCH   1  14
TORSDOF 4
ENDMDL
MODEL 8
REMARK VINA RESULT:      -6.8      2.026      5.991
REMARK  Name = Phenprocoumon
REMARK  5 active torsions:
REMARK  status: ('A' for Active; 'I' for Inactive)
REMARK    1  A    between atoms: C_1  and  C_2
REMARK    2  A    between atoms: C_2  and  C_3
REMARK    3  A    between atoms: C_3  and  C_4
REMARK    4  A    between atoms: C_3  and  C_10
REMARK    5  A    between atoms: C_11  and  O_12
REMARK                            x       y       z     vdW  Elec       q    Type
REMARK                         _______ _______ _______ _____ _____    ______ ____
ROOT
ATOM      1  C   UNL     1      -8.711   4.759 131.505  0.00  0.00    +0.000 A 
ATOM      2  C   UNL     1      -8.960   3.938 130.460  0.00  0.00    +0.000 A 
ATOM      3  C   UNL     1      -8.846   2.499 130.683  0.00  0.00    +0.000 A 
ATOM      4  C   UNL     1      -7.545   2.045 130.815  0.00  0.00    +0.000 A 
ATOM      5  O   UNL     1      -7.232   2.892 132.188  0.00  0.00    +0.000 OA
ATOM      6  C   UNL     1      -8.070   4.002 132.638  0.00  0.00    +0.000 A 
ATOM      7  O   UNL     1      -8.282   4.272 133.793  0.00  0.00    +0.000 OA
ATOM      8  C   UNL     1      -7.328   0.652 130.977  0.00  0.00    +0.000 A 
ATOM      9  C   UNL     1      -8.354  -0.136 131.509  0.00  0.00    +0.000 A 
ATOM     10  C   UNL     1      -9.523   0.498 131.904  0.00  0.00    +0.000 A 
ATOM     11  C   UNL     1      -9.756   1.817 131.500  0.00  0.00    +0.000 A 
ENDROOT
BRANCH   2  12
ATOM     12  O   UNL     1      -9.030   4.288 129.129  0.00  0.00    +0.000 OA
ATOM     13  H   UNL     1      -8.296   4.882 128.892  0.00  0.00    +0.000 HD
ENDBRANCH   2  12
BRANCH   1  14
ATOM     14  C   UNL     1      -8.727   6.307 131.510  0.00  0.00    +0.000 C 
BRANCH  14  15
ATOM     15  C   UNL     1     -10.124   6.775 131.083  0.00  0.00    +0.000 A 
ATOM     16  C   UNL     1     -11.302   6.587 131.810  0.00  0.00    +0.000 A 
ATOM     17  C   UNL     1     -12.545   6.899 131.259  0.00  0.00    +0.000 A 
ATOM     18  C   UNL     1     -12.625   7.541 130.030  0.00  0.00    +0.000 A 
ATOM     19  C   UNL     1     -11.474   7.826 129.331  0.00  0.00    +0.000 A 
ATOM     20  C   UNL     1     -10.259   7.461 129.869  0.00  0.00    +0.000 A 
ENDBRANCH  14  15
BRANCH  14  22
ATOM     21  C   UNL     1      -6.145   6.733 131.298  0.00  0.00    +0.000 C 
ATOM     22  C   UNL     1      -7.571   7.103 130.803  0.00  0.00    +0.000 C 
ENDBRANCH  14  22
ENDBRANCH   1  14
TORSDOF 4
ENDMDL
MODEL 9
REMARK VINA RESULT:      -6.8      2.230      3.505
REMARK  Name = Phenprocoumon
REMARK  5 active torsions:
REMARK  status: ('A' for Active; 'I' for Inactive)
REMARK    1  A    between atoms: C_1  and  C_2
REMARK    2  A    between atoms: C_2  and  C_3
REMARK    3  A    between atoms: C_3  and  C_4
REMARK    4  A    between atoms: C_3  and  C_10
REMARK    5  A    between atoms: C_11  and  O_12
REMARK                            x       y       z     vdW  Elec       q    Type
REMARK                         _______ _______ _______ _____ _____    ______ ____
ROOT
ATOM      1  C   UNL     1      -9.527   4.754 130.812  0.00  0.00    +0.000 A 
ATOM      2  C   UNL     1      -9.366   6.061 131.116  0.00  0.00    +0.000 A 
ATOM      3  C   UNL     1     -10.512   6.948 130.937  0.00  0.00    +0.000 A 
ATOM      4  C   UNL     1     -10.816   7.225 129.614  0.00  0.00    +0.000 A 
ATOM      5  O   UNL     1     -11.189   5.673 129.221  0.00  0.00    +0.000 OA
ATOM      6  C   UNL     1     -10.811   4.535 130.057  0.00  0.00    +0.000 A 
ATOM      7  O   UNL     1     -11.471   3.534 130.185  0.00  0.00    +0.000 OA
ATOM      8  C   UNL     1     -11.879   8.124 129.339  0.00  0.00    +0.000 A 
ATOM      9  C   UNL     1     -12.888   8.292 130.291  0.00  0.00    +0.000 A 
ATOM     10  C   UNL     1     -12.828   7.525 131.445  0.00  0.00    +0.000 A 
ATOM     11  C   UNL     1     -11.644   6.845 131.754  0.00  0.00    +0.000 A 
ENDROOT
BRANCH   2  12
ATOM     12  O   UNL     1      -8.175   6.727 131.304  0.00  0.00    +0.000 OA
ATOM     13  H   UNL     1      -7.606   6.641 130.518  0.00  0.00    +0.000 HD
ENDBRANCH   2  12
BRANCH   1  14
ATOM     14  C   UNL     1      -8.461   3.633 130.879  0.00  0.00    +0.000 C 
BRANCH  14  15
ATOM     15  C   UNL     1      -8.229   3.103 129.458  0.00  0.00    +0.000 A 
ATOM     16  C   UNL     1      -8.552   1.822 129.006  0.00  0.00    +0.000 A 
ATOM     17  C   UNL     1      -8.147   1.381 127.746  0.00  0.00    +0.000 A 
ATOM     18  C   UNL     1      -7.541   2.260 126.857  0.00  0.00    +0.000 A 
ATOM     19  C   UNL     1      -7.294   3.558 127.242  0.00  0.00    +0.000 A 
ATOM     20  C   UNL     1      -7.653   3.959 128.510  0.00  0.00    +0.000 A 
ENDBRANCH  14  15
BRANCH  14  22
ATOM     21  C   UNL     1      -9.247   2.935 133.286  0.00  0.00    +0.000 C 
ATOM     22  C   UNL     1      -8.598   2.487 131.946  0.00  0.00    +0.000 C 
ENDBRANCH  14  22
ENDBRANCH   1  14
TORSDOF 4
ENDMDL
