MODEL 1
REMARK VINA RESULT:      -5.7      0.000      0.000
REMARK  Name = Phenylalanine
REMARK  5 active torsions:
REMARK  status: ('A' for Active; 'I' for Inactive)
REMARK    1  A    between atoms: N_1  and  CA_2
REMARK    2  A    between atoms: CA_2  and  CB_3
REMARK    3  A    between atoms: CA_2  and  C_10
REMARK    4  A    between atoms: CB_3  and  CG_4
REMARK    5  A    between atoms: C_10  and  O_11
REMARK                            x       y       z     vdW  Elec       q    Type
REMARK                         _______ _______ _______ _____ _____    ______ ____
ROOT
ATOM      1  CA  PHE A   1     -10.916   7.710 126.682  0.00  0.00    +0.000 C 
ENDROOT
BRANCH   1   2
ATOM      2  N   PHE A   1     -10.868   8.053 125.225  0.00  0.00    +0.000 NA
ATOM      3  H1  PHE A   1     -11.844   7.985 124.895  0.00  0.00    +0.000 HD
ATOM      4  H2  PHE A   1     -10.419   7.285 124.722  0.00  0.00    +0.000 HD
ENDBRANCH   1   2
BRANCH   1   5
ATOM      5  C   PHE A   1      -9.931   6.584 127.001  0.00  0.00    +0.000 C 
ATOM      6  OXT PHE A   1      -9.660   6.212 128.139  0.00  0.00    +0.000 OA
BRANCH   5   7
ATOM      7  O   PHE A   1      -9.377   6.026 125.898  0.00  0.00    +0.000 OA
ATOM      8  H   PHE A   1      -8.488   5.681 126.143  0.00  0.00    +0.000 HD
ENDBRANCH   5   7
ENDBRANCH   1   5
BRANCH   1   9
ATOM      9  CB  PHE A   1     -12.334   7.299 127.133  0.00  0.00    +0.000 C 
BRANCH   9  10
ATOM     10  CG  PHE A   1     -12.654   7.784 128.531  0.00  0.00    +0.000 A 
ATOM     11  CD1 PHE A   1     -12.850   9.142 128.811  0.00  0.00    +0.000 A 
ATOM     12  CE1 PHE A   1     -13.032   9.565 130.131  0.00  0.00    +0.000 A 
ATOM     13  CZ  PHE A   1     -13.095   8.631 131.165  0.00  0.00    +0.000 A 
ATOM     14  CE2 PHE A   1     -12.934   7.276 130.889  0.00  0.00    +0.000 A 
ATOM     15  CD2 PHE A   1     -12.717   6.857 129.581  0.00  0.00    +0.000 A 
ENDBRANCH   9  10
ENDBRANCH   1   9
TORSDOF 5
ENDMDL
MODEL 2
REMARK VINA RESULT:      -5.7      3.315      4.356
REMARK  Name = Phenylalanine
REMARK  5 active torsions:
REMARK  status: ('A' for Active; 'I' for Inactive)
REMARK    1  A    between atoms: N_1  and  CA_2
REMARK    2  A    between atoms: CA_2  and  CB_3
REMARK    3  A    between atoms: CA_2  and  C_10
REMARK    4  A    between atoms: CB_3  and  CG_4
REMARK    5  A    between atoms: C_10  and  O_11
REMARK                            x       y       z     vdW  Elec       q    Type
REMARK                         _______ _______ _______ _____ _____    ______ ____
ROOT
ATOM      1  CA  PHE A   1     -10.871   5.756 131.071  0.00  0.00    +0.000 C 
ENDROOT
BRANCH   1   2
ATOM      2  N   PHE A   1     -11.203   4.322 130.790  0.00  0.00    +0.000 NA
ATOM      3  H1  PHE A   1     -12.198   4.320 130.514  0.00  0.00    +0.000 HD
ATOM      4  H2  PHE A   1     -11.225   3.810 131.674  0.00  0.00    +0.000 HD
ENDBRANCH   1   2
BRANCH   1   5
ATOM      5  C   PHE A   1      -9.844   5.856 132.199  0.00  0.00    +0.000 C 
ATOM      6  OXT PHE A   1      -8.868   6.601 132.173  0.00  0.00    +0.000 OA
BRANCH   5   7
ATOM      7  O   PHE A   1     -10.112   5.039 133.246  0.00  0.00    +0.000 OA
ATOM      8  H   PHE A   1     -10.642   5.548 133.903  0.00  0.00    +0.000 HD
ENDBRANCH   5   7
ENDBRANCH   1   5
BRANCH   1   9
ATOM      9  CB  PHE A   1     -12.125   6.577 131.439  0.00  0.00    +0.000 C 
BRANCH   9  10
ATOM     10  CG  PHE A   1     -12.668   7.353 130.258  0.00  0.00    +0.000 A 
ATOM     11  CD1 PHE A   1     -13.148   6.707 129.111  0.00  0.00    +0.000 A 
ATOM     12  CE1 PHE A   1     -13.536   7.457 127.997  0.00  0.00    +0.000 A 
ATOM     13  CZ  PHE A   1     -13.520   8.851 128.048  0.00  0.00    +0.000 A 
ATOM     14  CE2 PHE A   1     -13.076   9.500 129.197  0.00  0.00    +0.000 A 
ATOM     15  CD2 PHE A   1     -12.655   8.755 130.294  0.00  0.00    +0.000 A 
ENDBRANCH   9  10
ENDBRANCH   1   9
TORSDOF 5
ENDMDL
MODEL 3
REMARK VINA RESULT:      -5.7      3.195      4.104
REMARK  Name = Phenylalanine
REMARK  5 active torsions:
REMARK  status: ('A' for Active; 'I' for Inactive)
REMARK    1  A    between atoms: N_1  and  CA_2
REMARK    2  A    between atoms: CA_2  and  CB_3
REMARK    3  A    between atoms: CA_2  and  C_10
REMARK    4  A    between atoms: CB_3  and  CG_4
REMARK    5  A    between atoms: C_10  and  O_11
REMARK                            x       y       z     vdW  Elec       q    Type
REMARK                         _______ _______ _______ _____ _____    ______ ____
ROOT
ATOM      1  CA  PHE A   1     -10.787   5.762 130.903  0.00  0.00    +0.000 C 
ENDROOT
BRANCH   1   2
ATOM      2  N   PHE A   1     -10.920   4.280 131.084  0.00  0.00    +0.000 NA
ATOM      3  H1  PHE A   1     -10.014   3.886 130.787  0.00  0.00    +0.000 HD
ATOM      4  H2  PHE A   1     -11.556   3.919 130.370  0.00  0.00    +0.000 HD
ENDBRANCH   1   2
BRANCH   1   5
ATOM      5  C   PHE A   1      -9.668   6.311 131.790  0.00  0.00    +0.000 C 
ATOM      6  OXT PHE A   1      -8.596   6.728 131.360  0.00  0.00    +0.000 OA
BRANCH   5   7
ATOM      7  O   PHE A   1      -9.971   6.297 133.110  0.00  0.00    +0.000 OA
ATOM      8  H   PHE A   1     -10.911   6.576 133.211  0.00  0.00    +0.000 HD
ENDBRANCH   5   7
ENDBRANCH   1   5
BRANCH   1   9
ATOM      9  CB  PHE A   1     -12.104   6.503 131.215  0.00  0.00    +0.000 C 
BRANCH   9  10
ATOM     10  CG  PHE A   1     -12.606   7.301 130.031  0.00  0.00    +0.000 A 
ATOM     11  CD1 PHE A   1     -12.583   8.702 130.025  0.00  0.00    +0.000 A 
ATOM     12  CE1 PHE A   1     -13.157   9.407 128.963  0.00  0.00    +0.000 A 
ATOM     13  CZ  PHE A   1     -13.687   8.721 127.871  0.00  0.00    +0.000 A 
ATOM     14  CE2 PHE A   1     -13.683   7.329 127.854  0.00  0.00    +0.000 A 
ATOM     15  CD2 PHE A   1     -13.144   6.626 128.926  0.00  0.00    +0.000 A 
ENDBRANCH   9  10
ENDBRANCH   1   9
TORSDOF 5
ENDMDL
MODEL 4
REMARK VINA RESULT:      -5.6      1.977      2.489
REMARK  Name = Phenylalanine
REMARK  5 active torsions:
REMARK  status: ('A' for Active; 'I' for Inactive)
REMARK    1  A    between atoms: N_1  and  CA_2
REMARK    2  A    between atoms: CA_2  and  CB_3
REMARK    3  A    between atoms: CA_2  and  C_10
REMARK    4  A    between atoms: CB_3  and  CG_4
REMARK    5  A    between atoms: C_10  and  O_11
REMARK                            x       y       z     vdW  Elec       q    Type
REMARK                         _______ _______ _______ _____ _____    ______ ____
ROOT
ATOM      1  CA  PHE A   1     -12.026   7.745 127.110  0.00  0.00    +0.000 C 
ENDROOT
BRANCH   1   2
ATOM      2  N   PHE A   1     -12.680   6.503 127.634  0.00  0.00    +0.000 NA
ATOM      3  H1  PHE A   1     -12.064   6.167 128.390  0.00  0.00    +0.000 HD
ATOM      4  H2  PHE A   1     -12.586   5.763 126.935  0.00  0.00    +0.000 HD
ENDBRANCH   1   2
BRANCH   1   5
ATOM      5  C   PHE A   1     -10.861   7.387 126.185  0.00  0.00    +0.000 C 
ATOM      6  OXT PHE A   1     -10.074   6.471 126.399  0.00  0.00    +0.000 OA
BRANCH   5   7
ATOM      7  O   PHE A   1     -10.778   8.184 125.092  0.00  0.00    +0.000 OA
ATOM      8  H   PHE A   1     -11.541   8.806 125.109  0.00  0.00    +0.000 HD
ENDBRANCH   5   7
ENDBRANCH   1   5
BRANCH   1   9
ATOM      9  CB  PHE A   1     -11.521   8.656 128.249  0.00  0.00    +0.000 C 
BRANCH   9  10
ATOM     10  CG  PHE A   1     -11.371   7.909 129.557  0.00  0.00    +0.000 A 
ATOM     11  CD1 PHE A   1     -10.171   7.277 129.910  0.00  0.00    +0.000 A 
ATOM     12  CE1 PHE A   1     -10.105   6.503 131.072  0.00  0.00    +0.000 A 
ATOM     13  CZ  PHE A   1     -11.206   6.416 131.922  0.00  0.00    +0.000 A 
ATOM     14  CE2 PHE A   1     -12.392   7.068 131.594  0.00  0.00    +0.000 A 
ATOM     15  CD2 PHE A   1     -12.471   7.811 130.420  0.00  0.00    +0.000 A 
ENDBRANCH   9  10
ENDBRANCH   1   9
TORSDOF 5
ENDMDL
MODEL 5
REMARK VINA RESULT:      -5.5      2.886      3.415
REMARK  Name = Phenylalanine
REMARK  5 active torsions:
REMARK  status: ('A' for Active; 'I' for Inactive)
REMARK    1  A    between atoms: N_1  and  CA_2
REMARK    2  A    between atoms: CA_2  and  CB_3
REMARK    3  A    between atoms: CA_2  and  C_10
REMARK    4  A    between atoms: CB_3  and  CG_4
REMARK    5  A    between atoms: C_10  and  O_11
REMARK                            x       y       z     vdW  Elec       q    Type
REMARK                         _______ _______ _______ _____ _____    ______ ____
ROOT
ATOM      1  CA  PHE A   1     -11.382   8.025 128.116  0.00  0.00    +0.000 C 
ENDROOT
BRANCH   1   2
ATOM      2  N   PHE A   1     -12.290   9.199 128.325  0.00  0.00    +0.000 NA
ATOM      3  H1  PHE A   1     -12.115   9.826 127.524  0.00  0.00    +0.000 HD
ATOM      4  H2  PHE A   1     -11.937   9.751 129.110  0.00  0.00    +0.000 HD
ENDBRANCH   1   2
BRANCH   1   5
ATOM      5  C   PHE A   1     -11.445   7.552 126.663  0.00  0.00    +0.000 C 
ATOM      6  OXT PHE A   1     -10.770   8.030 125.757  0.00  0.00    +0.000 OA
BRANCH   5   7
ATOM      7  O   PHE A   1     -12.324   6.540 126.465  0.00  0.00    +0.000 OA
ATOM      8  H   PHE A   1     -13.161   6.766 126.932  0.00  0.00    +0.000 HD
ENDBRANCH   5   7
ENDBRANCH   1   5
BRANCH   1   9
ATOM      9  CB  PHE A   1     -11.727   6.852 129.058  0.00  0.00    +0.000 C 
BRANCH   9  10
ATOM     10  CG  PHE A   1     -10.717   6.698 130.174  0.00  0.00    +0.000 A 
ATOM     11  CD1 PHE A   1      -9.377   7.075 130.011  0.00  0.00    +0.000 A 
ATOM     12  CE1 PHE A   1      -8.450   6.814 131.023  0.00  0.00    +0.000 A 
ATOM     13  CZ  PHE A   1      -8.865   6.247 132.228  0.00  0.00    +0.000 A 
ATOM     14  CE2 PHE A   1     -10.201   5.900 132.410  0.00  0.00    +0.000 A 
ATOM     15  CD2 PHE A   1     -11.120   6.126 131.389  0.00  0.00    +0.000 A 
ENDBRANCH   9  10
ENDBRANCH   1   9
TORSDOF 5
ENDMDL
MODEL 6
REMARK VINA RESULT:      -5.4      2.948      3.666
REMARK  Name = Phenylalanine
REMARK  5 active torsions:
REMARK  status: ('A' for Active; 'I' for Inactive)
REMARK    1  A    between atoms: N_1  and  CA_2
REMARK    2  A    between atoms: CA_2  and  CB_3
REMARK    3  A    between atoms: CA_2  and  C_10
REMARK    4  A    between atoms: CB_3  and  CG_4
REMARK    5  A    between atoms: C_10  and  O_11
REMARK                            x       y       z     vdW  Elec       q    Type
REMARK                         _______ _______ _______ _____ _____    ______ ____
ROOT
ATOM      1  CA  PHE A   1     -11.894   8.414 128.685  0.00  0.00    +0.000 C 
ENDROOT
BRANCH   1   2
ATOM      2  N   PHE A   1     -12.893   9.529 128.622  0.00  0.00    +0.000 NA
ATOM      3  H1  PHE A   1     -13.090   9.776 129.604  0.00  0.00    +0.000 HD
ATOM      4  H2  PHE A   1     -13.790   9.148 128.313  0.00  0.00    +0.000 HD
ENDBRANCH   1   2
BRANCH   1   5
ATOM      5  C   PHE A   1     -11.795   7.706 127.333  0.00  0.00    +0.000 C 
ATOM      6  OXT PHE A   1     -12.503   6.760 127.001  0.00  0.00    +0.000 OA
BRANCH   5   7
ATOM      7  O   PHE A   1     -10.843   8.226 126.522  0.00  0.00    +0.000 OA
ATOM      8  H   PHE A   1     -10.874   9.207 126.602  0.00  0.00    +0.000 HD
ENDBRANCH   5   7
ENDBRANCH   1   5
BRANCH   1   9
ATOM      9  CB  PHE A   1     -12.243   7.386 129.782  0.00  0.00    +0.000 C 
BRANCH   9  10
ATOM     10  CG  PHE A   1     -11.023   6.936 130.556  0.00  0.00    +0.000 A 
ATOM     11  CD1 PHE A   1     -11.135   6.254 131.775  0.00  0.00    +0.000 A 
ATOM     12  CE1 PHE A   1      -9.988   5.954 132.516  0.00  0.00    +0.000 A 
ATOM     13  CZ  PHE A   1      -8.725   6.264 132.012  0.00  0.00    +0.000 A 
ATOM     14  CE2 PHE A   1      -8.605   6.912 130.786  0.00  0.00    +0.000 A 
ATOM     15  CD2 PHE A   1      -9.747   7.244 130.063  0.00  0.00    +0.000 A 
ENDBRANCH   9  10
ENDBRANCH   1   9
TORSDOF 5
ENDMDL
MODEL 7
REMARK VINA RESULT:      -5.3      3.261      4.354
REMARK  Name = Phenylalanine
REMARK  5 active torsions:
REMARK  status: ('A' for Active; 'I' for Inactive)
REMARK    1  A    between atoms: N_1  and  CA_2
REMARK    2  A    between atoms: CA_2  and  CB_3
REMARK    3  A    between atoms: CA_2  and  C_10
REMARK    4  A    between atoms: CB_3  and  CG_4
REMARK    5  A    between atoms: C_10  and  O_11
REMARK                            x       y       z     vdW  Elec       q    Type
REMARK                         _______ _______ _______ _____ _____    ______ ____
ROOT
ATOM      1  CA  PHE A   1     -10.709   6.020 131.504  0.00  0.00    +0.000 C 
ENDROOT
BRANCH   1   2
ATOM      2  N   PHE A   1     -10.157   6.313 132.866  0.00  0.00    +0.000 NA
ATOM      3  H1  PHE A   1     -10.980   6.483 133.464  0.00  0.00    +0.000 HD
ATOM      4  H2  PHE A   1      -9.712   7.233 132.848  0.00  0.00    +0.000 HD
ENDBRANCH   1   2
BRANCH   1   5
ATOM      5  C   PHE A   1     -10.250   4.642 131.025  0.00  0.00    +0.000 C 
ATOM      6  OXT PHE A   1      -9.074   4.300 130.951  0.00  0.00    +0.000 OA
BRANCH   5   7
ATOM      7  O   PHE A   1     -11.274   3.821 130.688  0.00  0.00    +0.000 OA
ATOM      8  H   PHE A   1     -11.191   3.606 129.730  0.00  0.00    +0.000 HD
ENDBRANCH   5   7
ENDBRANCH   1   5
BRANCH   1   9
ATOM      9  CB  PHE A   1     -10.298   7.090 130.471  0.00  0.00    +0.000 C 
BRANCH   9  10
ATOM     10  CG  PHE A   1     -11.268   7.170 129.312  0.00  0.00    +0.000 A 
ATOM     11  CD1 PHE A   1     -12.645   6.985 129.491  0.00  0.00    +0.000 A 
ATOM     12  CE1 PHE A   1     -13.496   6.954 128.383  0.00  0.00    +0.000 A 
ATOM     13  CZ  PHE A   1     -12.992   7.183 127.103  0.00  0.00    +0.000 A 
ATOM     14  CE2 PHE A   1     -11.629   7.401 126.921  0.00  0.00    +0.000 A 
ATOM     15  CD2 PHE A   1     -10.775   7.396 128.019  0.00  0.00    +0.000 A 
ENDBRANCH   9  10
ENDBRANCH   1   9
TORSDOF 5
ENDMDL
MODEL 8
REMARK VINA RESULT:      -5.2      3.798      4.345
REMARK  Name = Phenylalanine
REMARK  5 active torsions:
REMARK  status: ('A' for Active; 'I' for Inactive)
REMARK    1  A    between atoms: N_1  and  CA_2
REMARK    2  A    between atoms: CA_2  and  CB_3
REMARK    3  A    between atoms: CA_2  and  C_10
REMARK    4  A    between atoms: CB_3  and  CG_4
REMARK    5  A    between atoms: C_10  and  O_11
REMARK                            x       y       z     vdW  Elec       q    Type
REMARK                         _______ _______ _______ _____ _____    ______ ____
ROOT
ATOM      1  CA  PHE A   1     -10.238   6.614 128.601  0.00  0.00    +0.000 C 
ENDROOT
BRANCH   1   2
ATOM      2  N   PHE A   1      -9.241   5.537 128.301  0.00  0.00    +0.000 NA
ATOM      3  H1  PHE A   1      -9.719   4.651 128.526  0.00  0.00    +0.000 HD
ATOM      4  H2  PHE A   1      -8.503   5.567 129.009  0.00  0.00    +0.000 HD
ENDBRANCH   1   2
BRANCH   1   5
ATOM      5  C   PHE A   1     -10.653   7.332 127.315  0.00  0.00    +0.000 C 
ATOM      6  OXT PHE A   1     -10.874   8.537 127.245  0.00  0.00    +0.000 OA
BRANCH   5   7
ATOM      7  O   PHE A   1     -10.754   6.506 126.246  0.00  0.00    +0.000 OA
ATOM      8  H   PHE A   1     -10.423   6.989 125.454  0.00  0.00    +0.000 HD
ENDBRANCH   5   7
ENDBRANCH   1   5
BRANCH   1   9
ATOM      9  CB  PHE A   1      -9.692   7.643 129.614  0.00  0.00    +0.000 C 
BRANCH   9  10
ATOM     10  CG  PHE A   1      -9.034   6.979 130.805  0.00  0.00    +0.000 A 
ATOM     11  CD1 PHE A   1      -7.642   6.963 130.961  0.00  0.00    +0.000 A 
ATOM     12  CE1 PHE A   1      -7.065   6.246 132.013  0.00  0.00    +0.000 A 
ATOM     13  CZ  PHE A   1      -7.872   5.606 132.953  0.00  0.00    +0.000 A 
ATOM     14  CE2 PHE A   1      -9.257   5.645 132.822  0.00  0.00    +0.000 A 
ATOM     15  CD2 PHE A   1      -9.833   6.330 131.756  0.00  0.00    +0.000 A 
ENDBRANCH   9  10
ENDBRANCH   1   9
TORSDOF 5
ENDMDL
MODEL 9
REMARK VINA RESULT:      -5.1     10.885     11.377
REMARK  Name = Phenylalanine
REMARK  5 active torsions:
REMARK  status: ('A' for Active; 'I' for Inactive)
REMARK    1  A    between atoms: N_1  and  CA_2
REMARK    2  A    between atoms: CA_2  and  CB_3
REMARK    3  A    between atoms: CA_2  and  C_10
REMARK    4  A    between atoms: CB_3  and  CG_4
REMARK    5  A    between atoms: C_10  and  O_11
REMARK                            x       y       z     vdW  Elec       q    Type
REMARK                         _______ _______ _______ _____ _____    ______ ____
ROOT
ATOM      1  CA  PHE A   1      -8.877  -1.943 124.859  0.00  0.00    +0.000 C 
ENDROOT
BRANCH   1   2
ATOM      2  N   PHE A   1      -9.600  -0.635 124.973  0.00  0.00    +0.000 NA
ATOM      3  H1  PHE A   1      -9.224  -0.188 125.824  0.00  0.00    +0.000 HD
ATOM      4  H2  PHE A   1     -10.570  -0.818 125.238  0.00  0.00    +0.000 HD
ENDBRANCH   1   2
BRANCH   1   5
ATOM      5  C   PHE A   1      -9.094  -2.556 123.475  0.00  0.00    +0.000 C 
ATOM      6  OXT PHE A   1      -8.410  -2.287 122.492  0.00  0.00    +0.000 OA
BRANCH   5   7
ATOM      7  O   PHE A   1     -10.121  -3.437 123.432  0.00  0.00    +0.000 OA
ATOM      8  H   PHE A   1     -10.927  -2.955 123.134  0.00  0.00    +0.000 HD
ENDBRANCH   5   7
ENDBRANCH   1   5
BRANCH   1   9
ATOM      9  CB  PHE A   1      -9.323  -2.946 125.945  0.00  0.00    +0.000 C 
BRANCH   9  10
ATOM     10  CG  PHE A   1      -8.363  -2.987 127.115  0.00  0.00    +0.000 A 
ATOM     11  CD1 PHE A   1      -8.706  -3.605 128.325  0.00  0.00    +0.000 A 
ATOM     12  CE1 PHE A   1      -7.840  -3.526 129.419  0.00  0.00    +0.000 A 
ATOM     13  CZ  PHE A   1      -6.601  -2.899 129.291  0.00  0.00    +0.000 A 
ATOM     14  CE2 PHE A   1      -6.240  -2.312 128.082  0.00  0.00    +0.000 A 
ATOM     15  CD2 PHE A   1      -7.115  -2.358 127.001  0.00  0.00    +0.000 A 
ENDBRANCH   9  10
ENDBRANCH   1   9
TORSDOF 5
ENDMDL
