MODEL 1
REMARK VINA RESULT:      -6.8      0.000      0.000
REMARK  Name = Phenyl aminosalicylate
REMARK  5 active torsions:
REMARK  status: ('A' for Active; 'I' for Inactive)
REMARK    1  A    between atoms: N_1  and  C_2
REMARK    2  A    between atoms: C_4  and  O_5
REMARK    3  A    between atoms: C_6  and  C_9
REMARK    4  A    between atoms: C_9  and  O_11
REMARK    5  A    between atoms: O_11  and  C_12
REMARK                            x       y       z     vdW  Elec       q    Type
REMARK                         _______ _______ _______ _____ _____    ______ ____
ROOT
ATOM      1  C   UNL     1      -7.891  -1.746 123.620  0.00  0.00    +0.000 A 
ATOM      2  C   UNL     1      -9.101  -1.287 123.108  0.00  0.00    +0.000 A 
ATOM      3  C   UNL     1      -9.354   0.086 122.990  0.00  0.00    +0.000 A 
ATOM      4  C   UNL     1      -8.410   1.049 123.400  0.00  0.00    +0.000 A 
ATOM      5  C   UNL     1      -7.201   0.582 123.938  0.00  0.00    +0.000 A 
ATOM      6  C   UNL     1      -6.951  -0.802 124.045  0.00  0.00    +0.000 A 
ENDROOT
BRANCH   1   7
ATOM      7  N   UNL     1      -7.660  -3.102 123.761  0.00  0.00    +0.000 N 
ATOM      8  H   UNL     1      -7.210  -3.629 123.023  0.00  0.00    +0.000 HD
ATOM      9  H   UNL     1      -7.786  -3.560 124.653  0.00  0.00    +0.000 HD
ENDBRANCH   1   7
BRANCH   3  10
ATOM     10  O   UNL     1     -10.555   0.467 122.455  0.00  0.00    +0.000 OA
ATOM     11  H   UNL     1     -10.909   1.243 122.914  0.00  0.00    +0.000 HD
ENDBRANCH   3  10
BRANCH   4  12
ATOM     12  C   UNL     1      -8.728   2.511 123.246  0.00  0.00    +0.000 C 
ATOM     13  O   UNL     1      -8.813   3.276 124.202  0.00  0.00    +0.000 OA
BRANCH  12  14
ATOM     14  O   UNL     1      -8.920   2.896 121.921  0.00  0.00    +0.000 OA
BRANCH  14  15
ATOM     15  C   UNL     1      -7.829   3.536 121.272  0.00  0.00    +0.000 A 
ATOM     16  C   UNL     1      -8.025   4.043 119.985  0.00  0.00    +0.000 A 
ATOM     17  C   UNL     1      -6.946   4.600 119.287  0.00  0.00    +0.000 A 
ATOM     18  C   UNL     1      -5.693   4.712 119.894  0.00  0.00    +0.000 A 
ATOM     19  C   UNL     1      -5.501   4.211 121.178  0.00  0.00    +0.000 A 
ATOM     20  C   UNL     1      -6.558   3.596 121.853  0.00  0.00    +0.000 A 
ENDBRANCH  14  15
ENDBRANCH  12  14
ENDBRANCH   4  12
TORSDOF 5
ENDMDL
MODEL 2
REMARK VINA RESULT:      -6.8     10.023     11.389
REMARK  Name = Phenyl aminosalicylate
REMARK  5 active torsions:
REMARK  status: ('A' for Active; 'I' for Inactive)
REMARK    1  A    between atoms: N_1  and  C_2
REMARK    2  A    between atoms: C_4  and  O_5
REMARK    3  A    between atoms: C_6  and  C_9
REMARK    4  A    between atoms: C_9  and  O_11
REMARK    5  A    between atoms: O_11  and  C_12
REMARK                            x       y       z     vdW  Elec       q    Type
REMARK                         _______ _______ _______ _____ _____    ______ ____
ROOT
ATOM      1  C   UNL     1     -13.011   9.449 129.200  0.00  0.00    +0.000 A 
ATOM      2  C   UNL     1     -12.238   8.623 128.390  0.00  0.00    +0.000 A 
ATOM      3  C   UNL     1     -11.696   7.432 128.892  0.00  0.00    +0.000 A 
ATOM      4  C   UNL     1     -11.894   7.037 130.230  0.00  0.00    +0.000 A 
ATOM      5  C   UNL     1     -12.654   7.884 131.049  0.00  0.00    +0.000 A 
ATOM      6  C   UNL     1     -13.203   9.076 130.534  0.00  0.00    +0.000 A 
ENDROOT
BRANCH   1   7
ATOM      7  N   UNL     1     -13.518  10.637 128.706  0.00  0.00    +0.000 N 
ATOM      8  H   UNL     1     -13.890  10.689 127.767  0.00  0.00    +0.000 HD
ATOM      9  H   UNL     1     -13.675  11.428 129.316  0.00  0.00    +0.000 HD
ENDBRANCH   1   7
BRANCH   3  10
ATOM     10  O   UNL     1     -10.966   6.654 128.033  0.00  0.00    +0.000 OA
ATOM     11  H   UNL     1     -10.987   5.725 128.304  0.00  0.00    +0.000 HD
ENDBRANCH   3  10
BRANCH   4  12
ATOM     12  C   UNL     1     -11.296   5.745 130.717  0.00  0.00    +0.000 C 
ATOM     13  O   UNL     1     -11.368   4.698 130.080  0.00  0.00    +0.000 OA
BRANCH  12  14
ATOM     14  O   UNL     1     -10.667   5.861 131.955  0.00  0.00    +0.000 OA
BRANCH  14  15
ATOM     15  C   UNL     1      -9.254   6.013 131.946  0.00  0.00    +0.000 A 
ATOM     16  C   UNL     1      -8.516   5.426 132.977  0.00  0.00    +0.000 A 
ATOM     17  C   UNL     1      -7.131   5.631 133.044  0.00  0.00    +0.000 A 
ATOM     18  C   UNL     1      -6.476   6.362 132.049  0.00  0.00    +0.000 A 
ATOM     19  C   UNL     1      -7.212   6.941 131.020  0.00  0.00    +0.000 A 
ATOM     20  C   UNL     1      -8.601   6.794 130.987  0.00  0.00    +0.000 A 
ENDBRANCH  14  15
ENDBRANCH  12  14
ENDBRANCH   4  12
TORSDOF 5
ENDMDL
MODEL 3
REMARK VINA RESULT:      -6.8      9.546     11.545
REMARK  Name = Phenyl aminosalicylate
REMARK  5 active torsions:
REMARK  status: ('A' for Active; 'I' for Inactive)
REMARK    1  A    between atoms: N_1  and  C_2
REMARK    2  A    between atoms: C_4  and  O_5
REMARK    3  A    between atoms: C_6  and  C_9
REMARK    4  A    between atoms: C_9  and  O_11
REMARK    5  A    between atoms: O_11  and  C_12
REMARK                            x       y       z     vdW  Elec       q    Type
REMARK                         _______ _______ _______ _____ _____    ______ ____
ROOT
ATOM      1  C   UNL     1     -12.496   8.935 129.238  0.00  0.00    +0.000 A 
ATOM      2  C   UNL     1     -12.771   8.272 130.430  0.00  0.00    +0.000 A 
ATOM      3  C   UNL     1     -12.192   7.027 130.706  0.00  0.00    +0.000 A 
ATOM      4  C   UNL     1     -11.331   6.392 129.788  0.00  0.00    +0.000 A 
ATOM      5  C   UNL     1     -11.076   7.053 128.578  0.00  0.00    +0.000 A 
ATOM      6  C   UNL     1     -11.656   8.310 128.311  0.00  0.00    +0.000 A 
ENDROOT
BRANCH   1   7
ATOM      7  N   UNL     1     -13.094  10.150 128.959  0.00  0.00    +0.000 N 
ATOM      8  H   UNL     1     -13.462  10.345 128.037  0.00  0.00    +0.000 HD
ATOM      9  H   UNL     1     -13.320  10.800 129.700  0.00  0.00    +0.000 HD
ENDBRANCH   1   7
BRANCH   3  10
ATOM     10  O   UNL     1     -12.486   6.442 131.909  0.00  0.00    +0.000 OA
ATOM     11  H   UNL     1     -13.417   6.179 131.949  0.00  0.00    +0.000 HD
ENDBRANCH   3  10
BRANCH   4  12
ATOM     12  C   UNL     1     -10.730   5.058 130.137  0.00  0.00    +0.000 C 
ATOM     13  O   UNL     1     -11.373   4.012 130.107  0.00  0.00    +0.000 OA
BRANCH  12  14
ATOM     14  O   UNL     1      -9.387   5.136 130.498  0.00  0.00    +0.000 OA
BRANCH  14  15
ATOM     15  C   UNL     1      -9.070   4.872 131.858  0.00  0.00    +0.000 A 
ATOM     16  C   UNL     1      -8.650   5.935 132.661  0.00  0.00    +0.000 A 
ATOM     17  C   UNL     1      -8.248   5.691 133.982  0.00  0.00    +0.000 A 
ATOM     18  C   UNL     1      -8.328   4.404 134.518  0.00  0.00    +0.000 A 
ATOM     19  C   UNL     1      -8.751   3.347 133.718  0.00  0.00    +0.000 A 
ATOM     20  C   UNL     1      -9.091   3.575 132.383  0.00  0.00    +0.000 A 
ENDBRANCH  14  15
ENDBRANCH  12  14
ENDBRANCH   4  12
TORSDOF 5
ENDMDL
MODEL 4
REMARK VINA RESULT:      -6.6      9.586     11.160
REMARK  Name = Phenyl aminosalicylate
REMARK  5 active torsions:
REMARK  status: ('A' for Active; 'I' for Inactive)
REMARK    1  A    between atoms: N_1  and  C_2
REMARK    2  A    between atoms: C_4  and  O_5
REMARK    3  A    between atoms: C_6  and  C_9
REMARK    4  A    between atoms: C_9  and  O_11
REMARK    5  A    between atoms: O_11  and  C_12
REMARK                            x       y       z     vdW  Elec       q    Type
REMARK                         _______ _______ _______ _____ _____    ______ ____
ROOT
ATOM      1  C   UNL     1     -12.454   8.946 129.215  0.00  0.00    +0.000 A 
ATOM      2  C   UNL     1     -12.798   8.185 130.329  0.00  0.00    +0.000 A 
ATOM      3  C   UNL     1     -12.015   7.090 130.717  0.00  0.00    +0.000 A 
ATOM      4  C   UNL     1     -10.870   6.706 129.990  0.00  0.00    +0.000 A 
ATOM      5  C   UNL     1     -10.541   7.461 128.855  0.00  0.00    +0.000 A 
ATOM      6  C   UNL     1     -11.329   8.567 128.476  0.00  0.00    +0.000 A 
ENDROOT
BRANCH   1   7
ATOM      7  N   UNL     1     -13.248  10.007 128.821  0.00  0.00    +0.000 N 
ATOM      8  H   UNL     1     -13.237  10.333 127.863  0.00  0.00    +0.000 HD
ATOM      9  H   UNL     1     -13.967  10.372 129.432  0.00  0.00    +0.000 HD
ENDBRANCH   1   7
BRANCH   3  10
ATOM     10  O   UNL     1     -12.396   6.400 131.836  0.00  0.00    +0.000 OA
ATOM     11  H   UNL     1     -13.353   6.251 131.843  0.00  0.00    +0.000 HD
ENDBRANCH   3  10
BRANCH   4  12
ATOM     12  C   UNL     1     -10.060   5.526 130.453  0.00  0.00    +0.000 C 
ATOM     13  O   UNL     1      -9.887   4.527 129.761  0.00  0.00    +0.000 OA
BRANCH  12  14
ATOM     14  O   UNL     1      -9.541   5.683 131.737  0.00  0.00    +0.000 OA
BRANCH  14  15
ATOM     15  C   UNL     1      -8.142   5.916 131.841  0.00  0.00    +0.000 A 
ATOM     16  C   UNL     1      -7.449   5.335 132.905  0.00  0.00    +0.000 A 
ATOM     17  C   UNL     1      -6.088   5.617 133.084  0.00  0.00    +0.000 A 
ATOM     18  C   UNL     1      -5.406   6.420 132.166  0.00  0.00    +0.000 A 
ATOM     19  C   UNL     1      -6.097   6.993 131.103  0.00  0.00    +0.000 A 
ATOM     20  C   UNL     1      -7.468   6.768 130.959  0.00  0.00    +0.000 A 
ENDBRANCH  14  15
ENDBRANCH  12  14
ENDBRANCH   4  12
TORSDOF 5
ENDMDL
MODEL 5
REMARK VINA RESULT:      -6.6      9.169     10.314
REMARK  Name = Phenyl aminosalicylate
REMARK  5 active torsions:
REMARK  status: ('A' for Active; 'I' for Inactive)
REMARK    1  A    between atoms: N_1  and  C_2
REMARK    2  A    between atoms: C_4  and  O_5
REMARK    3  A    between atoms: C_6  and  C_9
REMARK    4  A    between atoms: C_9  and  O_11
REMARK    5  A    between atoms: O_11  and  C_12
REMARK                            x       y       z     vdW  Elec       q    Type
REMARK                         _______ _______ _______ _____ _____    ______ ____
ROOT
ATOM      1  C   UNL     1      -8.637   4.841 133.625  0.00  0.00    +0.000 A 
ATOM      2  C   UNL     1      -9.452   3.920 132.973  0.00  0.00    +0.000 A 
ATOM      3  C   UNL     1      -9.914   4.168 131.673  0.00  0.00    +0.000 A 
ATOM      4  C   UNL     1      -9.592   5.356 130.989  0.00  0.00    +0.000 A 
ATOM      5  C   UNL     1      -8.790   6.292 131.659  0.00  0.00    +0.000 A 
ATOM      6  C   UNL     1      -8.321   6.031 132.963  0.00  0.00    +0.000 A 
ENDROOT
BRANCH   1   7
ATOM      7  N   UNL     1      -8.209   4.603 134.918  0.00  0.00    +0.000 N 
ATOM      8  H   UNL     1      -7.309   4.175 135.094  0.00  0.00    +0.000 HD
ATOM      9  H   UNL     1      -8.704   4.992 135.708  0.00  0.00    +0.000 HD
ENDBRANCH   1   7
BRANCH   3  10
ATOM     10  O   UNL     1     -10.691   3.209 131.082  0.00  0.00    +0.000 OA
ATOM     11  H   UNL     1     -10.174   2.679 130.457  0.00  0.00    +0.000 HD
ENDBRANCH   3  10
BRANCH   4  12
ATOM     12  C   UNL     1     -10.108   5.570 129.592  0.00  0.00    +0.000 C 
ATOM     13  O   UNL     1      -9.368   5.783 128.636  0.00  0.00    +0.000 OA
BRANCH  12  14
ATOM     14  O   UNL     1     -11.498   5.508 129.503  0.00  0.00    +0.000 OA
BRANCH  14  15
ATOM     15  C   UNL     1     -12.179   6.723 129.217  0.00  0.00    +0.000 A 
ATOM     16  C   UNL     1     -13.043   6.758 128.120  0.00  0.00    +0.000 A 
ATOM     17  C   UNL     1     -13.661   7.964 127.761  0.00  0.00    +0.000 A 
ATOM     18  C   UNL     1     -13.470   9.113 128.533  0.00  0.00    +0.000 A 
ATOM     19  C   UNL     1     -12.613   9.074 129.629  0.00  0.00    +0.000 A 
ATOM     20  C   UNL     1     -11.945   7.890 129.951  0.00  0.00    +0.000 A 
ENDBRANCH  14  15
ENDBRANCH  12  14
ENDBRANCH   4  12
TORSDOF 5
ENDMDL
MODEL 6
REMARK VINA RESULT:      -6.5     10.000     10.838
REMARK  Name = Phenyl aminosalicylate
REMARK  5 active torsions:
REMARK  status: ('A' for Active; 'I' for Inactive)
REMARK    1  A    between atoms: N_1  and  C_2
REMARK    2  A    between atoms: C_4  and  O_5
REMARK    3  A    between atoms: C_6  and  C_9
REMARK    4  A    between atoms: C_9  and  O_11
REMARK    5  A    between atoms: O_11  and  C_12
REMARK                            x       y       z     vdW  Elec       q    Type
REMARK                         _______ _______ _______ _____ _____    ______ ____
ROOT
ATOM      1  C   UNL     1      -6.334   6.209 132.254  0.00  0.00    +0.000 A 
ATOM      2  C   UNL     1      -7.237   5.584 133.109  0.00  0.00    +0.000 A 
ATOM      3  C   UNL     1      -8.612   5.611 132.841  0.00  0.00    +0.000 A 
ATOM      4  C   UNL     1      -9.133   6.284 131.718  0.00  0.00    +0.000 A 
ATOM      5  C   UNL     1      -8.221   6.933 130.872  0.00  0.00    +0.000 A 
ATOM      6  C   UNL     1      -6.838   6.892 131.143  0.00  0.00    +0.000 A 
ENDROOT
BRANCH   1   7
ATOM      7  N   UNL     1      -4.981   6.203 132.540  0.00  0.00    +0.000 N 
ATOM      8  H   UNL     1      -4.353   6.847 132.078  0.00  0.00    +0.000 HD
ATOM      9  H   UNL     1      -4.618   5.674 133.321  0.00  0.00    +0.000 HD
ENDBRANCH   1   7
BRANCH   3  10
ATOM     10  O   UNL     1      -9.442   4.955 133.710  0.00  0.00    +0.000 OA
ATOM     11  H   UNL     1      -9.332   5.287 134.614  0.00  0.00    +0.000 HD
ENDBRANCH   3  10
BRANCH   4  12
ATOM     12  C   UNL     1     -10.617   6.278 131.473  0.00  0.00    +0.000 C 
ATOM     13  O   UNL     1     -11.437   6.513 132.356  0.00  0.00    +0.000 OA
BRANCH  12  14
ATOM     14  O   UNL     1     -10.957   5.973 130.156  0.00  0.00    +0.000 OA
BRANCH  14  15
ATOM     15  C   UNL     1     -11.843   6.869 129.497  0.00  0.00    +0.000 A 
ATOM     16  C   UNL     1     -12.938   6.337 128.813  0.00  0.00    +0.000 A 
ATOM     17  C   UNL     1     -13.779   7.187 128.081  0.00  0.00    +0.000 A 
ATOM     18  C   UNL     1     -13.567   8.567 128.087  0.00  0.00    +0.000 A 
ATOM     19  C   UNL     1     -12.478   9.096 128.774  0.00  0.00    +0.000 A 
ATOM     20  C   UNL     1     -11.600   8.246 129.451  0.00  0.00    +0.000 A 
ENDBRANCH  14  15
ENDBRANCH  12  14
ENDBRANCH   4  12
TORSDOF 5
ENDMDL
MODEL 7
REMARK VINA RESULT:      -6.5      8.509     10.683
REMARK  Name = Phenyl aminosalicylate
REMARK  5 active torsions:
REMARK  status: ('A' for Active; 'I' for Inactive)
REMARK    1  A    between atoms: N_1  and  C_2
REMARK    2  A    between atoms: C_4  and  O_5
REMARK    3  A    between atoms: C_6  and  C_9
REMARK    4  A    between atoms: C_9  and  O_11
REMARK    5  A    between atoms: O_11  and  C_12
REMARK                            x       y       z     vdW  Elec       q    Type
REMARK                         _______ _______ _______ _____ _____    ______ ____
ROOT
ATOM      1  C   UNL     1     -12.389   8.907 129.210  0.00  0.00    +0.000 A 
ATOM      2  C   UNL     1     -12.712   8.105 130.301  0.00  0.00    +0.000 A 
ATOM      3  C   UNL     1     -11.917   7.002 130.639  0.00  0.00    +0.000 A 
ATOM      4  C   UNL     1     -10.779   6.653 129.884  0.00  0.00    +0.000 A 
ATOM      5  C   UNL     1     -10.470   7.450 128.772  0.00  0.00    +0.000 A 
ATOM      6  C   UNL     1     -11.271   8.564 128.444  0.00  0.00    +0.000 A 
ENDROOT
BRANCH   1   7
ATOM      7  N   UNL     1     -13.195   9.976 128.865  0.00  0.00    +0.000 N 
ATOM      8  H   UNL     1     -13.321  10.754 129.500  0.00  0.00    +0.000 HD
ATOM      9  H   UNL     1     -13.542  10.081 127.922  0.00  0.00    +0.000 HD
ENDBRANCH   1   7
BRANCH   3  10
ATOM     10  O   UNL     1     -12.278   6.270 131.737  0.00  0.00    +0.000 OA
ATOM     11  H   UNL     1     -11.783   6.551 132.521  0.00  0.00    +0.000 HD
ENDBRANCH   3  10
BRANCH   4  12
ATOM     12  C   UNL     1      -9.955   5.463 130.293  0.00  0.00    +0.000 C 
ATOM     13  O   UNL     1      -8.850   5.569 130.817  0.00  0.00    +0.000 OA
BRANCH  12  14
ATOM     14  O   UNL     1     -10.569   4.244 130.012  0.00  0.00    +0.000 OA
BRANCH  14  15
ATOM     15  C   UNL     1      -9.854   3.067 130.364  0.00  0.00    +0.000 A 
ATOM     16  C   UNL     1      -8.968   2.524 129.431  0.00  0.00    +0.000 A 
ATOM     17  C   UNL     1      -8.315   1.316 129.715  0.00  0.00    +0.000 A 
ATOM     18  C   UNL     1      -8.493   0.690 130.951  0.00  0.00    +0.000 A 
ATOM     19  C   UNL     1      -9.372   1.236 131.881  0.00  0.00    +0.000 A 
ATOM     20  C   UNL     1     -10.075   2.404 131.576  0.00  0.00    +0.000 A 
ENDBRANCH  14  15
ENDBRANCH  12  14
ENDBRANCH   4  12
TORSDOF 5
ENDMDL
MODEL 8
REMARK VINA RESULT:      -6.5      2.701      5.477
REMARK  Name = Phenyl aminosalicylate
REMARK  5 active torsions:
REMARK  status: ('A' for Active; 'I' for Inactive)
REMARK    1  A    between atoms: N_1  and  C_2
REMARK    2  A    between atoms: C_4  and  O_5
REMARK    3  A    between atoms: C_6  and  C_9
REMARK    4  A    between atoms: C_9  and  O_11
REMARK    5  A    between atoms: O_11  and  C_12
REMARK                            x       y       z     vdW  Elec       q    Type
REMARK                         _______ _______ _______ _____ _____    ______ ____
ROOT
ATOM      1  C   UNL     1      -7.594   4.009 120.140  0.00  0.00    +0.000 A 
ATOM      2  C   UNL     1      -8.605   3.643 121.024  0.00  0.00    +0.000 A 
ATOM      3  C   UNL     1      -8.296   3.117 122.285  0.00  0.00    +0.000 A 
ATOM      4  C   UNL     1      -6.963   2.920 122.698  0.00  0.00    +0.000 A 
ATOM      5  C   UNL     1      -5.948   3.268 121.794  0.00  0.00    +0.000 A 
ATOM      6  C   UNL     1      -6.267   3.805 120.530  0.00  0.00    +0.000 A 
ENDROOT
BRANCH   1   7
ATOM      7  N   UNL     1      -7.906   4.500 118.885  0.00  0.00    +0.000 N 
ATOM      8  H   UNL     1      -7.459   4.125 118.058  0.00  0.00    +0.000 HD
ATOM      9  H   UNL     1      -8.692   5.121 118.752  0.00  0.00    +0.000 HD
ENDBRANCH   1   7
BRANCH   3  10
ATOM     10  O   UNL     1      -9.339   2.801 123.114  0.00  0.00    +0.000 OA
ATOM     11  H   UNL     1      -9.949   3.548 123.205  0.00  0.00    +0.000 HD
ENDBRANCH   3  10
BRANCH   4  12
ATOM     12  C   UNL     1      -6.686   2.358 124.066  0.00  0.00    +0.000 C 
ATOM     13  O   UNL     1      -5.888   2.870 124.845  0.00  0.00    +0.000 OA
BRANCH  12  14
ATOM     14  O   UNL     1      -7.418   1.206 124.346  0.00  0.00    +0.000 OA
BRANCH  14  15
ATOM     15  C   UNL     1      -6.761  -0.038 124.147  0.00  0.00    +0.000 A 
ATOM     16  C   UNL     1      -6.888  -0.666 122.905  0.00  0.00    +0.000 A 
ATOM     17  C   UNL     1      -6.324  -1.934 122.706  0.00  0.00    +0.000 A 
ATOM     18  C   UNL     1      -5.579  -2.542 123.720  0.00  0.00    +0.000 A 
ATOM     19  C   UNL     1      -5.449  -1.913 124.954  0.00  0.00    +0.000 A 
ATOM     20  C   UNL     1      -6.065  -0.680 125.177  0.00  0.00    +0.000 A 
ENDBRANCH  14  15
ENDBRANCH  12  14
ENDBRANCH   4  12
TORSDOF 5
ENDMDL
MODEL 9
REMARK VINA RESULT:      -6.3      3.214      3.947
REMARK  Name = Phenyl aminosalicylate
REMARK  5 active torsions:
REMARK  status: ('A' for Active; 'I' for Inactive)
REMARK    1  A    between atoms: N_1  and  C_2
REMARK    2  A    between atoms: C_4  and  O_5
REMARK    3  A    between atoms: C_6  and  C_9
REMARK    4  A    between atoms: C_9  and  O_11
REMARK    5  A    between atoms: O_11  and  C_12
REMARK                            x       y       z     vdW  Elec       q    Type
REMARK                         _______ _______ _______ _____ _____    ______ ____
ROOT
ATOM      1  C   UNL     1      -4.016   2.630 126.598  0.00  0.00    +0.000 A 
ATOM      2  C   UNL     1      -4.904   1.609 126.275  0.00  0.00    +0.000 A 
ATOM      3  C   UNL     1      -5.906   1.809 125.315  0.00  0.00    +0.000 A 
ATOM      4  C   UNL     1      -6.064   3.046 124.660  0.00  0.00    +0.000 A 
ATOM      5  C   UNL     1      -5.181   4.080 125.006  0.00  0.00    +0.000 A 
ATOM      6  C   UNL     1      -4.170   3.867 125.966  0.00  0.00    +0.000 A 
ENDROOT
BRANCH   1   7
ATOM      7  N   UNL     1      -3.049   2.435 127.567  0.00  0.00    +0.000 N 
ATOM      8  H   UNL     1      -3.089   2.935 128.446  0.00  0.00    +0.000 HD
ATOM      9  H   UNL     1      -2.380   1.680 127.489  0.00  0.00    +0.000 HD
ENDBRANCH   1   7
BRANCH   3  10
ATOM     10  O   UNL     1      -6.730   0.754 125.028  0.00  0.00    +0.000 OA
ATOM     11  H   UNL     1      -6.408   0.261 124.259  0.00  0.00    +0.000 HD
ENDBRANCH   3  10
BRANCH   4  12
ATOM     12  C   UNL     1      -7.151   3.206 123.632  0.00  0.00    +0.000 C 
ATOM     13  O   UNL     1      -8.222   3.753 123.879  0.00  0.00    +0.000 OA
BRANCH  12  14
ATOM     14  O   UNL     1      -6.819   2.669 122.390  0.00  0.00    +0.000 OA
BRANCH  14  15
ATOM     15  C   UNL     1      -6.491   3.590 121.358  0.00  0.00    +0.000 A 
ATOM     16  C   UNL     1      -7.409   3.784 120.324  0.00  0.00    +0.000 A 
ATOM     17  C   UNL     1      -7.076   4.619 119.248  0.00  0.00    +0.000 A 
ATOM     18  C   UNL     1      -5.861   5.309 119.238  0.00  0.00    +0.000 A 
ATOM     19  C   UNL     1      -4.950   5.118 120.272  0.00  0.00    +0.000 A 
ATOM     20  C   UNL     1      -5.251   4.236 121.313  0.00  0.00    +0.000 A 
ENDBRANCH  14  15
ENDBRANCH  12  14
ENDBRANCH   4  12
TORSDOF 5
ENDMDL
