MODEL 1
REMARK VINA RESULT:      -5.8      0.000      0.000
REMARK  Name = Phentermine
REMARK  5 active torsions:
REMARK  status: ('A' for Active; 'I' for Inactive)
REMARK    1  A    between atoms: C_1  and  C_2
REMARK    2  A    between atoms: C_2  and  C_3
REMARK    3  A    between atoms: C_2  and  N_4
REMARK    4  A    between atoms: C_2  and  C_5
REMARK    5  A    between atoms: C_5  and  C_6
REMARK                            x       y       z     vdW  Elec       q    Type
REMARK                         _______ _______ _______ _____ _____    ______ ____
ROOT
ATOM      1  C   UNL     1     -12.039   6.705 131.485  0.00  0.00    +0.000 C 
ENDROOT
BRANCH   1   2
ATOM      2  C   UNL     1     -12.514   7.329 130.176  0.00  0.00    +0.000 A 
ATOM      3  C   UNL     1     -12.603   8.716 129.970  0.00  0.00    +0.000 A 
ATOM      4  C   UNL     1     -13.166   9.266 128.830  0.00  0.00    +0.000 A 
ATOM      5  C   UNL     1     -13.594   8.428 127.814  0.00  0.00    +0.000 A 
ATOM      6  C   UNL     1     -13.471   7.047 127.961  0.00  0.00    +0.000 A 
ATOM      7  C   UNL     1     -12.940   6.496 129.132  0.00  0.00    +0.000 A 
ENDBRANCH   1   2
BRANCH   1   9
ATOM      8  C   UNL     1      -9.656   7.006 130.632  0.00  0.00    +0.000 C 
ATOM      9  C   UNL     1     -10.578   6.156 131.518  0.00  0.00    +0.000 C 
ATOM     10  C   UNL     1     -10.533   4.713 130.959  0.00  0.00    +0.000 C 
BRANCH   9  11
ATOM     11  N   UNL     1      -9.979   6.303 132.855  0.00  0.00    +0.000 NA
ATOM     12  H   UNL     1     -10.576   6.849 133.469  0.00  0.00    +0.000 HD
ATOM     13  H   UNL     1      -9.062   6.741 132.829  0.00  0.00    +0.000 HD
ENDBRANCH   9  11
ENDBRANCH   1   9
TORSDOF 3
ENDMDL
MODEL 2
REMARK VINA RESULT:      -5.7      0.158      1.455
REMARK  Name = Phentermine
REMARK  5 active torsions:
REMARK  status: ('A' for Active; 'I' for Inactive)
REMARK    1  A    between atoms: C_1  and  C_2
REMARK    2  A    between atoms: C_2  and  C_3
REMARK    3  A    between atoms: C_2  and  N_4
REMARK    4  A    between atoms: C_2  and  C_5
REMARK    5  A    between atoms: C_5  and  C_6
REMARK                            x       y       z     vdW  Elec       q    Type
REMARK                         _______ _______ _______ _____ _____    ______ ____
ROOT
ATOM      1  C   UNL     1     -12.144   6.830 131.500  0.00  0.00    +0.000 C 
ENDROOT
BRANCH   1   2
ATOM      2  C   UNL     1     -12.687   7.390 130.188  0.00  0.00    +0.000 A 
ATOM      3  C   UNL     1     -13.101   6.581 129.117  0.00  0.00    +0.000 A 
ATOM      4  C   UNL     1     -13.460   7.103 127.885  0.00  0.00    +0.000 A 
ATOM      5  C   UNL     1     -13.485   8.477 127.712  0.00  0.00    +0.000 A 
ATOM      6  C   UNL     1     -13.131   9.312 128.771  0.00  0.00    +0.000 A 
ATOM      7  C   UNL     1     -12.731   8.778 130.001  0.00  0.00    +0.000 A 
ENDBRANCH   1   2
BRANCH   1   9
ATOM      8  C   UNL     1      -9.778   7.042 130.576  0.00  0.00    +0.000 C 
ATOM      9  C   UNL     1     -10.712   6.211 131.467  0.00  0.00    +0.000 C 
ATOM     10  C   UNL     1     -10.756   4.785 130.864  0.00  0.00    +0.000 C 
BRANCH   9  11
ATOM     11  N   UNL     1     -10.063   6.285 132.787  0.00  0.00    +0.000 NA
ATOM     12  H   UNL     1     -10.236   7.181 133.233  0.00  0.00    +0.000 HD
ATOM     13  H   UNL     1      -9.058   6.142 132.739  0.00  0.00    +0.000 HD
ENDBRANCH   9  11
ENDBRANCH   1   9
TORSDOF 3
ENDMDL
MODEL 3
REMARK VINA RESULT:      -5.4      1.631      2.346
REMARK  Name = Phentermine
REMARK  5 active torsions:
REMARK  status: ('A' for Active; 'I' for Inactive)
REMARK    1  A    between atoms: C_1  and  C_2
REMARK    2  A    between atoms: C_2  and  C_3
REMARK    3  A    between atoms: C_2  and  N_4
REMARK    4  A    between atoms: C_2  and  C_5
REMARK    5  A    between atoms: C_5  and  C_6
REMARK                            x       y       z     vdW  Elec       q    Type
REMARK                         _______ _______ _______ _____ _____    ______ ____
ROOT
ATOM      1  C   UNL     1     -11.548   5.708 130.189  0.00  0.00    +0.000 C 
ENDROOT
BRANCH   1   2
ATOM      2  C   UNL     1     -12.327   6.850 129.543  0.00  0.00    +0.000 A 
ATOM      3  C   UNL     1     -13.141   6.685 128.411  0.00  0.00    +0.000 A 
ATOM      4  C   UNL     1     -13.730   7.753 127.753  0.00  0.00    +0.000 A 
ATOM      5  C   UNL     1     -13.577   9.031 128.265  0.00  0.00    +0.000 A 
ATOM      6  C   UNL     1     -12.819   9.225 129.420  0.00  0.00    +0.000 A 
ATOM      7  C   UNL     1     -12.193   8.148 130.055  0.00  0.00    +0.000 A 
ENDBRANCH   1   2
BRANCH   1   9
ATOM      8  C   UNL     1      -9.454   4.257 130.106  0.00  0.00    +0.000 C 
ATOM      9  C   UNL     1     -10.005   5.683 129.959  0.00  0.00    +0.000 C 
ATOM     10  C   UNL     1      -9.289   6.553 131.020  0.00  0.00    +0.000 C 
BRANCH   9  11
ATOM     11  N   UNL     1      -9.664   6.027 128.568  0.00  0.00    +0.000 NA
ATOM     12  H   UNL     1      -9.840   7.009 128.377  0.00  0.00    +0.000 HD
ATOM     13  H   UNL     1     -10.177   5.473 127.888  0.00  0.00    +0.000 HD
ENDBRANCH   9  11
ENDBRANCH   1   9
TORSDOF 3
ENDMDL
MODEL 4
REMARK VINA RESULT:      -5.1     10.812     12.034
REMARK  Name = Phentermine
REMARK  5 active torsions:
REMARK  status: ('A' for Active; 'I' for Inactive)
REMARK    1  A    between atoms: C_1  and  C_2
REMARK    2  A    between atoms: C_2  and  C_3
REMARK    3  A    between atoms: C_2  and  N_4
REMARK    4  A    between atoms: C_2  and  C_5
REMARK    5  A    between atoms: C_5  and  C_6
REMARK                            x       y       z     vdW  Elec       q    Type
REMARK                         _______ _______ _______ _____ _____    ______ ____
ROOT
ATOM      1  C   UNL     1      -8.592  -1.768 125.158  0.00  0.00    +0.000 C 
ENDROOT
BRANCH   1   2
ATOM      2  C   UNL     1      -8.403  -2.377 126.545  0.00  0.00    +0.000 A 
ATOM      3  C   UNL     1      -9.092  -3.518 126.988  0.00  0.00    +0.000 A 
ATOM      4  C   UNL     1      -9.014  -3.976 128.293  0.00  0.00    +0.000 A 
ATOM      5  C   UNL     1      -8.172  -3.337 129.187  0.00  0.00    +0.000 A 
ATOM      6  C   UNL     1      -7.431  -2.233 128.766  0.00  0.00    +0.000 A 
ATOM      7  C   UNL     1      -7.544  -1.749 127.459  0.00  0.00    +0.000 A 
ENDBRANCH   1   2
BRANCH   1   9
ATOM      8  C   UNL     1      -7.699  -1.839 122.772  0.00  0.00    +0.000 C 
ATOM      9  C   UNL     1      -8.253  -2.675 123.935  0.00  0.00    +0.000 C 
ATOM     10  C   UNL     1      -9.531  -3.377 123.414  0.00  0.00    +0.000 C 
BRANCH   9  11
ATOM     11  N   UNL     1      -7.143  -3.595 124.239  0.00  0.00    +0.000 NA
ATOM     12  H   UNL     1      -7.070  -3.768 125.237  0.00  0.00    +0.000 HD
ATOM     13  H   UNL     1      -6.246  -3.251 123.908  0.00  0.00    +0.000 HD
ENDBRANCH   9  11
ENDBRANCH   1   9
TORSDOF 3
ENDMDL
MODEL 5
REMARK VINA RESULT:      -5.0      2.226      4.611
REMARK  Name = Phentermine
REMARK  5 active torsions:
REMARK  status: ('A' for Active; 'I' for Inactive)
REMARK    1  A    between atoms: C_1  and  C_2
REMARK    2  A    between atoms: C_2  and  C_3
REMARK    3  A    between atoms: C_2  and  N_4
REMARK    4  A    between atoms: C_2  and  C_5
REMARK    5  A    between atoms: C_5  and  C_6
REMARK                            x       y       z     vdW  Elec       q    Type
REMARK                         _______ _______ _______ _____ _____    ______ ____
ROOT
ATOM      1  C   UNL     1     -12.137   7.970 130.114  0.00  0.00    +0.000 C 
ENDROOT
BRANCH   1   2
ATOM      2  C   UNL     1     -11.153   6.810 130.235  0.00  0.00    +0.000 A 
ATOM      3  C   UNL     1     -11.541   5.461 130.194  0.00  0.00    +0.000 A 
ATOM      4  C   UNL     1     -10.659   4.423 130.443  0.00  0.00    +0.000 A 
ATOM      5  C   UNL     1      -9.323   4.709 130.670  0.00  0.00    +0.000 A 
ATOM      6  C   UNL     1      -8.891   6.035 130.664  0.00  0.00    +0.000 A 
ATOM      7  C   UNL     1      -9.795   7.081 130.453  0.00  0.00    +0.000 A 
ENDBRANCH   1   2
BRANCH   1   9
ATOM      8  C   UNL     1     -13.611   7.589 128.070  0.00  0.00    +0.000 C 
ATOM      9  C   UNL     1     -12.491   8.451 128.673  0.00  0.00    +0.000 C 
ATOM     10  C   UNL     1     -11.263   8.308 127.741  0.00  0.00    +0.000 C 
BRANCH   9  11
ATOM     11  N   UNL     1     -13.083   9.800 128.685  0.00  0.00    +0.000 NA
ATOM     12  H   UNL     1     -12.942  10.256 129.582  0.00  0.00    +0.000 HD
ATOM     13  H   UNL     1     -14.079   9.794 128.484  0.00  0.00    +0.000 HD
ENDBRANCH   9  11
ENDBRANCH   1   9
TORSDOF 3
ENDMDL
MODEL 6
REMARK VINA RESULT:      -4.7      2.112      4.555
REMARK  Name = Phentermine
REMARK  5 active torsions:
REMARK  status: ('A' for Active; 'I' for Inactive)
REMARK    1  A    between atoms: C_1  and  C_2
REMARK    2  A    between atoms: C_2  and  C_3
REMARK    3  A    between atoms: C_2  and  N_4
REMARK    4  A    between atoms: C_2  and  C_5
REMARK    5  A    between atoms: C_5  and  C_6
REMARK                            x       y       z     vdW  Elec       q    Type
REMARK                         _______ _______ _______ _____ _____    ______ ____
ROOT
ATOM      1  C   UNL     1     -11.107   7.190 128.586  0.00  0.00    +0.000 C 
ENDROOT
BRANCH   1   2
ATOM      2  C   UNL     1     -10.323   6.573 129.740  0.00  0.00    +0.000 A 
ATOM      3  C   UNL     1      -9.235   7.208 130.360  0.00  0.00    +0.000 A 
ATOM      4  C   UNL     1      -8.447   6.579 131.311  0.00  0.00    +0.000 A 
ATOM      5  C   UNL     1      -8.779   5.301 131.728  0.00  0.00    +0.000 A 
ATOM      6  C   UNL     1      -9.886   4.660 131.173  0.00  0.00    +0.000 A 
ATOM      7  C   UNL     1     -10.653   5.285 130.184  0.00  0.00    +0.000 A 
ENDBRANCH   1   2
BRANCH   1   9
ATOM      8  C   UNL     1     -12.680   7.905 130.460  0.00  0.00    +0.000 C 
ATOM      9  C   UNL     1     -12.459   7.884 128.940  0.00  0.00    +0.000 C 
ATOM     10  C   UNL     1     -13.644   7.100 128.325  0.00  0.00    +0.000 C 
BRANCH   9  11
ATOM     11  N   UNL     1     -12.437   9.314 128.590  0.00  0.00    +0.000 NA
ATOM     12  H   UNL     1     -12.562   9.898 129.411  0.00  0.00    +0.000 HD
ATOM     13  H   UNL     1     -13.151   9.563 127.910  0.00  0.00    +0.000 HD
ENDBRANCH   9  11
ENDBRANCH   1   9
TORSDOF 3
ENDMDL
MODEL 7
REMARK VINA RESULT:      -4.7      2.007      4.967
REMARK  Name = Phentermine
REMARK  5 active torsions:
REMARK  status: ('A' for Active; 'I' for Inactive)
REMARK    1  A    between atoms: C_1  and  C_2
REMARK    2  A    between atoms: C_2  and  C_3
REMARK    3  A    between atoms: C_2  and  N_4
REMARK    4  A    between atoms: C_2  and  C_5
REMARK    5  A    between atoms: C_5  and  C_6
REMARK                            x       y       z     vdW  Elec       q    Type
REMARK                         _______ _______ _______ _____ _____    ______ ____
ROOT
ATOM      1  C   UNL     1     -10.454   7.413 129.922  0.00  0.00    +0.000 C 
ENDROOT
BRANCH   1   2
ATOM      2  C   UNL     1      -9.495   6.801 130.939  0.00  0.00    +0.000 A 
ATOM      3  C   UNL     1      -9.919   6.204 132.138  0.00  0.00    +0.000 A 
ATOM      4  C   UNL     1      -9.032   5.779 133.114  0.00  0.00    +0.000 A 
ATOM      5  C   UNL     1      -7.671   5.873 132.879  0.00  0.00    +0.000 A 
ATOM      6  C   UNL     1      -7.214   6.411 131.677  0.00  0.00    +0.000 A 
ATOM      7  C   UNL     1      -8.114   6.877 130.713  0.00  0.00    +0.000 A 
ENDBRANCH   1   2
BRANCH   1   9
ATOM      8  C   UNL     1     -12.402   7.009 128.329  0.00  0.00    +0.000 C 
ATOM      9  C   UNL     1     -11.821   6.689 129.714  0.00  0.00    +0.000 C 
ATOM     10  C   UNL     1     -12.854   7.179 130.758  0.00  0.00    +0.000 C 
BRANCH   9  11
ATOM     11  N   UNL     1     -11.655   5.226 129.673  0.00  0.00    +0.000 NA
ATOM     12  H   UNL     1     -11.487   4.848 130.600  0.00  0.00    +0.000 HD
ATOM     13  H   UNL     1     -10.893   4.934 129.067  0.00  0.00    +0.000 HD
ENDBRANCH   9  11
ENDBRANCH   1   9
TORSDOF 3
ENDMDL
MODEL 8
REMARK VINA RESULT:      -4.4      9.114     10.361
REMARK  Name = Phentermine
REMARK  5 active torsions:
REMARK  status: ('A' for Active; 'I' for Inactive)
REMARK    1  A    between atoms: C_1  and  C_2
REMARK    2  A    between atoms: C_2  and  C_3
REMARK    3  A    between atoms: C_2  and  N_4
REMARK    4  A    between atoms: C_2  and  C_5
REMARK    5  A    between atoms: C_5  and  C_6
REMARK                            x       y       z     vdW  Elec       q    Type
REMARK                         _______ _______ _______ _____ _____    ______ ____
ROOT
ATOM      1  C   UNL     1      -2.819   5.146 130.357  0.00  0.00    +0.000 C 
ENDROOT
BRANCH   1   2
ATOM      2  C   UNL     1      -2.341   6.234 131.314  0.00  0.00    +0.000 A 
ATOM      3  C   UNL     1      -3.139   7.321 131.707  0.00  0.00    +0.000 A 
ATOM      4  C   UNL     1      -2.647   8.372 132.464  0.00  0.00    +0.000 A 
ATOM      5  C   UNL     1      -1.340   8.325 132.920  0.00  0.00    +0.000 A 
ATOM      6  C   UNL     1      -0.535   7.234 132.594  0.00  0.00    +0.000 A 
ATOM      7  C   UNL     1      -1.025   6.196 131.795  0.00  0.00    +0.000 A 
ENDBRANCH   1   2
BRANCH   1   9
ATOM      8  C   UNL     1      -2.833   4.401 127.920  0.00  0.00    +0.000 C 
ATOM      9  C   UNL     1      -3.089   5.571 128.880  0.00  0.00    +0.000 C 
ATOM     10  C   UNL     1      -2.128   6.712 128.465  0.00  0.00    +0.000 C 
BRANCH   9  11
ATOM     11  N   UNL     1      -4.513   5.874 128.660  0.00  0.00    +0.000 NA
ATOM     12  H   UNL     1      -4.858   6.542 129.343  0.00  0.00    +0.000 HD
ATOM     13  H   UNL     1      -5.102   5.046 128.698  0.00  0.00    +0.000 HD
ENDBRANCH   9  11
ENDBRANCH   1   9
TORSDOF 3
ENDMDL
MODEL 9
REMARK VINA RESULT:      -4.4      9.995     11.198
REMARK  Name = Phentermine
REMARK  5 active torsions:
REMARK  status: ('A' for Active; 'I' for Inactive)
REMARK    1  A    between atoms: C_1  and  C_2
REMARK    2  A    between atoms: C_2  and  C_3
REMARK    3  A    between atoms: C_2  and  N_4
REMARK    4  A    between atoms: C_2  and  C_5
REMARK    5  A    between atoms: C_5  and  C_6
REMARK                            x       y       z     vdW  Elec       q    Type
REMARK                         _______ _______ _______ _____ _____    ______ ____
ROOT
ATOM      1  C   UNL     1      -7.789  -1.441 127.699  0.00  0.00    +0.000 C 
ENDROOT
BRANCH   1   2
ATOM      2  C   UNL     1      -7.949  -2.196 126.382  0.00  0.00    +0.000 A 
ATOM      3  C   UNL     1      -6.863  -2.657 125.621  0.00  0.00    +0.000 A 
ATOM      4  C   UNL     1      -7.018  -3.217 124.363  0.00  0.00    +0.000 A 
ATOM      5  C   UNL     1      -8.294  -3.401 123.856  0.00  0.00    +0.000 A 
ATOM      6  C   UNL     1      -9.399  -3.005 124.609  0.00  0.00    +0.000 A 
ATOM      7  C   UNL     1      -9.234  -2.402 125.861  0.00  0.00    +0.000 A 
ENDBRANCH   1   2
BRANCH   1   9
ATOM      8  C   UNL     1      -6.264  -2.785 129.236  0.00  0.00    +0.000 C 
ATOM      9  C   UNL     1      -7.701  -2.298 129.000  0.00  0.00    +0.000 C 
ATOM     10  C   UNL     1      -8.588  -3.561 128.873  0.00  0.00    +0.000 C 
BRANCH   9  11
ATOM     11  N   UNL     1      -7.976  -1.487 130.198  0.00  0.00    +0.000 NA
ATOM     12  H   UNL     1      -8.953  -1.550 130.470  0.00  0.00    +0.000 HD
ATOM     13  H   UNL     1      -7.744  -0.506 130.070  0.00  0.00    +0.000 HD
ENDBRANCH   9  11
ENDBRANCH   1   9
TORSDOF 3
ENDMDL
