MODEL 1
REMARK VINA RESULT:      -6.8      0.000      0.000
REMARK  Name = Phenoxybenzamine
REMARK  9 active torsions:
REMARK  status: ('A' for Active; 'I' for Inactive)
REMARK    1  A    between atoms: C_1  and  C_2
REMARK    2  A    between atoms: C_2  and  C_3
REMARK    3  A    between atoms: C_2  and  N_11
REMARK    4  A    between atoms: C_3  and  O_4
REMARK    5  A    between atoms: O_4  and  C_5
REMARK    6  A    between atoms: N_11  and  C_12
REMARK    7  A    between atoms: N_11  and  C_15
REMARK    8  A    between atoms: C_12  and  C_13
REMARK    9  A    between atoms: C_15  and  C_16
REMARK                            x       y       z     vdW  Elec       q    Type
REMARK                         _______ _______ _______ _____ _____    ______ ____
ROOT
ATOM      1  N   UNL     1      -7.230   2.948 123.674  0.00  0.00    +0.000 NA
ENDROOT
BRANCH   1   3
ATOM      2  C   UNL     1      -9.410   1.966 122.751  0.00  0.00    +0.000 C 
ATOM      3  C   UNL     1      -8.530   2.275 123.980  0.00  0.00    +0.000 C 
BRANCH   3   4
ATOM      4  C   UNL     1      -8.342   0.912 124.691  0.00  0.00    +0.000 C 
BRANCH   4   5
ATOM      5  O   UNL     1      -8.643  -0.118 123.745  0.00  0.00    +0.000 OA
BRANCH   5   6
ATOM      6  C   UNL     1      -7.841  -1.210 123.776  0.00  0.00    +0.000 A 
ATOM      7  C   UNL     1      -8.454  -2.403 124.145  0.00  0.00    +0.000 A 
ATOM      8  C   UNL     1      -7.685  -3.543 124.357  0.00  0.00    +0.000 A 
ATOM      9  C   UNL     1      -6.302  -3.490 124.157  0.00  0.00    +0.000 A 
ATOM     10  C   UNL     1      -5.697  -2.301 123.766  0.00  0.00    +0.000 A 
ATOM     11  C   UNL     1      -6.460  -1.154 123.585  0.00  0.00    +0.000 A 
ENDBRANCH   5   6
ENDBRANCH   4   5
ENDBRANCH   3   4
ENDBRANCH   1   3
BRANCH   1  12
ATOM     12  C   UNL     1      -6.183   2.710 124.711  0.00  0.00    +0.000 C 
BRANCH  12  13
ATOM     13  C   UNL     1      -5.317   3.866 125.213  0.00  0.00    +0.000 C 
ATOM     14 CL   UNL     1      -6.160   5.433 125.030  0.00  0.00    +0.000 Cl
ENDBRANCH  12  13
ENDBRANCH   1  12
BRANCH   1  15
ATOM     15  C   UNL     1      -6.712   2.519 122.322  0.00  0.00    +0.000 C 
BRANCH  15  16
ATOM     16  C   UNL     1      -6.431   3.677 121.379  0.00  0.00    +0.000 A 
ATOM     17  C   UNL     1      -7.297   3.930 120.306  0.00  0.00    +0.000 A 
ATOM     18  C   UNL     1      -6.858   4.668 119.214  0.00  0.00    +0.000 A 
ATOM     19  C   UNL     1      -5.634   5.331 119.274  0.00  0.00    +0.000 A 
ATOM     20  C   UNL     1      -4.844   5.233 120.418  0.00  0.00    +0.000 A 
ATOM     21  C   UNL     1      -5.227   4.391 121.461  0.00  0.00    +0.000 A 
ENDBRANCH  15  16
ENDBRANCH   1  15
TORSDOF 8
ENDMDL
MODEL 2
REMARK VINA RESULT:      -6.7      2.884      7.450
REMARK  Name = Phenoxybenzamine
REMARK  9 active torsions:
REMARK  status: ('A' for Active; 'I' for Inactive)
REMARK    1  A    between atoms: C_1  and  C_2
REMARK    2  A    between atoms: C_2  and  C_3
REMARK    3  A    between atoms: C_2  and  N_11
REMARK    4  A    between atoms: C_3  and  O_4
REMARK    5  A    between atoms: O_4  and  C_5
REMARK    6  A    between atoms: N_11  and  C_12
REMARK    7  A    between atoms: N_11  and  C_15
REMARK    8  A    between atoms: C_12  and  C_13
REMARK    9  A    between atoms: C_15  and  C_16
REMARK                            x       y       z     vdW  Elec       q    Type
REMARK                         _______ _______ _______ _____ _____    ______ ____
ROOT
ATOM      1  N   UNL     1      -8.375  -0.317 124.200  0.00  0.00    +0.000 NA
ENDROOT
BRANCH   1   3
ATOM      2  C   UNL     1     -10.115   1.565 124.200  0.00  0.00    +0.000 C 
ATOM      3  C   UNL     1      -8.933   0.874 123.489  0.00  0.00    +0.000 C 
BRANCH   3   4
ATOM      4  C   UNL     1      -7.881   1.992 123.282  0.00  0.00    +0.000 C 
BRANCH   4   5
ATOM      5  O   UNL     1      -8.276   2.755 122.139  0.00  0.00    +0.000 OA
BRANCH   5   6
ATOM      6  C   UNL     1      -7.307   3.504 121.558  0.00  0.00    +0.000 A 
ATOM      7  C   UNL     1      -7.588   3.974 120.279  0.00  0.00    +0.000 A 
ATOM      8  C   UNL     1      -6.598   4.616 119.541  0.00  0.00    +0.000 A 
ATOM      9  C   UNL     1      -5.337   4.820 120.109  0.00  0.00    +0.000 A 
ATOM     10  C   UNL     1      -5.068   4.369 121.396  0.00  0.00    +0.000 A 
ATOM     11  C   UNL     1      -6.045   3.699 122.122  0.00  0.00    +0.000 A 
ENDBRANCH   5   6
ENDBRANCH   4   5
ENDBRANCH   3   4
ENDBRANCH   1   3
BRANCH   1  12
ATOM     12  C   UNL     1      -6.949  -0.597 123.856  0.00  0.00    +0.000 C 
BRANCH  12  13
ATOM     13  C   UNL     1      -6.562  -1.916 123.187  0.00  0.00    +0.000 C 
ATOM     14 CL   UNL     1      -5.824  -3.045 124.362  0.00  0.00    +0.000 Cl
ENDBRANCH  12  13
ENDBRANCH   1  12
BRANCH   1  15
ATOM     15  C   UNL     1      -8.513  -0.158 125.696  0.00  0.00    +0.000 C 
BRANCH  15  16
ATOM     16  C   UNL     1      -8.318  -1.451 126.469  0.00  0.00    +0.000 A 
ATOM     17  C   UNL     1      -9.034  -2.599 126.102  0.00  0.00    +0.000 A 
ATOM     18  C   UNL     1      -9.210  -3.634 127.013  0.00  0.00    +0.000 A 
ATOM     19  C   UNL     1      -8.504  -3.624 128.214  0.00  0.00    +0.000 A 
ATOM     20  C   UNL     1      -7.643  -2.568 128.509  0.00  0.00    +0.000 A 
ATOM     21  C   UNL     1      -7.565  -1.471 127.652  0.00  0.00    +0.000 A 
ENDBRANCH  15  16
ENDBRANCH   1  15
TORSDOF 8
ENDMDL
MODEL 3
REMARK VINA RESULT:      -6.5      2.082      3.092
REMARK  Name = Phenoxybenzamine
REMARK  9 active torsions:
REMARK  status: ('A' for Active; 'I' for Inactive)
REMARK    1  A    between atoms: C_1  and  C_2
REMARK    2  A    between atoms: C_2  and  C_3
REMARK    3  A    between atoms: C_2  and  N_11
REMARK    4  A    between atoms: C_3  and  O_4
REMARK    5  A    between atoms: O_4  and  C_5
REMARK    6  A    between atoms: N_11  and  C_12
REMARK    7  A    between atoms: N_11  and  C_15
REMARK    8  A    between atoms: C_12  and  C_13
REMARK    9  A    between atoms: C_15  and  C_16
REMARK                            x       y       z     vdW  Elec       q    Type
REMARK                         _______ _______ _______ _____ _____    ______ ____
ROOT
ATOM      1  N   UNL     1      -7.505   1.829 124.371  0.00  0.00    +0.000 NA
ENDROOT
BRANCH   1   3
ATOM      2  C   UNL     1      -5.449   2.377 125.800  0.00  0.00    +0.000 C 
ATOM      3  C   UNL     1      -6.340   1.300 125.146  0.00  0.00    +0.000 C 
BRANCH   3   4
ATOM      4  C   UNL     1      -6.770   0.374 126.310  0.00  0.00    +0.000 C 
BRANCH   4   5
ATOM      5  O   UNL     1      -6.438  -0.968 125.943  0.00  0.00    +0.000 OA
BRANCH   5   6
ATOM      6  C   UNL     1      -7.410  -1.672 125.312  0.00  0.00    +0.000 A 
ATOM      7  C   UNL     1      -8.493  -2.051 126.098  0.00  0.00    +0.000 A 
ATOM      8  C   UNL     1      -9.462  -2.906 125.582  0.00  0.00    +0.000 A 
ATOM      9  C   UNL     1      -9.359  -3.346 124.259  0.00  0.00    +0.000 A 
ATOM     10  C   UNL     1      -8.287  -2.946 123.469  0.00  0.00    +0.000 A 
ATOM     11  C   UNL     1      -7.302  -2.117 123.993  0.00  0.00    +0.000 A 
ENDBRANCH   5   6
ENDBRANCH   4   5
ENDBRANCH   3   4
ENDBRANCH   1   3
BRANCH   1  12
ATOM     12  C   UNL     1      -8.780   1.829 125.148  0.00  0.00    +0.000 C 
BRANCH  12  13
ATOM     13  C   UNL     1     -10.007   1.086 124.617  0.00  0.00    +0.000 C 
ATOM     14 CL   UNL     1      -9.697   0.403 122.994  0.00  0.00    +0.000 Cl
ENDBRANCH  12  13
ENDBRANCH   1  12
BRANCH   1  15
ATOM     15  C   UNL     1      -7.220   3.223 123.863  0.00  0.00    +0.000 C 
BRANCH  15  16
ATOM     16  C   UNL     1      -7.238   3.337 122.349  0.00  0.00    +0.000 A 
ATOM     17  C   UNL     1      -6.034   3.485 121.645  0.00  0.00    +0.000 A 
ATOM     18  C   UNL     1      -6.036   4.012 120.360  0.00  0.00    +0.000 A 
ATOM     19  C   UNL     1      -7.245   4.200 119.692  0.00  0.00    +0.000 A 
ATOM     20  C   UNL     1      -8.447   3.883 120.323  0.00  0.00    +0.000 A 
ATOM     21  C   UNL     1      -8.449   3.474 121.655  0.00  0.00    +0.000 A 
ENDBRANCH  15  16
ENDBRANCH   1  15
TORSDOF 8
ENDMDL
MODEL 4
REMARK VINA RESULT:      -6.5      3.453      5.137
REMARK  Name = Phenoxybenzamine
REMARK  9 active torsions:
REMARK  status: ('A' for Active; 'I' for Inactive)
REMARK    1  A    between atoms: C_1  and  C_2
REMARK    2  A    between atoms: C_2  and  C_3
REMARK    3  A    between atoms: C_2  and  N_11
REMARK    4  A    between atoms: C_3  and  O_4
REMARK    5  A    between atoms: O_4  and  C_5
REMARK    6  A    between atoms: N_11  and  C_12
REMARK    7  A    between atoms: N_11  and  C_15
REMARK    8  A    between atoms: C_12  and  C_13
REMARK    9  A    between atoms: C_15  and  C_16
REMARK                            x       y       z     vdW  Elec       q    Type
REMARK                         _______ _______ _______ _____ _____    ______ ____
ROOT
ATOM      1  N   UNL     1      -7.900  -1.223 127.661  0.00  0.00    +0.000 NA
ENDROOT
BRANCH   1   3
ATOM      2  C   UNL     1      -8.511  -3.454 128.765  0.00  0.00    +0.000 C 
ATOM      3  C   UNL     1      -8.019  -2.706 127.509  0.00  0.00    +0.000 C 
BRANCH   3   4
ATOM      4  C   UNL     1      -9.006  -3.112 126.387  0.00  0.00    +0.000 C 
BRANCH   4   5
ATOM      5  O   UNL     1      -8.303  -3.960 125.475  0.00  0.00    +0.000 OA
BRANCH   5   6
ATOM      6  C   UNL     1      -7.752  -3.350 124.397  0.00  0.00    +0.000 A 
ATOM      7  C   UNL     1      -6.362  -3.328 124.356  0.00  0.00    +0.000 A 
ATOM      8  C   UNL     1      -5.706  -2.592 123.375  0.00  0.00    +0.000 A 
ATOM      9  C   UNL     1      -6.453  -1.911 122.408  0.00  0.00    +0.000 A 
ATOM     10  C   UNL     1      -7.843  -1.955 122.439  0.00  0.00    +0.000 A 
ATOM     11  C   UNL     1      -8.499  -2.664 123.438  0.00  0.00    +0.000 A 
ENDBRANCH   5   6
ENDBRANCH   4   5
ENDBRANCH   3   4
ENDBRANCH   1   3
BRANCH   1  12
ATOM     12  C   UNL     1      -7.531  -0.798 129.044  0.00  0.00    +0.000 C 
BRANCH  12  13
ATOM     13  C   UNL     1      -7.233   0.671 129.347  0.00  0.00    +0.000 C 
ATOM     14 CL   UNL     1      -8.614   1.715 128.900  0.00  0.00    +0.000 Cl
ENDBRANCH  12  13
ENDBRANCH   1  12
BRANCH   1  15
ATOM     15  C   UNL     1      -6.901  -0.663 126.676  0.00  0.00    +0.000 C 
BRANCH  15  16
ATOM     16  C   UNL     1      -7.510   0.294 125.665  0.00  0.00    +0.000 A 
ATOM     17  C   UNL     1      -8.904   0.403 125.558  0.00  0.00    +0.000 A 
ATOM     18  C   UNL     1      -9.477   0.913 124.399  0.00  0.00    +0.000 A 
ATOM     19  C   UNL     1      -8.669   1.506 123.431  0.00  0.00    +0.000 A 
ATOM     20  C   UNL     1      -7.288   1.564 123.616  0.00  0.00    +0.000 A 
ATOM     21  C   UNL     1      -6.704   0.941 124.717  0.00  0.00    +0.000 A 
ENDBRANCH  15  16
ENDBRANCH   1  15
TORSDOF 8
ENDMDL
MODEL 5
REMARK VINA RESULT:      -6.4      2.779      3.678
REMARK  Name = Phenoxybenzamine
REMARK  9 active torsions:
REMARK  status: ('A' for Active; 'I' for Inactive)
REMARK    1  A    between atoms: C_1  and  C_2
REMARK    2  A    between atoms: C_2  and  C_3
REMARK    3  A    between atoms: C_2  and  N_11
REMARK    4  A    between atoms: C_3  and  O_4
REMARK    5  A    between atoms: O_4  and  C_5
REMARK    6  A    between atoms: N_11  and  C_12
REMARK    7  A    between atoms: N_11  and  C_15
REMARK    8  A    between atoms: C_12  and  C_13
REMARK    9  A    between atoms: C_15  and  C_16
REMARK                            x       y       z     vdW  Elec       q    Type
REMARK                         _______ _______ _______ _____ _____    ______ ____
ROOT
ATOM      1  N   UNL     1      -7.775   1.501 124.078  0.00  0.00    +0.000 NA
ENDROOT
BRANCH   1   3
ATOM      2  C   UNL     1      -6.314   1.659 126.179  0.00  0.00    +0.000 C 
ATOM      3  C   UNL     1      -6.623   0.939 124.850  0.00  0.00    +0.000 C 
BRANCH   3   4
ATOM      4  C   UNL     1      -6.833  -0.545 125.236  0.00  0.00    +0.000 C 
BRANCH   4   5
ATOM      5  O   UNL     1      -6.969  -0.609 126.659  0.00  0.00    +0.000 OA
BRANCH   5   6
ATOM      6  C   UNL     1      -7.532  -1.739 127.154  0.00  0.00    +0.000 A 
ATOM      7  C   UNL     1      -8.333  -2.455 126.271  0.00  0.00    +0.000 A 
ATOM      8  C   UNL     1      -9.078  -3.538 126.729  0.00  0.00    +0.000 A 
ATOM      9  C   UNL     1      -8.981  -3.924 128.069  0.00  0.00    +0.000 A 
ATOM     10  C   UNL     1      -8.161  -3.219 128.943  0.00  0.00    +0.000 A 
ATOM     11  C   UNL     1      -7.442  -2.118 128.494  0.00  0.00    +0.000 A 
ENDBRANCH   5   6
ENDBRANCH   4   5
ENDBRANCH   3   4
ENDBRANCH   1   3
BRANCH   1  12
ATOM     12  C   UNL     1      -9.078   1.389 124.798  0.00  0.00    +0.000 C 
BRANCH  12  13
ATOM     13  C   UNL     1     -10.393   1.393 124.017  0.00  0.00    +0.000 C 
ATOM     14 CL   UNL     1     -10.244   0.468 122.494  0.00  0.00    +0.000 Cl
ENDBRANCH  12  13
ENDBRANCH   1  12
BRANCH   1  15
ATOM     15  C   UNL     1      -7.519   2.945 123.714  0.00  0.00    +0.000 C 
BRANCH  15  16
ATOM     16  C   UNL     1      -7.388   3.183 122.219  0.00  0.00    +0.000 A 
ATOM     17  C   UNL     1      -6.116   3.306 121.641  0.00  0.00    +0.000 A 
ATOM     18  C   UNL     1      -5.967   3.936 120.411  0.00  0.00    +0.000 A 
ATOM     19  C   UNL     1      -7.094   4.259 119.658  0.00  0.00    +0.000 A 
ATOM     20  C   UNL     1      -8.366   3.973 120.150  0.00  0.00    +0.000 A 
ATOM     21  C   UNL     1      -8.518   3.458 121.436  0.00  0.00    +0.000 A 
ENDBRANCH  15  16
ENDBRANCH   1  15
TORSDOF 8
ENDMDL
MODEL 6
REMARK VINA RESULT:      -6.2      1.387      1.682
REMARK  Name = Phenoxybenzamine
REMARK  9 active torsions:
REMARK  status: ('A' for Active; 'I' for Inactive)
REMARK    1  A    between atoms: C_1  and  C_2
REMARK    2  A    between atoms: C_2  and  C_3
REMARK    3  A    between atoms: C_2  and  N_11
REMARK    4  A    between atoms: C_3  and  O_4
REMARK    5  A    between atoms: O_4  and  C_5
REMARK    6  A    between atoms: N_11  and  C_12
REMARK    7  A    between atoms: N_11  and  C_15
REMARK    8  A    between atoms: C_12  and  C_13
REMARK    9  A    between atoms: C_15  and  C_16
REMARK                            x       y       z     vdW  Elec       q    Type
REMARK                         _______ _______ _______ _____ _____    ______ ____
ROOT
ATOM      1  N   UNL     1      -8.333   3.131 124.301  0.00  0.00    +0.000 NA
ENDROOT
BRANCH   1   3
ATOM      2  C   UNL     1     -10.009   1.196 124.418  0.00  0.00    +0.000 C 
ATOM      3  C   UNL     1      -8.830   1.948 125.070  0.00  0.00    +0.000 C 
BRANCH   3   4
ATOM      4  C   UNL     1      -7.736   0.873 125.282  0.00  0.00    +0.000 C 
BRANCH   4   5
ATOM      5  O   UNL     1      -8.084  -0.265 124.487  0.00  0.00    +0.000 OA
BRANCH   5   6
ATOM      6  C   UNL     1      -7.068  -1.105 124.171  0.00  0.00    +0.000 A 
ATOM      7  C   UNL     1      -6.804  -1.254 122.813  0.00  0.00    +0.000 A 
ATOM      8  C   UNL     1      -5.888  -2.210 122.384  0.00  0.00    +0.000 A 
ATOM      9  C   UNL     1      -5.209  -2.987 123.327  0.00  0.00    +0.000 A 
ATOM     10  C   UNL     1      -5.459  -2.818 124.684  0.00  0.00    +0.000 A 
ATOM     11  C   UNL     1      -6.397  -1.886 125.113  0.00  0.00    +0.000 A 
ENDBRANCH   5   6
ENDBRANCH   4   5
ENDBRANCH   3   4
ENDBRANCH   1   3
BRANCH   1  12
ATOM     12  C   UNL     1      -7.848   4.241 125.174  0.00  0.00    +0.000 C 
BRANCH  12  13
ATOM     13  C   UNL     1      -6.357   4.387 125.479  0.00  0.00    +0.000 C 
ATOM     14 CL   UNL     1      -5.961   3.741 127.099  0.00  0.00    +0.000 Cl
ENDBRANCH  12  13
ENDBRANCH   1  12
BRANCH   1  15
ATOM     15  C   UNL     1      -7.238   2.723 123.344  0.00  0.00    +0.000 C 
BRANCH  15  16
ATOM     16  C   UNL     1      -7.255   3.491 122.033  0.00  0.00    +0.000 A 
ATOM     17  C   UNL     1      -8.455   3.635 121.323  0.00  0.00    +0.000 A 
ATOM     18  C   UNL     1      -8.433   3.934 119.967  0.00  0.00    +0.000 A 
ATOM     19  C   UNL     1      -7.233   4.295 119.358  0.00  0.00    +0.000 A 
ATOM     20  C   UNL     1      -6.056   4.331 120.105  0.00  0.00    +0.000 A 
ATOM     21  C   UNL     1      -6.058   3.909 121.433  0.00  0.00    +0.000 A 
ENDBRANCH  15  16
ENDBRANCH   1  15
TORSDOF 8
ENDMDL
MODEL 7
REMARK VINA RESULT:      -6.2      1.633      6.810
REMARK  Name = Phenoxybenzamine
REMARK  9 active torsions:
REMARK  status: ('A' for Active; 'I' for Inactive)
REMARK    1  A    between atoms: C_1  and  C_2
REMARK    2  A    between atoms: C_2  and  C_3
REMARK    3  A    between atoms: C_2  and  N_11
REMARK    4  A    between atoms: C_3  and  O_4
REMARK    5  A    between atoms: O_4  and  C_5
REMARK    6  A    between atoms: N_11  and  C_12
REMARK    7  A    between atoms: N_11  and  C_15
REMARK    8  A    between atoms: C_12  and  C_13
REMARK    9  A    between atoms: C_15  and  C_16
REMARK                            x       y       z     vdW  Elec       q    Type
REMARK                         _______ _______ _______ _____ _____    ______ ____
ROOT
ATOM      1  N   UNL     1      -7.971   0.643 123.730  0.00  0.00    +0.000 NA
ENDROOT
BRANCH   1   3
ATOM      2  C   UNL     1     -10.384   1.504 123.650  0.00  0.00    +0.000 C 
ATOM      3  C   UNL     1      -8.997   1.430 122.978  0.00  0.00    +0.000 C 
BRANCH   3   4
ATOM      4  C   UNL     1      -8.575   2.905 122.764  0.00  0.00    +0.000 C 
BRANCH   4   5
ATOM      5  O   UNL     1      -8.797   3.225 121.387  0.00  0.00    +0.000 OA
BRANCH   5   6
ATOM      6  C   UNL     1      -7.735   3.732 120.714  0.00  0.00    +0.000 A 
ATOM      7  C   UNL     1      -6.533   3.765 121.412  0.00  0.00    +0.000 A 
ATOM      8  C   UNL     1      -5.428   4.409 120.865  0.00  0.00    +0.000 A 
ATOM      9  C   UNL     1      -5.524   4.985 119.594  0.00  0.00    +0.000 A 
ATOM     10  C   UNL     1      -6.722   4.929 118.890  0.00  0.00    +0.000 A 
ATOM     11  C   UNL     1      -7.836   4.314 119.449  0.00  0.00    +0.000 A 
ENDBRANCH   5   6
ENDBRANCH   4   5
ENDBRANCH   3   4
ENDBRANCH   1   3
BRANCH   1  12
ATOM     12  C   UNL     1      -6.752   1.434 124.072  0.00  0.00    +0.000 C 
BRANCH  12  13
ATOM     13  C   UNL     1      -6.488   1.859 125.517  0.00  0.00    +0.000 C 
ATOM     14 CL   UNL     1      -5.023   2.877 125.635  0.00  0.00    +0.000 Cl
ENDBRANCH  12  13
ENDBRANCH   1  12
BRANCH   1  15
ATOM     15  C   UNL     1      -8.565   0.057 124.989  0.00  0.00    +0.000 C 
BRANCH  15  16
ATOM     16  C   UNL     1      -8.240  -1.413 125.192  0.00  0.00    +0.000 A 
ATOM     17  C   UNL     1      -7.543  -2.118 124.201  0.00  0.00    +0.000 A 
ATOM     18  C   UNL     1      -7.609  -3.505 124.152  0.00  0.00    +0.000 A 
ATOM     19  C   UNL     1      -8.194  -4.206 125.205  0.00  0.00    +0.000 A 
ATOM     20  C   UNL     1      -8.732  -3.515 126.289  0.00  0.00    +0.000 A 
ATOM     21  C   UNL     1      -8.778  -2.122 126.276  0.00  0.00    +0.000 A 
ENDBRANCH  15  16
ENDBRANCH   1  15
TORSDOF 8
ENDMDL
MODEL 8
REMARK VINA RESULT:      -6.1      2.016      2.424
REMARK  Name = Phenoxybenzamine
REMARK  9 active torsions:
REMARK  status: ('A' for Active; 'I' for Inactive)
REMARK    1  A    between atoms: C_1  and  C_2
REMARK    2  A    between atoms: C_2  and  C_3
REMARK    3  A    between atoms: C_2  and  N_11
REMARK    4  A    between atoms: C_3  and  O_4
REMARK    5  A    between atoms: O_4  and  C_5
REMARK    6  A    between atoms: N_11  and  C_12
REMARK    7  A    between atoms: N_11  and  C_15
REMARK    8  A    between atoms: C_12  and  C_13
REMARK    9  A    between atoms: C_15  and  C_16
REMARK                            x       y       z     vdW  Elec       q    Type
REMARK                         _______ _______ _______ _____ _____    ______ ____
ROOT
ATOM      1  N   UNL     1      -8.370   3.012 124.121  0.00  0.00    +0.000 NA
ENDROOT
BRANCH   1   3
ATOM      2  C   UNL     1      -9.936   1.173 123.264  0.00  0.00    +0.000 C 
ATOM      3  C   UNL     1      -9.139   1.770 124.442  0.00  0.00    +0.000 C 
BRANCH   3   4
ATOM      4  C   UNL     1      -8.231   0.618 124.938  0.00  0.00    +0.000 C 
BRANCH   4   5
ATOM      5  O   UNL     1      -8.983  -0.595 124.855  0.00  0.00    +0.000 OA
BRANCH   5   6
ATOM      6  C   UNL     1      -8.854  -1.450 125.900  0.00  0.00    +0.000 A 
ATOM      7  C   UNL     1      -8.054  -1.010 126.949  0.00  0.00    +0.000 A 
ATOM      8  C   UNL     1      -7.734  -1.875 127.991  0.00  0.00    +0.000 A 
ATOM      9  C   UNL     1      -8.256  -3.172 127.995  0.00  0.00    +0.000 A 
ATOM     10  C   UNL     1      -9.075  -3.600 126.955  0.00  0.00    +0.000 A 
ATOM     11  C   UNL     1      -9.369  -2.747 125.898  0.00  0.00    +0.000 A 
ENDBRANCH   5   6
ENDBRANCH   4   5
ENDBRANCH   3   4
ENDBRANCH   1   3
BRANCH   1  12
ATOM     12  C   UNL     1      -8.219   3.932 125.287  0.00  0.00    +0.000 C 
BRANCH  12  13
ATOM     13  C   UNL     1      -6.923   3.942 126.100  0.00  0.00    +0.000 C 
ATOM     14 CL   UNL     1      -7.258   4.110 127.848  0.00  0.00    +0.000 Cl
ENDBRANCH  12  13
ENDBRANCH   1  12
BRANCH   1  15
ATOM     15  C   UNL     1      -7.007   2.667 123.568  0.00  0.00    +0.000 C 
BRANCH  15  16
ATOM     16  C   UNL     1      -6.563   3.570 122.430  0.00  0.00    +0.000 A 
ATOM     17  C   UNL     1      -7.302   3.609 121.239  0.00  0.00    +0.000 A 
ATOM     18  C   UNL     1      -6.713   4.064 120.066  0.00  0.00    +0.000 A 
ATOM     19  C   UNL     1      -5.461   4.674 120.113  0.00  0.00    +0.000 A 
ATOM     20  C   UNL     1      -4.793   4.804 121.330  0.00  0.00    +0.000 A 
ATOM     21  C   UNL     1      -5.329   4.235 122.484  0.00  0.00    +0.000 A 
ENDBRANCH  15  16
ENDBRANCH   1  15
TORSDOF 8
ENDMDL
MODEL 9
REMARK VINA RESULT:      -6.1      2.587      5.388
REMARK  Name = Phenoxybenzamine
REMARK  9 active torsions:
REMARK  status: ('A' for Active; 'I' for Inactive)
REMARK    1  A    between atoms: C_1  and  C_2
REMARK    2  A    between atoms: C_2  and  C_3
REMARK    3  A    between atoms: C_2  and  N_11
REMARK    4  A    between atoms: C_3  and  O_4
REMARK    5  A    between atoms: O_4  and  C_5
REMARK    6  A    between atoms: N_11  and  C_12
REMARK    7  A    between atoms: N_11  and  C_15
REMARK    8  A    between atoms: C_12  and  C_13
REMARK    9  A    between atoms: C_15  and  C_16
REMARK                            x       y       z     vdW  Elec       q    Type
REMARK                         _______ _______ _______ _____ _____    ______ ____
ROOT
ATOM      1  N   UNL     1      -7.875   1.750 124.224  0.00  0.00    +0.000 NA
ENDROOT
BRANCH   1   3
ATOM      2  C   UNL     1      -8.210   1.716 126.765  0.00  0.00    +0.000 C 
ATOM      3  C   UNL     1      -7.450   2.292 125.552  0.00  0.00    +0.000 C 
BRANCH   3   4
ATOM      4  C   UNL     1      -5.954   2.026 125.852  0.00  0.00    +0.000 C 
BRANCH   4   5
ATOM      5  O   UNL     1      -5.199   3.095 125.277  0.00  0.00    +0.000 OA
BRANCH   5   6
ATOM      6  C   UNL     1      -4.353   3.746 126.114  0.00  0.00    +0.000 A 
ATOM      7  C   UNL     1      -3.154   3.097 126.391  0.00  0.00    +0.000 A 
ATOM      8  C   UNL     1      -2.293   3.609 127.357  0.00  0.00    +0.000 A 
ATOM      9  C   UNL     1      -2.622   4.798 128.013  0.00  0.00    +0.000 A 
ATOM     10  C   UNL     1      -3.810   5.456 127.716  0.00  0.00    +0.000 A 
ATOM     11  C   UNL     1      -4.686   4.929 126.775  0.00  0.00    +0.000 A 
ENDBRANCH   5   6
ENDBRANCH   4   5
ENDBRANCH   3   4
ENDBRANCH   1   3
BRANCH   1  12
ATOM     12  C   UNL     1      -8.738   0.536 124.330  0.00  0.00    +0.000 C 
BRANCH  12  13
ATOM     13  C   UNL     1      -8.441  -0.698 123.478  0.00  0.00    +0.000 C 
ATOM     14 CL   UNL     1      -6.713  -0.772 123.026  0.00  0.00    +0.000 Cl
ENDBRANCH  12  13
ENDBRANCH   1  12
BRANCH   1  15
ATOM     15  C   UNL     1      -8.587   2.811 123.419  0.00  0.00    +0.000 C 
BRANCH  15  16
ATOM     16  C   UNL     1      -7.932   3.105 122.080  0.00  0.00    +0.000 A 
ATOM     17  C   UNL     1      -6.534   3.087 121.968  0.00  0.00    +0.000 A 
ATOM     18  C   UNL     1      -5.909   3.753 120.920  0.00  0.00    +0.000 A 
ATOM     19  C   UNL     1      -6.672   4.260 119.871  0.00  0.00    +0.000 A 
ATOM     20  C   UNL     1      -8.059   4.121 119.886  0.00  0.00    +0.000 A 
ATOM     21  C   UNL     1      -8.693   3.566 120.996  0.00  0.00    +0.000 A 
ENDBRANCH  15  16
ENDBRANCH   1  15
TORSDOF 8
ENDMDL
