MODEL 1
REMARK VINA RESULT:      -6.3      0.000      0.000
REMARK  Name = Phensuximide
REMARK  2 active torsions:
REMARK  status: ('A' for Active; 'I' for Inactive)
REMARK    1  A    between atoms: C_1  and  N_2
REMARK    2  A    between atoms: C_6  and  C_9
REMARK                            x       y       z     vdW  Elec       q    Type
REMARK                         _______ _______ _______ _____ _____    ______ ____
ROOT
ATOM      1  C   UNL     1      -9.623   3.409 130.310  0.00  0.00    +0.000 C 
ATOM      2  N   UNL     1      -9.915   4.790 130.611  0.00  0.00    +0.000 N 
ATOM      3  C   UNL     1     -10.149   5.286 131.854  0.00  0.00    +0.000 C 
ATOM      4  O   UNL     1      -9.769   4.836 132.926  0.00  0.00    +0.000 OA
ATOM      5  C   UNL     1     -11.003   6.501 131.681  0.00  0.00    +0.000 C 
ATOM      6  C   UNL     1     -10.569   7.006 130.304  0.00  0.00    +0.000 C 
ATOM      7  C   UNL     1      -9.869   5.802 129.698  0.00  0.00    +0.000 C 
ATOM      8  O   UNL     1      -9.344   5.765 128.595  0.00  0.00    +0.000 OA
ENDROOT
BRANCH   6   9
ATOM      9  C   UNL     1     -11.739   7.450 129.456  0.00  0.00    +0.000 A 
ATOM     10  C   UNL     1     -12.571   6.505 128.847  0.00  0.00    +0.000 A 
ATOM     11  C   UNL     1     -13.615   6.918 128.018  0.00  0.00    +0.000 A 
ATOM     12  C   UNL     1     -13.887   8.275 127.857  0.00  0.00    +0.000 A 
ATOM     13  C   UNL     1     -13.084   9.226 128.477  0.00  0.00    +0.000 A 
ATOM     14  C   UNL     1     -12.011   8.817 129.264  0.00  0.00    +0.000 A 
ENDBRANCH   6   9
TORSDOF 1
ENDMDL
MODEL 2
REMARK VINA RESULT:      -6.3      1.945      5.218
REMARK  Name = Phensuximide
REMARK  2 active torsions:
REMARK  status: ('A' for Active; 'I' for Inactive)
REMARK    1  A    between atoms: C_1  and  N_2
REMARK    2  A    between atoms: C_6  and  C_9
REMARK                            x       y       z     vdW  Elec       q    Type
REMARK                         _______ _______ _______ _____ _____    ______ ____
ROOT
ATOM      1  C   UNL     1     -12.641   7.084 128.890  0.00  0.00    +0.000 C 
ATOM      2  N   UNL     1     -11.468   7.065 129.730  0.00  0.00    +0.000 N 
ATOM      3  C   UNL     1     -10.248   7.553 129.379  0.00  0.00    +0.000 C 
ATOM      4  O   UNL     1      -9.995   8.422 128.556  0.00  0.00    +0.000 OA
ATOM      5  C   UNL     1      -9.235   6.799 130.180  0.00  0.00    +0.000 C 
ATOM      6  C   UNL     1     -10.016   6.460 131.450  0.00  0.00    +0.000 C 
ATOM      7  C   UNL     1     -11.462   6.669 131.035  0.00  0.00    +0.000 C 
ATOM      8  O   UNL     1     -12.438   6.525 131.756  0.00  0.00    +0.000 OA
ENDROOT
BRANCH   6   9
ATOM      9  C   UNL     1      -9.775   5.042 131.916  0.00  0.00    +0.000 A 
ATOM     10  C   UNL     1      -9.992   3.966 131.049  0.00  0.00    +0.000 A 
ATOM     11  C   UNL     1      -9.825   2.656 131.499  0.00  0.00    +0.000 A 
ATOM     12  C   UNL     1      -9.359   2.412 132.790  0.00  0.00    +0.000 A 
ATOM     13  C   UNL     1      -9.114   3.474 133.654  0.00  0.00    +0.000 A 
ATOM     14  C   UNL     1      -9.329   4.780 133.224  0.00  0.00    +0.000 A 
ENDBRANCH   6   9
TORSDOF 1
ENDMDL
MODEL 3
REMARK VINA RESULT:      -6.0      7.570     10.137
REMARK  Name = Phensuximide
REMARK  2 active torsions:
REMARK  status: ('A' for Active; 'I' for Inactive)
REMARK    1  A    between atoms: C_1  and  N_2
REMARK    2  A    between atoms: C_6  and  C_9
REMARK                            x       y       z     vdW  Elec       q    Type
REMARK                         _______ _______ _______ _____ _____    ______ ____
ROOT
ATOM      1  C   UNL     1      -8.969   2.757 122.174  0.00  0.00    +0.000 C 
ATOM      2  N   UNL     1      -9.124   1.988 123.385  0.00  0.00    +0.000 N 
ATOM      3  C   UNL     1      -8.845   2.438 124.638  0.00  0.00    +0.000 C 
ATOM      4  O   UNL     1      -8.834   3.595 125.034  0.00  0.00    +0.000 OA
ATOM      5  C   UNL     1      -8.518   1.236 125.465  0.00  0.00    +0.000 C 
ATOM      6  C   UNL     1      -9.354   0.145 124.794  0.00  0.00    +0.000 C 
ATOM      7  C   UNL     1      -9.692   0.749 123.443  0.00  0.00    +0.000 C 
ATOM      8  O   UNL     1     -10.371   0.218 122.576  0.00  0.00    +0.000 OA
ENDROOT
BRANCH   6   9
ATOM      9  C   UNL     1      -8.596  -1.154 124.645  0.00  0.00    +0.000 A 
ATOM     10  C   UNL     1      -9.120  -2.343 125.164  0.00  0.00    +0.000 A 
ATOM     11  C   UNL     1      -8.391  -3.529 125.076  0.00  0.00    +0.000 A 
ATOM     12  C   UNL     1      -7.174  -3.556 124.397  0.00  0.00    +0.000 A 
ATOM     13  C   UNL     1      -6.653  -2.387 123.853  0.00  0.00    +0.000 A 
ATOM     14  C   UNL     1      -7.355  -1.191 123.984  0.00  0.00    +0.000 A 
ENDBRANCH   6   9
TORSDOF 1
ENDMDL
MODEL 4
REMARK VINA RESULT:      -5.9      1.815      2.473
REMARK  Name = Phensuximide
REMARK  2 active torsions:
REMARK  status: ('A' for Active; 'I' for Inactive)
REMARK    1  A    between atoms: C_1  and  N_2
REMARK    2  A    between atoms: C_6  and  C_9
REMARK                            x       y       z     vdW  Elec       q    Type
REMARK                         _______ _______ _______ _____ _____    ______ ____
ROOT
ATOM      1  C   UNL     1      -7.766   4.519 132.194  0.00  0.00    +0.000 C 
ATOM      2  N   UNL     1      -9.148   4.571 131.783  0.00  0.00    +0.000 N 
ATOM      3  C   UNL     1      -9.827   3.552 131.193  0.00  0.00    +0.000 C 
ATOM      4  O   UNL     1      -9.598   2.352 131.272  0.00  0.00    +0.000 OA
ATOM      5  C   UNL     1     -10.919   4.172 130.383  0.00  0.00    +0.000 C 
ATOM      6  C   UNL     1     -11.218   5.450 131.169  0.00  0.00    +0.000 C 
ATOM      7  C   UNL     1      -9.991   5.609 132.050  0.00  0.00    +0.000 C 
ATOM      8  O   UNL     1      -9.811   6.502 132.865  0.00  0.00    +0.000 OA
ENDROOT
BRANCH   6   9
ATOM      9  C   UNL     1     -11.413   6.650 130.270  0.00  0.00    +0.000 A 
ATOM     10  C   UNL     1     -10.461   6.965 129.295  0.00  0.00    +0.000 A 
ATOM     11  C   UNL     1     -10.615   8.106 128.506  0.00  0.00    +0.000 A 
ATOM     12  C   UNL     1     -11.759   8.893 128.627  0.00  0.00    +0.000 A 
ATOM     13  C   UNL     1     -12.725   8.577 129.576  0.00  0.00    +0.000 A 
ATOM     14  C   UNL     1     -12.549   7.468 130.399  0.00  0.00    +0.000 A 
ENDBRANCH   6   9
TORSDOF 1
ENDMDL
MODEL 5
REMARK VINA RESULT:      -5.8      1.716      2.105
REMARK  Name = Phensuximide
REMARK  2 active torsions:
REMARK  status: ('A' for Active; 'I' for Inactive)
REMARK    1  A    between atoms: C_1  and  N_2
REMARK    2  A    between atoms: C_6  and  C_9
REMARK                            x       y       z     vdW  Elec       q    Type
REMARK                         _______ _______ _______ _____ _____    ______ ____
ROOT
ATOM      1  C   UNL     1      -9.177   3.494 132.435  0.00  0.00    +0.000 C 
ATOM      2  N   UNL     1      -8.874   4.625 131.590  0.00  0.00    +0.000 N 
ATOM      3  C   UNL     1      -7.877   5.522 131.812  0.00  0.00    +0.000 C 
ATOM      4  O   UNL     1      -6.843   5.354 132.444  0.00  0.00    +0.000 OA
ATOM      5  C   UNL     1      -8.290   6.798 131.152  0.00  0.00    +0.000 C 
ATOM      6  C   UNL     1      -9.148   6.297 129.990  0.00  0.00    +0.000 C 
ATOM      7  C   UNL     1      -9.470   4.867 130.387  0.00  0.00    +0.000 C 
ATOM      8  O   UNL     1     -10.130   4.077 129.729  0.00  0.00    +0.000 OA
ENDROOT
BRANCH   6   9
ATOM      9  C   UNL     1     -10.406   7.116 129.805  0.00  0.00    +0.000 A 
ATOM     10  C   UNL     1     -11.446   7.034 130.736  0.00  0.00    +0.000 A 
ATOM     11  C   UNL     1     -12.629   7.746 130.533  0.00  0.00    +0.000 A 
ATOM     12  C   UNL     1     -12.750   8.608 129.444  0.00  0.00    +0.000 A 
ATOM     13  C   UNL     1     -11.713   8.719 128.524  0.00  0.00    +0.000 A 
ATOM     14  C   UNL     1     -10.552   7.970 128.697  0.00  0.00    +0.000 A 
ENDBRANCH   6   9
TORSDOF 1
ENDMDL
MODEL 6
REMARK VINA RESULT:      -5.6      7.435      8.584
REMARK  Name = Phensuximide
REMARK  2 active torsions:
REMARK  status: ('A' for Active; 'I' for Inactive)
REMARK    1  A    between atoms: C_1  and  N_2
REMARK    2  A    between atoms: C_6  and  C_9
REMARK                            x       y       z     vdW  Elec       q    Type
REMARK                         _______ _______ _______ _____ _____    ______ ____
ROOT
ATOM      1  C   UNL     1      -6.341   4.016 126.877  0.00  0.00    +0.000 C 
ATOM      2  N   UNL     1      -6.809   3.104 125.861  0.00  0.00    +0.000 N 
ATOM      3  C   UNL     1      -6.386   1.821 125.708  0.00  0.00    +0.000 C 
ATOM      4  O   UNL     1      -5.910   1.081 126.557  0.00  0.00    +0.000 OA
ATOM      5  C   UNL     1      -6.584   1.470 124.268  0.00  0.00    +0.000 C 
ATOM      6  C   UNL     1      -7.784   2.339 123.887  0.00  0.00    +0.000 C 
ATOM      7  C   UNL     1      -7.833   3.371 125.000  0.00  0.00    +0.000 C 
ATOM      8  O   UNL     1      -8.658   4.266 125.106  0.00  0.00    +0.000 OA
ENDROOT
BRANCH   6   9
ATOM      9  C   UNL     1      -7.618   2.992 122.534  0.00  0.00    +0.000 A 
ATOM     10  C   UNL     1      -8.734   3.244 121.728  0.00  0.00    +0.000 A 
ATOM     11  C   UNL     1      -8.572   3.793 120.456  0.00  0.00    +0.000 A 
ATOM     12  C   UNL     1      -7.307   4.173 120.012  0.00  0.00    +0.000 A 
ATOM     13  C   UNL     1      -6.191   3.953 120.813  0.00  0.00    +0.000 A 
ATOM     14  C   UNL     1      -6.345   3.357 122.063  0.00  0.00    +0.000 A 
ENDBRANCH   6   9
TORSDOF 1
ENDMDL
MODEL 7
REMARK VINA RESULT:      -5.3      8.806     10.827
REMARK  Name = Phensuximide
REMARK  2 active torsions:
REMARK  status: ('A' for Active; 'I' for Inactive)
REMARK    1  A    between atoms: C_1  and  N_2
REMARK    2  A    between atoms: C_6  and  C_9
REMARK                            x       y       z     vdW  Elec       q    Type
REMARK                         _______ _______ _______ _____ _____    ______ ____
ROOT
ATOM      1  C   UNL     1      -8.538  -0.308 125.736  0.00  0.00    +0.000 C 
ATOM      2  N   UNL     1      -8.313  -1.599 126.340  0.00  0.00    +0.000 N 
ATOM      3  C   UNL     1      -9.126  -2.680 126.201  0.00  0.00    +0.000 C 
ATOM      4  O   UNL     1      -9.897  -2.926 125.285  0.00  0.00    +0.000 OA
ATOM      5  C   UNL     1      -8.926  -3.529 127.416  0.00  0.00    +0.000 C 
ATOM      6  C   UNL     1      -7.475  -3.222 127.789  0.00  0.00    +0.000 C 
ATOM      7  C   UNL     1      -7.185  -1.940 127.028  0.00  0.00    +0.000 C 
ATOM      8  O   UNL     1      -6.121  -1.340 127.024  0.00  0.00    +0.000 OA
ENDROOT
BRANCH   6   9
ATOM      9  C   UNL     1      -7.289  -3.035 129.278  0.00  0.00    +0.000 A 
ATOM     10  C   UNL     1      -7.943  -1.996 129.948  0.00  0.00    +0.000 A 
ATOM     11  C   UNL     1      -7.723  -1.790 131.310  0.00  0.00    +0.000 A 
ATOM     12  C   UNL     1      -6.917  -2.670 132.031  0.00  0.00    +0.000 A 
ATOM     13  C   UNL     1      -6.281  -3.723 131.383  0.00  0.00    +0.000 A 
ATOM     14  C   UNL     1      -6.458  -3.899 130.013  0.00  0.00    +0.000 A 
ENDBRANCH   6   9
TORSDOF 1
ENDMDL
MODEL 8
REMARK VINA RESULT:      -5.3      9.890     10.704
REMARK  Name = Phensuximide
REMARK  2 active torsions:
REMARK  status: ('A' for Active; 'I' for Inactive)
REMARK    1  A    between atoms: C_1  and  N_2
REMARK    2  A    between atoms: C_6  and  C_9
REMARK                            x       y       z     vdW  Elec       q    Type
REMARK                         _______ _______ _______ _____ _____    ______ ____
ROOT
ATOM      1  C   UNL     1      -4.989  -1.129 132.103  0.00  0.00    +0.000 C 
ATOM      2  N   UNL     1      -5.658  -2.281 131.550  0.00  0.00    +0.000 N 
ATOM      3  C   UNL     1      -5.153  -3.543 131.529  0.00  0.00    +0.000 C 
ATOM      4  O   UNL     1      -4.320  -4.031 132.280  0.00  0.00    +0.000 OA
ATOM      5  C   UNL     1      -5.792  -4.244 130.373  0.00  0.00    +0.000 C 
ATOM      6  C   UNL     1      -7.151  -3.548 130.285  0.00  0.00    +0.000 C 
ATOM      7  C   UNL     1      -6.943  -2.278 131.090  0.00  0.00    +0.000 C 
ATOM      8  O   UNL     1      -7.788  -1.421 131.299  0.00  0.00    +0.000 OA
ENDROOT
BRANCH   6   9
ATOM      9  C   UNL     1      -7.551  -3.240 128.860  0.00  0.00    +0.000 A 
ATOM     10  C   UNL     1      -6.759  -2.403 128.068  0.00  0.00    +0.000 A 
ATOM     11  C   UNL     1      -7.161  -2.074 126.773  0.00  0.00    +0.000 A 
ATOM     12  C   UNL     1      -8.311  -2.644 126.229  0.00  0.00    +0.000 A 
ATOM     13  C   UNL     1      -9.094  -3.499 126.997  0.00  0.00    +0.000 A 
ATOM     14  C   UNL     1      -8.722  -3.788 128.307  0.00  0.00    +0.000 A 
ENDBRANCH   6   9
TORSDOF 1
ENDMDL
MODEL 9
REMARK VINA RESULT:      -5.1      8.587      9.838
REMARK  Name = Phensuximide
REMARK  2 active torsions:
REMARK  status: ('A' for Active; 'I' for Inactive)
REMARK    1  A    between atoms: C_1  and  N_2
REMARK    2  A    between atoms: C_6  and  C_9
REMARK                            x       y       z     vdW  Elec       q    Type
REMARK                         _______ _______ _______ _____ _____    ______ ____
ROOT
ATOM      1  C   UNL     1      -8.966  -2.325 126.188  0.00  0.00    +0.000 C 
ATOM      2  N   UNL     1      -8.370  -1.770 124.997  0.00  0.00    +0.000 N 
ATOM      3  C   UNL     1      -7.483  -2.415 124.194  0.00  0.00    +0.000 C 
ATOM      4  O   UNL     1      -7.342  -3.621 124.047  0.00  0.00    +0.000 OA
ATOM      5  C   UNL     1      -6.664  -1.360 123.520  0.00  0.00    +0.000 C 
ATOM      6  C   UNL     1      -7.646  -0.190 123.443  0.00  0.00    +0.000 C 
ATOM      7  C   UNL     1      -8.717  -0.569 124.451  0.00  0.00    +0.000 C 
ATOM      8  O   UNL     1      -9.718   0.084 124.705  0.00  0.00    +0.000 OA
ENDROOT
BRANCH   6   9
ATOM      9  C   UNL     1      -7.000   1.131 123.794  0.00  0.00    +0.000 A 
ATOM     10  C   UNL     1      -6.419   1.323 125.052  0.00  0.00    +0.000 A 
ATOM     11  C   UNL     1      -5.876   2.562 125.393  0.00  0.00    +0.000 A 
ATOM     12  C   UNL     1      -5.832   3.591 124.454  0.00  0.00    +0.000 A 
ATOM     13  C   UNL     1      -6.382   3.405 123.190  0.00  0.00    +0.000 A 
ATOM     14  C   UNL     1      -6.971   2.186 122.865  0.00  0.00    +0.000 A 
ENDBRANCH   6   9
TORSDOF 1
ENDMDL
