MODEL 1
REMARK VINA RESULT:      -6.5      0.000      0.000
REMARK  Name = Phenformin
REMARK  3 active torsions:
REMARK  status: ('A' for Active; 'I' for Inactive)
REMARK    1  A    between atoms: N_7  and  C_8
REMARK    2  A    between atoms: C_8  and  C_9
REMARK    3  A    between atoms: C_9  and  C_10
REMARK                            x       y       z     vdW  Elec       q    Type
REMARK                         _______ _______ _______ _____ _____    ______ ____
ROOT
ATOM      1  N   UNL     1      -7.793  -4.022 124.417  0.00  0.00    +0.000 N 
ATOM      2  C   UNL     1      -8.610  -3.056 123.949  0.00  0.00    +0.000 C 
ATOM      3  N   UNL     1      -9.814  -3.354 123.593  0.00  0.00    +0.000 NA
ATOM      4  N   UNL     1      -8.123  -1.774 123.869  0.00  0.00    +0.000 N 
ATOM      5  C   UNL     1      -8.784  -0.658 123.421  0.00  0.00    +0.000 C 
ATOM      6  N   UNL     1     -10.015  -0.704 123.011  0.00  0.00    +0.000 NA
ATOM      7  N   UNL     1      -8.122   0.542 123.393  0.00  0.00    +0.000 N 
ATOM      8  H   UNL     1      -8.140  -4.970 124.479  0.00  0.00    +0.000 HD
ATOM      9  H   UNL     1      -6.842  -3.879 124.715  0.00  0.00    +0.000 HD
ATOM     10  H   UNL     1      -9.998  -4.350 123.720  0.00  0.00    +0.000 HD
ATOM     11  H   UNL     1      -7.176  -1.633 124.167  0.00  0.00    +0.000 HD
ATOM     12  H   UNL     1     -10.298  -1.701 123.113  0.00  0.00    +0.000 HD
ATOM     13  H   UNL     1      -7.187   0.670 123.740  0.00  0.00    +0.000 HD
ENDROOT
BRANCH   7  14
ATOM     14  C   UNL     1      -8.864   1.716 122.926  0.00  0.00    +0.000 C 
BRANCH  14  15
ATOM     15  C   UNL     1      -8.240   3.082 123.233  0.00  0.00    +0.000 C 
BRANCH  15  16
ATOM     16  C   UNL     1      -7.226   3.537 122.184  0.00  0.00    +0.000 A 
ATOM     17  C   UNL     1      -5.919   3.878 122.570  0.00  0.00    +0.000 A 
ATOM     18  C   UNL     1      -5.018   4.419 121.642  0.00  0.00    +0.000 A 
ATOM     19  C   UNL     1      -5.386   4.570 120.306  0.00  0.00    +0.000 A 
ATOM     20  C   UNL     1      -6.659   4.197 119.898  0.00  0.00    +0.000 A 
ATOM     21  C   UNL     1      -7.567   3.692 120.829  0.00  0.00    +0.000 A 
ENDBRANCH  15  16
ENDBRANCH  14  15
ENDBRANCH   7  14
TORSDOF 3
ENDMDL
MODEL 2
REMARK VINA RESULT:      -6.2      9.054     10.265
REMARK  Name = Phenformin
REMARK  3 active torsions:
REMARK  status: ('A' for Active; 'I' for Inactive)
REMARK    1  A    between atoms: N_7  and  C_8
REMARK    2  A    between atoms: C_8  and  C_9
REMARK    3  A    between atoms: C_9  and  C_10
REMARK                            x       y       z     vdW  Elec       q    Type
REMARK                         _______ _______ _______ _____ _____    ______ ____
ROOT
ATOM      1  N   UNL     1      -7.734   2.542 132.323  0.00  0.00    +0.000 N 
ATOM      2  C   UNL     1      -8.127   3.829 132.415  0.00  0.00    +0.000 C 
ATOM      3  N   UNL     1      -7.292   4.725 132.821  0.00  0.00    +0.000 NA
ATOM      4  N   UNL     1      -9.419   4.141 132.067  0.00  0.00    +0.000 N 
ATOM      5  C   UNL     1     -10.014   5.378 132.093  0.00  0.00    +0.000 C 
ATOM      6  N   UNL     1      -9.372   6.444 132.464  0.00  0.00    +0.000 NA
ATOM      7  N   UNL     1     -11.330   5.492 131.730  0.00  0.00    +0.000 N 
ATOM      8  H   UNL     1      -6.785   2.300 132.578  0.00  0.00    +0.000 HD
ATOM      9  H   UNL     1      -8.318   1.781 132.017  0.00  0.00    +0.000 HD
ATOM     10  H   UNL     1      -6.384   4.311 133.034  0.00  0.00    +0.000 HD
ATOM     11  H   UNL     1     -10.000   3.382 131.763  0.00  0.00    +0.000 HD
ATOM     12  H   UNL     1      -8.412   6.114 132.699  0.00  0.00    +0.000 HD
ATOM     13  H   UNL     1     -11.880   4.724 131.383  0.00  0.00    +0.000 HD
ENDROOT
BRANCH   7  14
ATOM     14  C   UNL     1     -11.927   6.830 131.752  0.00  0.00    +0.000 C 
BRANCH  14  15
ATOM     15  C   UNL     1     -12.940   7.142 130.645  0.00  0.00    +0.000 C 
BRANCH  15  16
ATOM     16  C   UNL     1     -12.300   7.338 129.271  0.00  0.00    +0.000 A 
ATOM     17  C   UNL     1     -11.069   8.004 129.156  0.00  0.00    +0.000 A 
ATOM     18  C   UNL     1     -10.534   8.304 127.895  0.00  0.00    +0.000 A 
ATOM     19  C   UNL     1     -11.186   7.891 126.735  0.00  0.00    +0.000 A 
ATOM     20  C   UNL     1     -12.381   7.193 126.831  0.00  0.00    +0.000 A 
ATOM     21  C   UNL     1     -12.931   6.925 128.084  0.00  0.00    +0.000 A 
ENDBRANCH  15  16
ENDBRANCH  14  15
ENDBRANCH   7  14
TORSDOF 3
ENDMDL
MODEL 3
REMARK VINA RESULT:      -6.2      3.342      6.451
REMARK  Name = Phenformin
REMARK  3 active torsions:
REMARK  status: ('A' for Active; 'I' for Inactive)
REMARK    1  A    between atoms: N_7  and  C_8
REMARK    2  A    between atoms: C_8  and  C_9
REMARK    3  A    between atoms: C_9  and  C_10
REMARK                            x       y       z     vdW  Elec       q    Type
REMARK                         _______ _______ _______ _____ _____    ______ ____
ROOT
ATOM      1  N   UNL     1      -6.398   5.251 124.801  0.00  0.00    +0.000 N 
ATOM      2  C   UNL     1      -7.514   4.495 124.858  0.00  0.00    +0.000 C 
ATOM      3  N   UNL     1      -8.547   4.929 125.497  0.00  0.00    +0.000 NA
ATOM      4  N   UNL     1      -7.506   3.276 124.225  0.00  0.00    +0.000 N 
ATOM      5  C   UNL     1      -8.527   2.360 124.168  0.00  0.00    +0.000 C 
ATOM      6  N   UNL     1      -9.676   2.573 124.735  0.00  0.00    +0.000 NA
ATOM      7  N   UNL     1      -8.326   1.178 123.505  0.00  0.00    +0.000 N 
ATOM      8  H   UNL     1      -6.391   6.151 125.265  0.00  0.00    +0.000 HD
ATOM      9  H   UNL     1      -5.549   4.992 124.327  0.00  0.00    +0.000 HD
ATOM     10  H   UNL     1      -8.370   5.848 125.902  0.00  0.00    +0.000 HD
ATOM     11  H   UNL     1      -6.660   3.018 123.754  0.00  0.00    +0.000 HD
ATOM     12  H   UNL     1      -9.591   3.512 125.178  0.00  0.00    +0.000 HD
ATOM     13  H   UNL     1      -7.484   0.961 122.998  0.00  0.00    +0.000 HD
ENDROOT
BRANCH   7  14
ATOM     14  C   UNL     1      -9.444   0.232 123.448  0.00  0.00    +0.000 C 
BRANCH  14  15
ATOM     15  C   UNL     1      -9.202  -1.060 122.660  0.00  0.00    +0.000 C 
BRANCH  15  16
ATOM     16  C   UNL     1      -8.030  -1.885 123.188  0.00  0.00    +0.000 A 
ATOM     17  C   UNL     1      -6.737  -1.681 122.678  0.00  0.00    +0.000 A 
ATOM     18  C   UNL     1      -5.678  -2.517 123.059  0.00  0.00    +0.000 A 
ATOM     19  C   UNL     1      -5.878  -3.526 123.998  0.00  0.00    +0.000 A 
ATOM     20  C   UNL     1      -7.139  -3.715 124.545  0.00  0.00    +0.000 A 
ATOM     21  C   UNL     1      -8.200  -2.906 124.141  0.00  0.00    +0.000 A 
ENDBRANCH  15  16
ENDBRANCH  14  15
ENDBRANCH   7  14
TORSDOF 3
ENDMDL
MODEL 4
REMARK VINA RESULT:      -6.2      2.838      7.172
REMARK  Name = Phenformin
REMARK  3 active torsions:
REMARK  status: ('A' for Active; 'I' for Inactive)
REMARK    1  A    between atoms: N_7  and  C_8
REMARK    2  A    between atoms: C_8  and  C_9
REMARK    3  A    between atoms: C_9  and  C_10
REMARK                            x       y       z     vdW  Elec       q    Type
REMARK                         _______ _______ _______ _____ _____    ______ ____
ROOT
ATOM      1  N   UNL     1      -7.874   3.470 123.220  0.00  0.00    +0.000 N 
ATOM      2  C   UNL     1      -8.538   2.459 123.817  0.00  0.00    +0.000 C 
ATOM      3  N   UNL     1      -9.377   2.716 124.763  0.00  0.00    +0.000 NA
ATOM      4  N   UNL     1      -8.293   1.177 123.389  0.00  0.00    +0.000 N 
ATOM      5  C   UNL     1      -8.855   0.018 123.864  0.00  0.00    +0.000 C 
ATOM      6  N   UNL     1      -9.735   0.019 124.818  0.00  0.00    +0.000 NA
ATOM      7  N   UNL     1      -8.467  -1.180 123.324  0.00  0.00    +0.000 N 
ATOM      8  H   UNL     1      -8.045   4.418 123.528  0.00  0.00    +0.000 HD
ATOM      9  H   UNL     1      -7.204   3.360 122.477  0.00  0.00    +0.000 HD
ATOM     10  H   UNL     1      -9.428   3.718 124.947  0.00  0.00    +0.000 HD
ATOM     11  H   UNL     1      -7.625   1.069 122.649  0.00  0.00    +0.000 HD
ATOM     12  H   UNL     1      -9.861   1.022 125.071  0.00  0.00    +0.000 HD
ATOM     13  H   UNL     1      -7.830  -1.262 122.550  0.00  0.00    +0.000 HD
ENDROOT
BRANCH   7  14
ATOM     14  C   UNL     1      -9.101  -2.396 123.842  0.00  0.00    +0.000 C 
BRANCH  14  15
ATOM     15  C   UNL     1      -8.187  -3.378 124.582  0.00  0.00    +0.000 C 
BRANCH  15  16
ATOM     16  C   UNL     1      -8.099  -3.115 126.085  0.00  0.00    +0.000 A 
ATOM     17  C   UNL     1      -7.141  -2.221 126.589  0.00  0.00    +0.000 A 
ATOM     18  C   UNL     1      -6.964  -2.068 127.972  0.00  0.00    +0.000 A 
ATOM     19  C   UNL     1      -7.778  -2.756 128.868  0.00  0.00    +0.000 A 
ATOM     20  C   UNL     1      -8.760  -3.611 128.387  0.00  0.00    +0.000 A 
ATOM     21  C   UNL     1      -8.913  -3.790 127.013  0.00  0.00    +0.000 A 
ENDBRANCH  15  16
ENDBRANCH  14  15
ENDBRANCH   7  14
TORSDOF 3
ENDMDL
MODEL 5
REMARK VINA RESULT:      -6.0      3.166      7.496
REMARK  Name = Phenformin
REMARK  3 active torsions:
REMARK  status: ('A' for Active; 'I' for Inactive)
REMARK    1  A    between atoms: N_7  and  C_8
REMARK    2  A    between atoms: C_8  and  C_9
REMARK    3  A    between atoms: C_9  and  C_10
REMARK                            x       y       z     vdW  Elec       q    Type
REMARK                         _______ _______ _______ _____ _____    ______ ____
ROOT
ATOM      1  N   UNL     1      -6.454   3.988 121.391  0.00  0.00    +0.000 N 
ATOM      2  C   UNL     1      -7.528   3.384 121.940  0.00  0.00    +0.000 C 
ATOM      3  N   UNL     1      -8.714   3.717 121.556  0.00  0.00    +0.000 NA
ATOM      4  N   UNL     1      -7.315   2.425 122.899  0.00  0.00    +0.000 N 
ATOM      5  C   UNL     1      -8.263   1.702 123.580  0.00  0.00    +0.000 C 
ATOM      6  N   UNL     1      -9.534   1.857 123.364  0.00  0.00    +0.000 NA
ATOM      7  N   UNL     1      -7.859   0.798 124.527  0.00  0.00    +0.000 N 
ATOM      8  H   UNL     1      -6.599   4.697 120.683  0.00  0.00    +0.000 HD
ATOM      9  H   UNL     1      -5.496   3.791 121.630  0.00  0.00    +0.000 HD
ATOM     10  H   UNL     1      -8.678   4.443 120.840  0.00  0.00    +0.000 HD
ATOM     11  H   UNL     1      -6.361   2.230 123.138  0.00  0.00    +0.000 HD
ATOM     12  H   UNL     1      -9.597   2.589 122.626  0.00  0.00    +0.000 HD
ATOM     13  H   UNL     1      -6.894   0.584 124.715  0.00  0.00    +0.000 HD
ENDROOT
BRANCH   7  14
ATOM     14  C   UNL     1      -8.897   0.030 125.220  0.00  0.00    +0.000 C 
BRANCH  14  15
ATOM     15  C   UNL     1      -8.786  -1.496 125.135  0.00  0.00    +0.000 C 
BRANCH  15  16
ATOM     16  C   UNL     1      -8.529  -2.165 126.485  0.00  0.00    +0.000 A 
ATOM     17  C   UNL     1      -9.046  -3.444 126.748  0.00  0.00    +0.000 A 
ATOM     18  C   UNL     1      -8.928  -4.014 128.023  0.00  0.00    +0.000 A 
ATOM     19  C   UNL     1      -8.241  -3.345 129.035  0.00  0.00    +0.000 A 
ATOM     20  C   UNL     1      -7.685  -2.099 128.780  0.00  0.00    +0.000 A 
ATOM     21  C   UNL     1      -7.833  -1.517 127.521  0.00  0.00    +0.000 A 
ENDBRANCH  15  16
ENDBRANCH  14  15
ENDBRANCH   7  14
TORSDOF 3
ENDMDL
MODEL 6
REMARK VINA RESULT:      -5.9     10.040     11.333
REMARK  Name = Phenformin
REMARK  3 active torsions:
REMARK  status: ('A' for Active; 'I' for Inactive)
REMARK    1  A    between atoms: N_7  and  C_8
REMARK    2  A    between atoms: C_8  and  C_9
REMARK    3  A    between atoms: C_9  and  C_10
REMARK                            x       y       z     vdW  Elec       q    Type
REMARK                         _______ _______ _______ _____ _____    ______ ____
ROOT
ATOM      1  N   UNL     1     -12.789   9.515 128.539  0.00  0.00    +0.000 N 
ATOM      2  C   UNL     1     -11.714   8.700 128.539  0.00  0.00    +0.000 C 
ATOM      3  N   UNL     1     -10.994   8.591 127.474  0.00  0.00    +0.000 NA
ATOM      4  N   UNL     1     -11.422   8.009 129.690  0.00  0.00    +0.000 N 
ATOM      5  C   UNL     1     -10.386   7.133 129.896  0.00  0.00    +0.000 C 
ATOM      6  N   UNL     1      -9.519   6.860 128.968  0.00  0.00    +0.000 NA
ATOM      7  N   UNL     1     -10.268   6.515 131.113  0.00  0.00    +0.000 N 
ATOM      8  H   UNL     1     -13.014  10.029 127.696  0.00  0.00    +0.000 HD
ATOM      9  H   UNL     1     -13.403   9.660 129.323  0.00  0.00    +0.000 HD
ATOM     10  H   UNL     1     -11.360   9.175 126.722  0.00  0.00    +0.000 HD
ATOM     11  H   UNL     1     -12.035   8.153 130.470  0.00  0.00    +0.000 HD
ATOM     12  H   UNL     1      -9.813   7.428 128.146  0.00  0.00    +0.000 HD
ATOM     13  H   UNL     1     -10.867   6.711 131.897  0.00  0.00    +0.000 HD
ENDROOT
BRANCH   7  14
ATOM     14  C   UNL     1      -9.139   5.600 131.304  0.00  0.00    +0.000 C 
BRANCH  14  15
ATOM     15  C   UNL     1      -8.303   5.805 132.571  0.00  0.00    +0.000 C 
BRANCH  15  16
ATOM     16  C   UNL     1      -6.865   6.241 132.289  0.00  0.00    +0.000 A 
ATOM     17  C   UNL     1      -6.559   6.937 131.108  0.00  0.00    +0.000 A 
ATOM     18  C   UNL     1      -5.228   7.229 130.775  0.00  0.00    +0.000 A 
ATOM     19  C   UNL     1      -4.192   6.887 131.642  0.00  0.00    +0.000 A 
ATOM     20  C   UNL     1      -4.481   6.238 132.834  0.00  0.00    +0.000 A 
ATOM     21  C   UNL     1      -5.801   5.916 133.149  0.00  0.00    +0.000 A 
ENDBRANCH  15  16
ENDBRANCH  14  15
ENDBRANCH   7  14
TORSDOF 3
ENDMDL
MODEL 7
REMARK VINA RESULT:      -5.8      5.711      7.947
REMARK  Name = Phenformin
REMARK  3 active torsions:
REMARK  status: ('A' for Active; 'I' for Inactive)
REMARK    1  A    between atoms: N_7  and  C_8
REMARK    2  A    between atoms: C_8  and  C_9
REMARK    3  A    between atoms: C_9  and  C_10
REMARK                            x       y       z     vdW  Elec       q    Type
REMARK                         _______ _______ _______ _____ _____    ______ ____
ROOT
ATOM      1  N   UNL     1      -2.296  -2.373 129.578  0.00  0.00    +0.000 N 
ATOM      2  C   UNL     1      -3.477  -2.899 129.963  0.00  0.00    +0.000 C 
ATOM      3  N   UNL     1      -3.538  -3.619 131.032  0.00  0.00    +0.000 NA
ATOM      4  N   UNL     1      -4.584  -2.645 129.191  0.00  0.00    +0.000 N 
ATOM      5  C   UNL     1      -5.866  -3.087 129.402  0.00  0.00    +0.000 C 
ATOM      6  N   UNL     1      -6.181  -3.828 130.421  0.00  0.00    +0.000 NA
ATOM      7  N   UNL     1      -6.844  -2.748 128.504  0.00  0.00    +0.000 N 
ATOM      8  H   UNL     1      -1.473  -2.554 130.138  0.00  0.00    +0.000 HD
ATOM      9  H   UNL     1      -2.157  -1.802 128.761  0.00  0.00    +0.000 HD
ATOM     10  H   UNL     1      -2.621  -3.700 131.473  0.00  0.00    +0.000 HD
ATOM     11  H   UNL     1      -4.445  -2.077 128.376  0.00  0.00    +0.000 HD
ATOM     12  H   UNL     1      -5.291  -3.961 130.946  0.00  0.00    +0.000 HD
ATOM     13  H   UNL     1      -6.692  -2.137 127.719  0.00  0.00    +0.000 HD
ENDROOT
BRANCH   7  14
ATOM     14  C   UNL     1      -8.205  -3.222 128.771  0.00  0.00    +0.000 C 
BRANCH  14  15
ATOM     15  C   UNL     1      -8.926  -3.913 127.609  0.00  0.00    +0.000 C 
BRANCH  15  16
ATOM     16  C   UNL     1      -8.714  -3.221 126.263  0.00  0.00    +0.000 A 
ATOM     17  C   UNL     1      -9.036  -1.862 126.110  0.00  0.00    +0.000 A 
ATOM     18  C   UNL     1      -8.969  -1.249 124.852  0.00  0.00    +0.000 A 
ATOM     19  C   UNL     1      -8.523  -1.962 123.741  0.00  0.00    +0.000 A 
ATOM     20  C   UNL     1      -8.159  -3.294 123.882  0.00  0.00    +0.000 A 
ATOM     21  C   UNL     1      -8.259  -3.914 125.126  0.00  0.00    +0.000 A 
ENDBRANCH  15  16
ENDBRANCH  14  15
ENDBRANCH   7  14
TORSDOF 3
ENDMDL
MODEL 8
REMARK VINA RESULT:      -5.8      9.851     11.282
REMARK  Name = Phenformin
REMARK  3 active torsions:
REMARK  status: ('A' for Active; 'I' for Inactive)
REMARK    1  A    between atoms: N_7  and  C_8
REMARK    2  A    between atoms: C_8  and  C_9
REMARK    3  A    between atoms: C_9  and  C_10
REMARK                            x       y       z     vdW  Elec       q    Type
REMARK                         _______ _______ _______ _____ _____    ______ ____
ROOT
ATOM      1  N   UNL     1      -5.903   5.428 135.435  0.00  0.00    +0.000 N 
ATOM      2  C   UNL     1      -7.131   5.670 134.930  0.00  0.00    +0.000 C 
ATOM      3  N   UNL     1      -8.126   5.852 135.731  0.00  0.00    +0.000 NA
ATOM      4  N   UNL     1      -7.275   5.715 133.565  0.00  0.00    +0.000 N 
ATOM      5  C   UNL     1      -8.429   5.941 132.856  0.00  0.00    +0.000 C 
ATOM      6  N   UNL     1      -9.567   6.157 133.442  0.00  0.00    +0.000 NA
ATOM      7  N   UNL     1      -8.383   5.926 131.487  0.00  0.00    +0.000 N 
ATOM      8  H   UNL     1      -5.785   5.391 136.439  0.00  0.00    +0.000 HD
ATOM      9  H   UNL     1      -5.074   5.274 134.886  0.00  0.00    +0.000 HD
ATOM     10  H   UNL     1      -7.832   5.782 136.705  0.00  0.00    +0.000 HD
ATOM     11  H   UNL     1      -6.449   5.562 133.019  0.00  0.00    +0.000 HD
ATOM     12  H   UNL     1      -9.361   6.111 134.462  0.00  0.00    +0.000 HD
ATOM     13  H   UNL     1      -7.533   5.817 130.959  0.00  0.00    +0.000 HD
ENDROOT
BRANCH   7  14
ATOM     14  C   UNL     1      -9.630   6.189 130.762  0.00  0.00    +0.000 C 
BRANCH  14  15
ATOM     15  C   UNL     1      -9.668   7.466 129.916  0.00  0.00    +0.000 C 
BRANCH  15  16
ATOM     16  C   UNL     1     -10.878   7.543 128.985  0.00  0.00    +0.000 A 
ATOM     17  C   UNL     1     -12.152   7.821 129.506  0.00  0.00    +0.000 A 
ATOM     18  C   UNL     1     -13.287   7.767 128.685  0.00  0.00    +0.000 A 
ATOM     19  C   UNL     1     -13.162   7.497 127.324  0.00  0.00    +0.000 A 
ATOM     20  C   UNL     1     -11.906   7.263 126.783  0.00  0.00    +0.000 A 
ATOM     21  C   UNL     1     -10.780   7.282 127.606  0.00  0.00    +0.000 A 
ENDBRANCH  15  16
ENDBRANCH  14  15
ENDBRANCH   7  14
TORSDOF 3
ENDMDL
MODEL 9
REMARK VINA RESULT:      -5.6      8.642     10.459
REMARK  Name = Phenformin
REMARK  3 active torsions:
REMARK  status: ('A' for Active; 'I' for Inactive)
REMARK    1  A    between atoms: N_7  and  C_8
REMARK    2  A    between atoms: C_8  and  C_9
REMARK    3  A    between atoms: C_9  and  C_10
REMARK                            x       y       z     vdW  Elec       q    Type
REMARK                         _______ _______ _______ _____ _____    ______ ____
ROOT
ATOM      1  N   UNL     1      -1.359   2.968 126.479  0.00  0.00    +0.000 N 
ATOM      2  C   UNL     1      -2.419   3.713 126.857  0.00  0.00    +0.000 C 
ATOM      3  N   UNL     1      -3.614   3.299 126.602  0.00  0.00    +0.000 NA
ATOM      4  N   UNL     1      -2.181   4.900 127.507  0.00  0.00    +0.000 N 
ATOM      5  C   UNL     1      -3.111   5.799 127.966  0.00  0.00    +0.000 C 
ATOM      6  N   UNL     1      -4.387   5.601 127.831  0.00  0.00    +0.000 NA
ATOM      7  N   UNL     1      -2.681   6.949 128.574  0.00  0.00    +0.000 N 
ATOM      8  H   UNL     1      -1.522   2.093 125.998  0.00  0.00    +0.000 HD
ATOM      9  H   UNL     1      -0.396   3.214 126.636  0.00  0.00    +0.000 HD
ATOM     10  H   UNL     1      -3.597   2.403 126.115  0.00  0.00    +0.000 HD
ATOM     11  H   UNL     1      -1.221   5.144 127.662  0.00  0.00    +0.000 HD
ATOM     12  H   UNL     1      -4.470   4.686 127.340  0.00  0.00    +0.000 HD
ATOM     13  H   UNL     1      -1.714   7.151 128.762  0.00  0.00    +0.000 HD
ENDROOT
BRANCH   7  14
ATOM     14  C   UNL     1      -3.702   7.878 129.069  0.00  0.00    +0.000 C 
BRANCH  14  15
ATOM     15  C   UNL     1      -3.739   8.103 130.584  0.00  0.00    +0.000 C 
BRANCH  15  16
ATOM     16  C   UNL     1      -4.735   7.199 131.310  0.00  0.00    +0.000 A 
ATOM     17  C   UNL     1      -6.068   7.125 130.873  0.00  0.00    +0.000 A 
ATOM     18  C   UNL     1      -7.020   6.401 131.605  0.00  0.00    +0.000 A 
ATOM     19  C   UNL     1      -6.646   5.693 132.745  0.00  0.00    +0.000 A 
ATOM     20  C   UNL     1      -5.324   5.719 133.166  0.00  0.00    +0.000 A 
ATOM     21  C   UNL     1      -4.384   6.467 132.458  0.00  0.00    +0.000 A 
ENDBRANCH  15  16
ENDBRANCH  14  15
ENDBRANCH   7  14
TORSDOF 3
ENDMDL
