MODEL 1
REMARK VINA RESULT:      -6.3      0.000      0.000
REMARK  Name = Pheniramine
REMARK  7 active torsions:
REMARK  status: ('A' for Active; 'I' for Inactive)
REMARK    1  A    between atoms: C_1  and  N_2
REMARK    2  A    between atoms: N_2  and  C_3
REMARK    3  A    between atoms: N_2  and  C_4
REMARK    4  A    between atoms: C_4  and  C_5
REMARK    5  A    between atoms: C_5  and  C_6
REMARK    6  A    between atoms: C_6  and  C_7
REMARK    7  A    between atoms: C_6  and  C_13
REMARK                            x       y       z     vdW  Elec       q    Type
REMARK                         _______ _______ _______ _____ _____    ______ ____
ROOT
ATOM      1  C   UNL     1      -7.769  -1.004 125.819  0.00  0.00    +0.000 C 
ENDROOT
BRANCH   1   2
ATOM      2  C   UNL     1      -7.988  -1.974 126.969  0.00  0.00    +0.000 A 
ATOM      3  C   UNL     1      -8.699  -3.171 126.780  0.00  0.00    +0.000 A 
ATOM      4  C   UNL     1      -9.061  -3.955 127.871  0.00  0.00    +0.000 A 
ATOM      5  C   UNL     1      -8.622  -3.612 129.141  0.00  0.00    +0.000 A 
ATOM      6  C   UNL     1      -7.841  -2.471 129.334  0.00  0.00    +0.000 A 
ATOM      7  C   UNL     1      -7.538  -1.645 128.251  0.00  0.00    +0.000 A 
ENDBRANCH   1   2
BRANCH   1   8
ATOM      8  C   UNL     1      -6.878  -1.595 124.741  0.00  0.00    +0.000 A 
ATOM      9  C   UNL     1      -5.816  -2.424 125.095  0.00  0.00    +0.000 A 
ATOM     10  C   UNL     1      -5.035  -2.978 124.087  0.00  0.00    +0.000 A 
ATOM     11  C   UNL     1      -5.333  -2.695 122.760  0.00  0.00    +0.000 A 
ATOM     12  C   UNL     1      -6.408  -1.866 122.492  0.00  0.00    +0.000 A 
ATOM     13  N   UNL     1      -7.180  -1.315 123.448  0.00  0.00    +0.000 NA
ENDBRANCH   1   8
BRANCH   1  14
ATOM     14  C   UNL     1      -9.088  -0.484 125.212  0.00  0.00    +0.000 C 
BRANCH  14  15
ATOM     15  C   UNL     1      -9.498   0.880 125.784  0.00  0.00    +0.000 C 
BRANCH  15  17
ATOM     16  C   UNL     1      -8.596   2.799 124.668  0.00  0.00    +0.000 C 
ATOM     17  N   UNL     1      -9.729   1.873 124.724  0.00  0.00    +0.000 NA
ATOM     18  C   UNL     1      -9.926   1.234 123.424  0.00  0.00    +0.000 C 
ENDBRANCH  15  17
ENDBRANCH  14  15
ENDBRANCH   1  14
TORSDOF 5
ENDMDL
MODEL 2
REMARK VINA RESULT:      -6.3      1.166      4.302
REMARK  Name = Pheniramine
REMARK  7 active torsions:
REMARK  status: ('A' for Active; 'I' for Inactive)
REMARK    1  A    between atoms: C_1  and  N_2
REMARK    2  A    between atoms: N_2  and  C_3
REMARK    3  A    between atoms: N_2  and  C_4
REMARK    4  A    between atoms: C_4  and  C_5
REMARK    5  A    between atoms: C_5  and  C_6
REMARK    6  A    between atoms: C_6  and  C_7
REMARK    7  A    between atoms: C_6  and  C_13
REMARK                            x       y       z     vdW  Elec       q    Type
REMARK                         _______ _______ _______ _____ _____    ______ ____
ROOT
ATOM      1  C   UNL     1      -8.264  -1.306 125.491  0.00  0.00    +0.000 C 
ENDROOT
BRANCH   1   2
ATOM      2  C   UNL     1      -7.113  -1.783 124.620  0.00  0.00    +0.000 A 
ATOM      3  C   UNL     1      -7.047  -1.443 123.258  0.00  0.00    +0.000 A 
ATOM      4  C   UNL     1      -6.103  -2.040 122.429  0.00  0.00    +0.000 A 
ATOM      5  C   UNL     1      -5.150  -2.890 122.970  0.00  0.00    +0.000 A 
ATOM      6  C   UNL     1      -5.149  -3.170 124.337  0.00  0.00    +0.000 A 
ATOM      7  C   UNL     1      -6.139  -2.629 125.158  0.00  0.00    +0.000 A 
ENDBRANCH   1   2
BRANCH   1   8
ATOM      8  C   UNL     1      -8.326  -2.057 126.809  0.00  0.00    +0.000 A 
ATOM      9  C   UNL     1      -8.937  -3.307 126.868  0.00  0.00    +0.000 A 
ATOM     10  C   UNL     1      -8.952  -3.988 128.080  0.00  0.00    +0.000 A 
ATOM     11  C   UNL     1      -8.360  -3.408 129.195  0.00  0.00    +0.000 A 
ATOM     12  C   UNL     1      -7.770  -2.165 129.053  0.00  0.00    +0.000 A 
ATOM     13  N   UNL     1      -7.741  -1.484 127.892  0.00  0.00    +0.000 NA
ENDBRANCH   1   8
BRANCH   1  14
ATOM     14  C   UNL     1      -8.243   0.217 125.732  0.00  0.00    +0.000 C 
BRANCH  14  15
ATOM     15  C   UNL     1      -9.645   0.840 125.667  0.00  0.00    +0.000 C 
BRANCH  15  17
ATOM     16  C   UNL     1      -8.539   2.780 124.798  0.00  0.00    +0.000 C 
ATOM     17  N   UNL     1      -9.719   1.922 124.674  0.00  0.00    +0.000 NA
ATOM     18  C   UNL     1      -9.822   1.395 123.314  0.00  0.00    +0.000 C 
ENDBRANCH  15  17
ENDBRANCH  14  15
ENDBRANCH   1  14
TORSDOF 5
ENDMDL
MODEL 3
REMARK VINA RESULT:      -6.0      7.640     10.308
REMARK  Name = Pheniramine
REMARK  7 active torsions:
REMARK  status: ('A' for Active; 'I' for Inactive)
REMARK    1  A    between atoms: C_1  and  N_2
REMARK    2  A    between atoms: N_2  and  C_3
REMARK    3  A    between atoms: N_2  and  C_4
REMARK    4  A    between atoms: C_4  and  C_5
REMARK    5  A    between atoms: C_5  and  C_6
REMARK    6  A    between atoms: C_6  and  C_7
REMARK    7  A    between atoms: C_6  and  C_13
REMARK                            x       y       z     vdW  Elec       q    Type
REMARK                         _______ _______ _______ _____ _____    ______ ____
ROOT
ATOM      1  C   UNL     1      -9.209   6.350 131.654  0.00  0.00    +0.000 C 
ENDROOT
BRANCH   1   2
ATOM      2  C   UNL     1     -10.461   6.858 130.957  0.00  0.00    +0.000 A 
ATOM      3  C   UNL     1     -10.382   7.520 129.720  0.00  0.00    +0.000 A 
ATOM      4  C   UNL     1     -11.502   8.149 129.186  0.00  0.00    +0.000 A 
ATOM      5  C   UNL     1     -12.729   8.027 129.820  0.00  0.00    +0.000 A 
ATOM      6  C   UNL     1     -12.841   7.298 131.006  0.00  0.00    +0.000 A 
ATOM      7  C   UNL     1     -11.705   6.728 131.581  0.00  0.00    +0.000 A 
ENDBRANCH   1   2
BRANCH   1   8
ATOM      8  C   UNL     1      -9.252   4.848 131.872  0.00  0.00    +0.000 A 
ATOM      9  C   UNL     1      -9.230   4.333 133.167  0.00  0.00    +0.000 A 
ATOM     10  C   UNL     1      -9.301   2.955 133.340  0.00  0.00    +0.000 A 
ATOM     11  C   UNL     1      -9.395   2.132 132.225  0.00  0.00    +0.000 A 
ATOM     12  C   UNL     1      -9.416   2.722 130.973  0.00  0.00    +0.000 A 
ATOM     13  N   UNL     1      -9.347   4.052 130.777  0.00  0.00    +0.000 NA
ENDBRANCH   1   8
BRANCH   1  14
ATOM     14  C   UNL     1      -7.910   6.759 130.931  0.00  0.00    +0.000 C 
BRANCH  14  15
ATOM     15  C   UNL     1      -6.653   6.399 131.736  0.00  0.00    +0.000 C 
BRANCH  15  17
ATOM     16  C   UNL     1      -4.443   6.095 130.860  0.00  0.00    +0.000 C 
ATOM     17  N   UNL     1      -5.769   5.488 130.994  0.00  0.00    +0.000 NA
ATOM     18  C   UNL     1      -5.667   4.187 131.651  0.00  0.00    +0.000 C 
ENDBRANCH  15  17
ENDBRANCH  14  15
ENDBRANCH   1  14
TORSDOF 5
ENDMDL
MODEL 4
REMARK VINA RESULT:      -6.0      3.131      7.260
REMARK  Name = Pheniramine
REMARK  7 active torsions:
REMARK  status: ('A' for Active; 'I' for Inactive)
REMARK    1  A    between atoms: C_1  and  N_2
REMARK    2  A    between atoms: N_2  and  C_3
REMARK    3  A    between atoms: N_2  and  C_4
REMARK    4  A    between atoms: C_4  and  C_5
REMARK    5  A    between atoms: C_5  and  C_6
REMARK    6  A    between atoms: C_6  and  C_7
REMARK    7  A    between atoms: C_6  and  C_13
REMARK                            x       y       z     vdW  Elec       q    Type
REMARK                         _______ _______ _______ _____ _____    ______ ____
ROOT
ATOM      1  C   UNL     1      -7.977   2.335 122.970  0.00  0.00    +0.000 C 
ENDROOT
BRANCH   1   2
ATOM      2  C   UNL     1      -7.757   3.176 121.722  0.00  0.00    +0.000 A 
ATOM      3  C   UNL     1      -8.833   3.528 120.888  0.00  0.00    +0.000 A 
ATOM      4  C   UNL     1      -8.599   4.128 119.655  0.00  0.00    +0.000 A 
ATOM      5  C   UNL     1      -7.307   4.482 119.295  0.00  0.00    +0.000 A 
ATOM      6  C   UNL     1      -6.238   4.217 120.151  0.00  0.00    +0.000 A 
ATOM      7  C   UNL     1      -6.462   3.551 121.357  0.00  0.00    +0.000 A 
ENDBRANCH   1   2
BRANCH   1   8
ATOM      8  C   UNL     1      -7.515   3.053 124.225  0.00  0.00    +0.000 A 
ATOM      9  C   UNL     1      -6.269   2.757 124.775  0.00  0.00    +0.000 A 
ATOM     10  C   UNL     1      -5.856   3.451 125.907  0.00  0.00    +0.000 A 
ATOM     11  C   UNL     1      -6.689   4.417 126.456  0.00  0.00    +0.000 A 
ATOM     12  C   UNL     1      -7.908   4.655 125.848  0.00  0.00    +0.000 A 
ATOM     13  N   UNL     1      -8.334   3.997 124.753  0.00  0.00    +0.000 NA
ENDBRANCH   1   8
BRANCH   1  14
ATOM     14  C   UNL     1      -9.435   1.856 123.122  0.00  0.00    +0.000 C 
BRANCH  14  15
ATOM     15  C   UNL     1      -9.553   0.614 124.016  0.00  0.00    +0.000 C 
BRANCH  15  17
ATOM     16  C   UNL     1      -7.909  -0.858 124.951  0.00  0.00    +0.000 C 
ATOM     17  N   UNL     1      -8.518  -0.385 123.706  0.00  0.00    +0.000 NA
ATOM     18  C   UNL     1      -9.067  -1.509 122.951  0.00  0.00    +0.000 C 
ENDBRANCH  15  17
ENDBRANCH  14  15
ENDBRANCH   1  14
TORSDOF 5
ENDMDL
MODEL 5
REMARK VINA RESULT:      -6.0      3.796      5.521
REMARK  Name = Pheniramine
REMARK  7 active torsions:
REMARK  status: ('A' for Active; 'I' for Inactive)
REMARK    1  A    between atoms: C_1  and  N_2
REMARK    2  A    between atoms: N_2  and  C_3
REMARK    3  A    between atoms: N_2  and  C_4
REMARK    4  A    between atoms: C_4  and  C_5
REMARK    5  A    between atoms: C_5  and  C_6
REMARK    6  A    between atoms: C_6  and  C_7
REMARK    7  A    between atoms: C_6  and  C_13
REMARK                            x       y       z     vdW  Elec       q    Type
REMARK                         _______ _______ _______ _____ _____    ______ ____
ROOT
ATOM      1  C   UNL     1      -7.623   2.129 123.617  0.00  0.00    +0.000 C 
ENDROOT
BRANCH   1   2
ATOM      2  C   UNL     1      -7.826   0.637 123.408  0.00  0.00    +0.000 A 
ATOM      3  C   UNL     1      -6.728  -0.232 123.278  0.00  0.00    +0.000 A 
ATOM      4  C   UNL     1      -6.920  -1.555 122.896  0.00  0.00    +0.000 A 
ATOM      5  C   UNL     1      -8.207  -2.051 122.751  0.00  0.00    +0.000 A 
ATOM      6  C   UNL     1      -9.311  -1.222 122.961  0.00  0.00    +0.000 A 
ATOM      7  C   UNL     1      -9.119   0.123 123.275  0.00  0.00    +0.000 A 
ENDBRANCH   1   2
BRANCH   1   8
ATOM      8  C   UNL     1      -7.564   2.882 122.301  0.00  0.00    +0.000 A 
ATOM      9  C   UNL     1      -6.332   3.155 121.711  0.00  0.00    +0.000 A 
ATOM     10  C   UNL     1      -6.307   3.818 120.489  0.00  0.00    +0.000 A 
ATOM     11  C   UNL     1      -7.504   4.189 119.890  0.00  0.00    +0.000 A 
ATOM     12  C   UNL     1      -8.686   3.877 120.538  0.00  0.00    +0.000 A 
ATOM     13  N   UNL     1      -8.739   3.237 121.722  0.00  0.00    +0.000 NA
ENDBRANCH   1   8
BRANCH   1  14
ATOM     14  C   UNL     1      -8.676   2.753 124.556  0.00  0.00    +0.000 C 
BRANCH  14  15
ATOM     15  C   UNL     1      -8.172   4.038 125.228  0.00  0.00    +0.000 C 
BRANCH  15  17
ATOM     16  C   UNL     1      -5.958   4.591 125.961  0.00  0.00    +0.000 C 
ATOM     17  N   UNL     1      -7.134   3.761 126.232  0.00  0.00    +0.000 NA
ATOM     18  C   UNL     1      -7.622   4.002 127.589  0.00  0.00    +0.000 C 
ENDBRANCH  15  17
ENDBRANCH  14  15
ENDBRANCH   1  14
TORSDOF 5
ENDMDL
MODEL 6
REMARK VINA RESULT:      -6.0      3.685      6.340
REMARK  Name = Pheniramine
REMARK  7 active torsions:
REMARK  status: ('A' for Active; 'I' for Inactive)
REMARK    1  A    between atoms: C_1  and  N_2
REMARK    2  A    between atoms: N_2  and  C_3
REMARK    3  A    between atoms: N_2  and  C_4
REMARK    4  A    between atoms: C_4  and  C_5
REMARK    5  A    between atoms: C_5  and  C_6
REMARK    6  A    between atoms: C_6  and  C_7
REMARK    7  A    between atoms: C_6  and  C_13
REMARK                            x       y       z     vdW  Elec       q    Type
REMARK                         _______ _______ _______ _____ _____    ______ ____
ROOT
ATOM      1  C   UNL     1      -7.630   1.868 123.738  0.00  0.00    +0.000 C 
ENDROOT
BRANCH   1   2
ATOM      2  C   UNL     1      -7.509   2.736 122.496  0.00  0.00    +0.000 A 
ATOM      3  C   UNL     1      -8.653   3.193 121.818  0.00  0.00    +0.000 A 
ATOM      4  C   UNL     1      -8.534   3.819 120.582  0.00  0.00    +0.000 A 
ATOM      5  C   UNL     1      -7.276   4.095 120.067  0.00  0.00    +0.000 A 
ATOM      6  C   UNL     1      -6.129   3.725 120.771  0.00  0.00    +0.000 A 
ATOM      7  C   UNL     1      -6.246   3.033 121.976  0.00  0.00    +0.000 A 
ENDBRANCH   1   2
BRANCH   1   8
ATOM      8  C   UNL     1      -7.864   0.409 123.389  0.00  0.00    +0.000 A 
ATOM      9  C   UNL     1      -9.165  -0.071 123.249  0.00  0.00    +0.000 A 
ATOM     10  C   UNL     1      -9.351  -1.403 122.898  0.00  0.00    +0.000 A 
ATOM     11  C   UNL     1      -8.244  -2.216 122.694  0.00  0.00    +0.000 A 
ATOM     12  C   UNL     1      -6.986  -1.661 122.848  0.00  0.00    +0.000 A 
ATOM     13  N   UNL     1      -6.776  -0.376 123.188  0.00  0.00    +0.000 NA
ENDBRANCH   1   8
BRANCH   1  14
ATOM     14  C   UNL     1      -6.428   2.014 124.693  0.00  0.00    +0.000 C 
BRANCH  14  15
ATOM     15  C   UNL     1      -6.648   3.104 125.750  0.00  0.00    +0.000 C 
BRANCH  15  17
ATOM     16  C   UNL     1      -6.232   5.364 125.069  0.00  0.00    +0.000 C 
ATOM     17  N   UNL     1      -5.634   4.166 125.662  0.00  0.00    +0.000 NA
ATOM     18  C   UNL     1      -5.069   4.478 126.974  0.00  0.00    +0.000 C 
ENDBRANCH  15  17
ENDBRANCH  14  15
ENDBRANCH   1  14
TORSDOF 5
ENDMDL
MODEL 7
REMARK VINA RESULT:      -5.9      3.758      6.854
REMARK  Name = Pheniramine
REMARK  7 active torsions:
REMARK  status: ('A' for Active; 'I' for Inactive)
REMARK    1  A    between atoms: C_1  and  N_2
REMARK    2  A    between atoms: N_2  and  C_3
REMARK    3  A    between atoms: N_2  and  C_4
REMARK    4  A    between atoms: C_4  and  C_5
REMARK    5  A    between atoms: C_5  and  C_6
REMARK    6  A    between atoms: C_6  and  C_7
REMARK    7  A    between atoms: C_6  and  C_13
REMARK                            x       y       z     vdW  Elec       q    Type
REMARK                         _______ _______ _______ _____ _____    ______ ____
ROOT
ATOM      1  C   UNL     1      -7.749   2.830 123.319  0.00  0.00    +0.000 C 
ENDROOT
BRANCH   1   2
ATOM      2  C   UNL     1      -7.101   3.378 122.058  0.00  0.00    +0.000 A 
ATOM      3  C   UNL     1      -5.742   3.736 122.040  0.00  0.00    +0.000 A 
ATOM      4  C   UNL     1      -5.207   4.413 120.949  0.00  0.00    +0.000 A 
ATOM      5  C   UNL     1      -5.990   4.638 119.826  0.00  0.00    +0.000 A 
ATOM      6  C   UNL     1      -7.319   4.211 119.796  0.00  0.00    +0.000 A 
ATOM      7  C   UNL     1      -7.877   3.596 120.916  0.00  0.00    +0.000 A 
ENDBRANCH   1   2
BRANCH   1   8
ATOM      8  C   UNL     1      -8.182   1.384 123.151  0.00  0.00    +0.000 A 
ATOM      9  C   UNL     1      -7.256   0.358 123.322  0.00  0.00    +0.000 A 
ATOM     10  C   UNL     1      -7.685  -0.958 123.194  0.00  0.00    +0.000 A 
ATOM     11  C   UNL     1      -9.019  -1.215 122.903  0.00  0.00    +0.000 A 
ATOM     12  C   UNL     1      -9.876  -0.140 122.754  0.00  0.00    +0.000 A 
ATOM     13  N   UNL     1      -9.488   1.144 122.871  0.00  0.00    +0.000 NA
ENDBRANCH   1   8
BRANCH   1  14
ATOM     14  C   UNL     1      -6.861   2.991 124.570  0.00  0.00    +0.000 C 
BRANCH  14  15
ATOM     15  C   UNL     1      -7.620   3.613 125.751  0.00  0.00    +0.000 C 
BRANCH  15  17
ATOM     16  C   UNL     1      -6.052   4.251 127.446  0.00  0.00    +0.000 C 
ATOM     17  N   UNL     1      -6.883   4.739 126.345  0.00  0.00    +0.000 NA
ATOM     18  C   UNL     1      -6.058   5.423 125.351  0.00  0.00    +0.000 C 
ENDBRANCH  15  17
ENDBRANCH  14  15
ENDBRANCH   1  14
TORSDOF 5
ENDMDL
MODEL 8
REMARK VINA RESULT:      -5.8      4.169      6.531
REMARK  Name = Pheniramine
REMARK  7 active torsions:
REMARK  status: ('A' for Active; 'I' for Inactive)
REMARK    1  A    between atoms: C_1  and  N_2
REMARK    2  A    between atoms: N_2  and  C_3
REMARK    3  A    between atoms: N_2  and  C_4
REMARK    4  A    between atoms: C_4  and  C_5
REMARK    5  A    between atoms: C_5  and  C_6
REMARK    6  A    between atoms: C_6  and  C_7
REMARK    7  A    between atoms: C_6  and  C_13
REMARK                            x       y       z     vdW  Elec       q    Type
REMARK                         _______ _______ _______ _____ _____    ______ ____
ROOT
ATOM      1  C   UNL     1      -6.065   3.283 123.187  0.00  0.00    +0.000 C 
ENDROOT
BRANCH   1   2
ATOM      2  C   UNL     1      -7.246   2.338 123.336  0.00  0.00    +0.000 A 
ATOM      3  C   UNL     1      -8.523   2.823 123.669  0.00  0.00    +0.000 A 
ATOM      4  C   UNL     1      -9.548   1.940 123.992  0.00  0.00    +0.000 A 
ATOM      5  C   UNL     1      -9.342   0.573 123.878  0.00  0.00    +0.000 A 
ATOM      6  C   UNL     1      -8.103   0.078 123.465  0.00  0.00    +0.000 A 
ATOM      7  C   UNL     1      -7.053   0.960 123.209  0.00  0.00    +0.000 A 
ENDBRANCH   1   2
BRANCH   1   8
ATOM      8  C   UNL     1      -6.013   3.912 121.806  0.00  0.00    +0.000 A 
ATOM      9  C   UNL     1      -7.019   3.640 120.881  0.00  0.00    +0.000 A 
ATOM     10  C   UNL     1      -6.965   4.253 119.635  0.00  0.00    +0.000 A 
ATOM     11  C   UNL     1      -5.917   5.118 119.345  0.00  0.00    +0.000 A 
ATOM     12  C   UNL     1      -4.961   5.339 120.319  0.00  0.00    +0.000 A 
ATOM     13  N   UNL     1      -4.987   4.758 121.534  0.00  0.00    +0.000 NA
ENDBRANCH   1   8
BRANCH   1  14
ATOM     14  C   UNL     1      -6.021   4.369 124.282  0.00  0.00    +0.000 C 
BRANCH  14  15
ATOM     15  C   UNL     1      -4.924   4.108 125.323  0.00  0.00    +0.000 C 
BRANCH  15  17
ATOM     16  C   UNL     1      -3.957   2.516 126.831  0.00  0.00    +0.000 C 
ATOM     17  N   UNL     1      -5.155   2.856 126.060  0.00  0.00    +0.000 NA
ATOM     18  C   UNL     1      -6.314   2.961 126.944  0.00  0.00    +0.000 C 
ENDBRANCH  15  17
ENDBRANCH  14  15
ENDBRANCH   1  14
TORSDOF 5
ENDMDL
MODEL 9
REMARK VINA RESULT:      -5.7      3.133      5.097
REMARK  Name = Pheniramine
REMARK  7 active torsions:
REMARK  status: ('A' for Active; 'I' for Inactive)
REMARK    1  A    between atoms: C_1  and  N_2
REMARK    2  A    between atoms: N_2  and  C_3
REMARK    3  A    between atoms: N_2  and  C_4
REMARK    4  A    between atoms: C_4  and  C_5
REMARK    5  A    between atoms: C_5  and  C_6
REMARK    6  A    between atoms: C_6  and  C_7
REMARK    7  A    between atoms: C_6  and  C_13
REMARK                            x       y       z     vdW  Elec       q    Type
REMARK                         _______ _______ _______ _____ _____    ______ ____
ROOT
ATOM      1  C   UNL     1      -7.628   1.682 123.815  0.00  0.00    +0.000 C 
ENDROOT
BRANCH   1   2
ATOM      2  C   UNL     1      -7.813   0.210 123.485  0.00  0.00    +0.000 A 
ATOM      3  C   UNL     1      -9.062  -0.289 123.078  0.00  0.00    +0.000 A 
ATOM      4  C   UNL     1      -9.270  -1.660 122.966  0.00  0.00    +0.000 A 
ATOM      5  C   UNL     1      -8.209  -2.534 123.148  0.00  0.00    +0.000 A 
ATOM      6  C   UNL     1      -6.940  -2.048 123.468  0.00  0.00    +0.000 A 
ATOM      7  C   UNL     1      -6.747  -0.678 123.651  0.00  0.00    +0.000 A 
ENDBRANCH   1   2
BRANCH   1   8
ATOM      8  C   UNL     1      -7.580   2.542 122.565  0.00  0.00    +0.000 A 
ATOM      9  C   UNL     1      -6.351   2.871 121.995  0.00  0.00    +0.000 A 
ATOM     10  C   UNL     1      -6.336   3.633 120.832  0.00  0.00    +0.000 A 
ATOM     11  C   UNL     1      -7.539   4.042 120.270  0.00  0.00    +0.000 A 
ATOM     12  C   UNL     1      -8.716   3.669 120.894  0.00  0.00    +0.000 A 
ATOM     13  N   UNL     1      -8.760   2.934 122.021  0.00  0.00    +0.000 NA
ENDBRANCH   1   8
BRANCH   1  14
ATOM     14  C   UNL     1      -8.687   2.215 124.802  0.00  0.00    +0.000 C 
BRANCH  14  15
ATOM     15  C   UNL     1      -8.599   1.538 126.177  0.00  0.00    +0.000 C 
BRANCH  15  17
ATOM     16  C   UNL     1      -8.485   1.826 128.553  0.00  0.00    +0.000 C 
ATOM     17  N   UNL     1      -8.475   2.521 127.265  0.00  0.00    +0.000 NA
ATOM     18  C   UNL     1      -7.260   3.321 127.129  0.00  0.00    +0.000 C 
ENDBRANCH  15  17
ENDBRANCH  14  15
ENDBRANCH   1  14
TORSDOF 5
ENDMDL
