MODEL 1
REMARK VINA RESULT:      -7.6      0.000      0.000
REMARK  Name = Phenindamine
REMARK  2 active torsions:
REMARK  status: ('A' for Active; 'I' for Inactive)
REMARK    1  A    between atoms: C_1  and  N_2
REMARK    2  A    between atoms: C_8  and  C_15
REMARK                            x       y       z     vdW  Elec       q    Type
REMARK                         _______ _______ _______ _____ _____    ______ ____
ROOT
ATOM      1  C   UNL     1      -4.344   2.362 126.598  0.00  0.00    +0.000 C 
ATOM      2  N   UNL     1      -5.707   2.158 127.085  0.00  0.00    +0.000 NA
ATOM      3  C   UNL     1      -5.682   1.789 128.512  0.00  0.00    +0.000 C 
ATOM      4  C   UNL     1      -6.318   0.486 129.023  0.00  0.00    +0.000 C 
ATOM      5  C   UNL     1      -7.013  -0.275 127.982  0.00  0.00    +0.000 C 
ATOM      6  C   UNL     1      -7.076   0.083 126.691  0.00  0.00    +0.000 C 
ATOM      7  C   UNL     1      -6.453   1.310 126.141  0.00  0.00    +0.000 C 
ATOM      8  C   UNL     1      -7.764  -0.969 125.834  0.00  0.00    +0.000 C 
ATOM      9  C   UNL     1      -8.154  -1.974 126.892  0.00  0.00    +0.000 A 
ATOM     10  C   UNL     1      -8.829  -3.174 126.752  0.00  0.00    +0.000 A 
ATOM     11  C   UNL     1      -9.012  -3.958 127.893  0.00  0.00    +0.000 A 
ATOM     12  C   UNL     1      -8.519  -3.540 129.142  0.00  0.00    +0.000 A 
ATOM     13  C   UNL     1      -7.841  -2.328 129.272  0.00  0.00    +0.000 A 
ATOM     14  C   UNL     1      -7.677  -1.551 128.141  0.00  0.00    +0.000 A 
ENDROOT
BRANCH   8  15
ATOM     15  C   UNL     1      -6.823  -1.543 124.789  0.00  0.00    +0.000 A 
ATOM     16  C   UNL     1      -7.001  -1.254 123.424  0.00  0.00    +0.000 A 
ATOM     17  C   UNL     1      -6.273  -1.936 122.454  0.00  0.00    +0.000 A 
ATOM     18  C   UNL     1      -5.279  -2.829 122.842  0.00  0.00    +0.000 A 
ATOM     19  C   UNL     1      -5.007  -3.029 124.195  0.00  0.00    +0.000 A 
ATOM     20  C   UNL     1      -5.806  -2.426 125.167  0.00  0.00    +0.000 A 
ENDBRANCH   8  15
TORSDOF 1
ENDMDL
MODEL 2
REMARK VINA RESULT:      -7.4      1.483      4.481
REMARK  Name = Phenindamine
REMARK  2 active torsions:
REMARK  status: ('A' for Active; 'I' for Inactive)
REMARK    1  A    between atoms: C_1  and  N_2
REMARK    2  A    between atoms: C_8  and  C_15
REMARK                            x       y       z     vdW  Elec       q    Type
REMARK                         _______ _______ _______ _____ _____    ______ ____
ROOT
ATOM      1  C   UNL     1      -8.411   2.238 128.579  0.00  0.00    +0.000 C 
ATOM      2  N   UNL     1      -7.331   2.266 127.593  0.00  0.00    +0.000 NA
ATOM      3  C   UNL     1      -7.877   2.565 126.257  0.00  0.00    +0.000 C 
ATOM      4  C   UNL     1      -7.663   1.620 125.064  0.00  0.00    +0.000 C 
ATOM      5  C   UNL     1      -6.801   0.476 125.370  0.00  0.00    +0.000 C 
ATOM      6  C   UNL     1      -6.266   0.226 126.574  0.00  0.00    +0.000 C 
ATOM      7  C   UNL     1      -6.468   1.085 127.764  0.00  0.00    +0.000 C 
ATOM      8  C   UNL     1      -5.518  -1.099 126.610  0.00  0.00    +0.000 C 
ATOM      9  C   UNL     1      -5.661  -1.534 125.170  0.00  0.00    +0.000 A 
ATOM     10  C   UNL     1      -5.183  -2.675 124.549  0.00  0.00    +0.000 A 
ATOM     11  C   UNL     1      -5.509  -2.874 123.207  0.00  0.00    +0.000 A 
ATOM     12  C   UNL     1      -6.306  -1.946 122.512  0.00  0.00    +0.000 A 
ATOM     13  C   UNL     1      -6.782  -0.799 123.147  0.00  0.00    +0.000 A 
ATOM     14  C   UNL     1      -6.442  -0.601 124.471  0.00  0.00    +0.000 A 
ENDROOT
BRANCH   8  15
ATOM     15  C   UNL     1      -6.150  -2.072 127.589  0.00  0.00    +0.000 A 
ATOM     16  C   UNL     1      -7.489  -2.476 127.440  0.00  0.00    +0.000 A 
ATOM     17  C   UNL     1      -8.127  -3.200 128.442  0.00  0.00    +0.000 A 
ATOM     18  C   UNL     1      -7.401  -3.628 129.550  0.00  0.00    +0.000 A 
ATOM     19  C   UNL     1      -6.039  -3.342 129.647  0.00  0.00    +0.000 A 
ATOM     20  C   UNL     1      -5.424  -2.527 128.696  0.00  0.00    +0.000 A 
ENDBRANCH   8  15
TORSDOF 1
ENDMDL
MODEL 3
REMARK VINA RESULT:      -7.4      0.970      1.450
REMARK  Name = Phenindamine
REMARK  2 active torsions:
REMARK  status: ('A' for Active; 'I' for Inactive)
REMARK    1  A    between atoms: C_1  and  N_2
REMARK    2  A    between atoms: C_8  and  C_15
REMARK                            x       y       z     vdW  Elec       q    Type
REMARK                         _______ _______ _______ _____ _____    ______ ____
ROOT
ATOM      1  C   UNL     1      -5.869   2.790 125.309  0.00  0.00    +0.000 C 
ATOM      2  N   UNL     1      -7.109   2.364 125.954  0.00  0.00    +0.000 NA
ATOM      3  C   UNL     1      -6.936   2.349 127.418  0.00  0.00    +0.000 C 
ATOM      4  C   UNL     1      -7.181   1.080 128.250  0.00  0.00    +0.000 C 
ATOM      5  C   UNL     1      -7.685  -0.049 127.463  0.00  0.00    +0.000 C 
ATOM      6  C   UNL     1      -7.887  -0.022 126.137  0.00  0.00    +0.000 C 
ATOM      7  C   UNL     1      -7.635   1.163 125.285  0.00  0.00    +0.000 C 
ATOM      8  C   UNL     1      -8.298  -1.381 125.590  0.00  0.00    +0.000 C 
ATOM      9  C   UNL     1      -8.368  -2.184 126.868  0.00  0.00    +0.000 A 
ATOM     10  C   UNL     1      -8.702  -3.514 127.048  0.00  0.00    +0.000 A 
ATOM     11  C   UNL     1      -8.628  -4.037 128.341  0.00  0.00    +0.000 A 
ATOM     12  C   UNL     1      -8.220  -3.235 129.422  0.00  0.00    +0.000 A 
ATOM     13  C   UNL     1      -7.887  -1.894 129.229  0.00  0.00    +0.000 A 
ATOM     14  C   UNL     1      -7.977  -1.380 127.950  0.00  0.00    +0.000 A 
ENDROOT
BRANCH   8  15
ATOM     15  C   UNL     1      -7.277  -1.921 124.606  0.00  0.00    +0.000 A 
ATOM     16  C   UNL     1      -6.093  -2.532 125.058  0.00  0.00    +0.000 A 
ATOM     17  C   UNL     1      -5.069  -2.841 124.169  0.00  0.00    +0.000 A 
ATOM     18  C   UNL     1      -5.262  -2.650 122.805  0.00  0.00    +0.000 A 
ATOM     19  C   UNL     1      -6.481  -2.163 122.332  0.00  0.00    +0.000 A 
ATOM     20  C   UNL     1      -7.469  -1.755 123.229  0.00  0.00    +0.000 A 
ENDBRANCH   8  15
TORSDOF 1
ENDMDL
MODEL 4
REMARK VINA RESULT:      -7.2      1.751      4.219
REMARK  Name = Phenindamine
REMARK  2 active torsions:
REMARK  status: ('A' for Active; 'I' for Inactive)
REMARK    1  A    between atoms: C_1  and  N_2
REMARK    2  A    between atoms: C_8  and  C_15
REMARK                            x       y       z     vdW  Elec       q    Type
REMARK                         _______ _______ _______ _____ _____    ______ ____
ROOT
ATOM      1  C   UNL     1      -5.469   2.760 127.155  0.00  0.00    +0.000 C 
ATOM      2  N   UNL     1      -5.283   2.017 125.910  0.00  0.00    +0.000 NA
ATOM      3  C   UNL     1      -6.311   2.411 124.930  0.00  0.00    +0.000 C 
ATOM      4  C   UNL     1      -7.259   1.382 124.292  0.00  0.00    +0.000 C 
ATOM      5  C   UNL     1      -6.970  -0.000 124.680  0.00  0.00    +0.000 C 
ATOM      6  C   UNL     1      -6.005  -0.365 125.537  0.00  0.00    +0.000 C 
ATOM      7  C   UNL     1      -5.087   0.588 126.204  0.00  0.00    +0.000 C 
ATOM      8  C   UNL     1      -6.029  -1.858 125.833  0.00  0.00    +0.000 C 
ATOM      9  C   UNL     1      -7.151  -2.300 124.923  0.00  0.00    +0.000 A 
ATOM     10  C   UNL     1      -7.666  -3.569 124.722  0.00  0.00    +0.000 A 
ATOM     11  C   UNL     1      -8.758  -3.702 123.863  0.00  0.00    +0.000 A 
ATOM     12  C   UNL     1      -9.320  -2.579 123.229  0.00  0.00    +0.000 A 
ATOM     13  C   UNL     1      -8.793  -1.305 123.438  0.00  0.00    +0.000 A 
ATOM     14  C   UNL     1      -7.702  -1.183 124.278  0.00  0.00    +0.000 A 
ENDROOT
BRANCH   8  15
ATOM     15  C   UNL     1      -6.311  -2.133 127.298  0.00  0.00    +0.000 A 
ATOM     16  C   UNL     1      -5.288  -2.577 128.158  0.00  0.00    +0.000 A 
ATOM     17  C   UNL     1      -5.585  -3.024 129.441  0.00  0.00    +0.000 A 
ATOM     18  C   UNL     1      -6.887  -2.923 129.921  0.00  0.00    +0.000 A 
ATOM     19  C   UNL     1      -7.886  -2.366 129.123  0.00  0.00    +0.000 A 
ATOM     20  C   UNL     1      -7.612  -2.016 127.800  0.00  0.00    +0.000 A 
ENDBRANCH   8  15
TORSDOF 1
ENDMDL
MODEL 5
REMARK VINA RESULT:      -7.0      2.476      3.744
REMARK  Name = Phenindamine
REMARK  2 active torsions:
REMARK  status: ('A' for Active; 'I' for Inactive)
REMARK    1  A    between atoms: C_1  and  N_2
REMARK    2  A    between atoms: C_8  and  C_15
REMARK                            x       y       z     vdW  Elec       q    Type
REMARK                         _______ _______ _______ _____ _____    ______ ____
ROOT
ATOM      1  C   UNL     1      -6.902   2.309 128.878  0.00  0.00    +0.000 C 
ATOM      2  N   UNL     1      -7.948   1.300 128.720  0.00  0.00    +0.000 NA
ATOM      3  C   UNL     1      -7.418  -0.033 129.064  0.00  0.00    +0.000 C 
ATOM      4  C   UNL     1      -7.458  -1.203 128.068  0.00  0.00    +0.000 C 
ATOM      5  C   UNL     1      -8.149  -0.883 126.816  0.00  0.00    +0.000 C 
ATOM      6  C   UNL     1      -8.671   0.316 126.520  0.00  0.00    +0.000 C 
ATOM      7  C   UNL     1      -8.630   1.485 127.428  0.00  0.00    +0.000 C 
ATOM      8  C   UNL     1      -9.215   0.372 125.099  0.00  0.00    +0.000 C 
ATOM      9  C   UNL     1      -8.972  -1.051 124.655  0.00  0.00    +0.000 A 
ATOM     10  C   UNL     1      -9.259  -1.649 123.440  0.00  0.00    +0.000 A 
ATOM     11  C   UNL     1      -8.872  -2.979 123.259  0.00  0.00    +0.000 A 
ATOM     12  C   UNL     1      -8.204  -3.681 124.278  0.00  0.00    +0.000 A 
ATOM     13  C   UNL     1      -7.920  -3.069 125.498  0.00  0.00    +0.000 A 
ATOM     14  C   UNL     1      -8.320  -1.758 125.676  0.00  0.00    +0.000 A 
ENDROOT
BRANCH   8  15
ATOM     15  C   UNL     1      -8.472   1.392 124.256  0.00  0.00    +0.000 A 
ATOM     16  C   UNL     1      -9.160   2.206 123.337  0.00  0.00    +0.000 A 
ATOM     17  C   UNL     1      -8.463   2.990 122.424  0.00  0.00    +0.000 A 
ATOM     18  C   UNL     1      -7.075   3.060 122.495  0.00  0.00    +0.000 A 
ATOM     19  C   UNL     1      -6.389   2.356 123.484  0.00  0.00    +0.000 A 
ATOM     20  C   UNL     1      -7.078   1.488 124.332  0.00  0.00    +0.000 A 
ENDBRANCH   8  15
TORSDOF 1
ENDMDL
MODEL 6
REMARK VINA RESULT:      -6.8      2.058      4.430
REMARK  Name = Phenindamine
REMARK  2 active torsions:
REMARK  status: ('A' for Active; 'I' for Inactive)
REMARK    1  A    between atoms: C_1  and  N_2
REMARK    2  A    between atoms: C_8  and  C_15
REMARK                            x       y       z     vdW  Elec       q    Type
REMARK                         _______ _______ _______ _____ _____    ______ ____
ROOT
ATOM      1  C   UNL     1      -9.056  -1.071 122.776  0.00  0.00    +0.000 C 
ATOM      2  N   UNL     1      -8.392  -2.190 123.443  0.00  0.00    +0.000 NA
ATOM      3  C   UNL     1      -9.387  -3.015 124.153  0.00  0.00    +0.000 C 
ATOM      4  C   UNL     1      -9.285  -3.288 125.662  0.00  0.00    +0.000 C 
ATOM      5  C   UNL     1      -8.075  -2.739 126.276  0.00  0.00    +0.000 C 
ATOM      6  C   UNL     1      -7.145  -2.026 125.622  0.00  0.00    +0.000 C 
ATOM      7  C   UNL     1      -7.212  -1.706 124.178  0.00  0.00    +0.000 C 
ATOM      8  C   UNL     1      -6.068  -1.490 126.555  0.00  0.00    +0.000 C 
ATOM      9  C   UNL     1      -6.515  -2.092 127.867  0.00  0.00    +0.000 A 
ATOM     10  C   UNL     1      -5.939  -1.983 129.120  0.00  0.00    +0.000 A 
ATOM     11  C   UNL     1      -6.592  -2.592 130.194  0.00  0.00    +0.000 A 
ATOM     12  C   UNL     1      -7.799  -3.287 130.005  0.00  0.00    +0.000 A 
ATOM     13  C   UNL     1      -8.371  -3.392 128.736  0.00  0.00    +0.000 A 
ATOM     14  C   UNL     1      -7.712  -2.799 127.676  0.00  0.00    +0.000 A 
ENDROOT
BRANCH   8  15
ATOM     15  C   UNL     1      -6.050   0.028 126.575  0.00  0.00    +0.000 A 
ATOM     16  C   UNL     1      -7.214   0.758 126.877  0.00  0.00    +0.000 A 
ATOM     17  C   UNL     1      -7.253   2.137 126.697  0.00  0.00    +0.000 A 
ATOM     18  C   UNL     1      -6.097   2.815 126.325  0.00  0.00    +0.000 A 
ATOM     19  C   UNL     1      -4.903   2.116 126.145  0.00  0.00    +0.000 A 
ATOM     20  C   UNL     1      -4.888   0.723 126.223  0.00  0.00    +0.000 A 
ENDBRANCH   8  15
TORSDOF 1
ENDMDL
MODEL 7
REMARK VINA RESULT:      -6.7      2.279      4.570
REMARK  Name = Phenindamine
REMARK  2 active torsions:
REMARK  status: ('A' for Active; 'I' for Inactive)
REMARK    1  A    between atoms: C_1  and  N_2
REMARK    2  A    between atoms: C_8  and  C_15
REMARK                            x       y       z     vdW  Elec       q    Type
REMARK                         _______ _______ _______ _____ _____    ______ ____
ROOT
ATOM      1  C   UNL     1      -7.911   4.081 125.095  0.00  0.00    +0.000 C 
ATOM      2  N   UNL     1      -7.490   3.120 124.077  0.00  0.00    +0.000 NA
ATOM      3  C   UNL     1      -8.638   2.749 123.229  0.00  0.00    +0.000 C 
ATOM      4  C   UNL     1      -9.086   1.288 123.066  0.00  0.00    +0.000 C 
ATOM      5  C   UNL     1      -8.214   0.328 123.746  0.00  0.00    +0.000 C 
ATOM      6  C   UNL     1      -7.142   0.661 124.481  0.00  0.00    +0.000 C 
ATOM      7  C   UNL     1      -6.687   2.054 124.697  0.00  0.00    +0.000 C 
ATOM      8  C   UNL     1      -6.510  -0.546 125.159  0.00  0.00    +0.000 C 
ATOM      9  C   UNL     1      -7.381  -1.655 124.614  0.00  0.00    +0.000 A 
ATOM     10  C   UNL     1      -7.313  -3.016 124.850  0.00  0.00    +0.000 A 
ATOM     11  C   UNL     1      -8.287  -3.830 124.267  0.00  0.00    +0.000 A 
ATOM     12  C   UNL     1      -9.307  -3.278 123.472  0.00  0.00    +0.000 A 
ATOM     13  C   UNL     1      -9.365  -1.904 123.240  0.00  0.00    +0.000 A 
ATOM     14  C   UNL     1      -8.390  -1.107 123.807  0.00  0.00    +0.000 A 
ENDROOT
BRANCH   8  15
ATOM     15  C   UNL     1      -6.570  -0.434 126.671  0.00  0.00    +0.000 A 
ATOM     16  C   UNL     1      -7.790  -0.184 127.328  0.00  0.00    +0.000 A 
ATOM     17  C   UNL     1      -7.815   0.122 128.684  0.00  0.00    +0.000 A 
ATOM     18  C   UNL     1      -6.638   0.065 129.424  0.00  0.00    +0.000 A 
ATOM     19  C   UNL     1      -5.443  -0.306 128.810  0.00  0.00    +0.000 A 
ATOM     20  C   UNL     1      -5.397  -0.509 127.430  0.00  0.00    +0.000 A 
ENDBRANCH   8  15
TORSDOF 1
ENDMDL
MODEL 8
REMARK VINA RESULT:      -6.6      1.826      4.545
REMARK  Name = Phenindamine
REMARK  2 active torsions:
REMARK  status: ('A' for Active; 'I' for Inactive)
REMARK    1  A    between atoms: C_1  and  N_2
REMARK    2  A    between atoms: C_8  and  C_15
REMARK                            x       y       z     vdW  Elec       q    Type
REMARK                         _______ _______ _______ _____ _____    ______ ____
ROOT
ATOM      1  C   UNL     1      -6.907   0.640 129.775  0.00  0.00    +0.000 C 
ATOM      2  N   UNL     1      -7.414  -0.512 129.032  0.00  0.00    +0.000 NA
ATOM      3  C   UNL     1      -6.407  -1.589 129.025  0.00  0.00    +0.000 C 
ATOM      4  C   UNL     1      -5.863  -2.182 127.715  0.00  0.00    +0.000 C 
ATOM      5  C   UNL     1      -6.507  -1.643 126.516  0.00  0.00    +0.000 C 
ATOM      6  C   UNL     1      -7.456  -0.695 126.522  0.00  0.00    +0.000 C 
ATOM      7  C   UNL     1      -7.992  -0.067 127.752  0.00  0.00    +0.000 C 
ATOM      8  C   UNL     1      -7.843  -0.256 125.117  0.00  0.00    +0.000 C 
ATOM      9  C   UNL     1      -6.986  -1.188 124.292  0.00  0.00    +0.000 A 
ATOM     10  C   UNL     1      -6.885  -1.295 122.916  0.00  0.00    +0.000 A 
ATOM     11  C   UNL     1      -5.961  -2.205 122.398  0.00  0.00    +0.000 A 
ATOM     12  C   UNL     1      -5.155  -2.980 123.251  0.00  0.00    +0.000 A 
ATOM     13  C   UNL     1      -5.265  -2.864 124.637  0.00  0.00    +0.000 A 
ATOM     14  C   UNL     1      -6.192  -1.973 125.142  0.00  0.00    +0.000 A 
ENDROOT
BRANCH   8  15
ATOM     15  C   UNL     1      -7.524   1.209 124.880  0.00  0.00    +0.000 A 
ATOM     16  C   UNL     1      -6.226   1.708 125.096  0.00  0.00    +0.000 A 
ATOM     17  C   UNL     1      -5.980   3.077 125.078  0.00  0.00    +0.000 A 
ATOM     18  C   UNL     1      -7.002   3.954 124.730  0.00  0.00    +0.000 A 
ATOM     19  C   UNL     1      -8.262   3.462 124.389  0.00  0.00    +0.000 A 
ATOM     20  C   UNL     1      -8.538   2.099 124.509  0.00  0.00    +0.000 A 
ENDBRANCH   8  15
TORSDOF 1
ENDMDL
MODEL 9
REMARK VINA RESULT:      -6.5      1.976      4.727
REMARK  Name = Phenindamine
REMARK  2 active torsions:
REMARK  status: ('A' for Active; 'I' for Inactive)
REMARK    1  A    between atoms: C_1  and  N_2
REMARK    2  A    between atoms: C_8  and  C_15
REMARK                            x       y       z     vdW  Elec       q    Type
REMARK                         _______ _______ _______ _____ _____    ______ ____
ROOT
ATOM      1  C   UNL     1      -8.068   1.686 123.182  0.00  0.00    +0.000 C 
ATOM      2  N   UNL     1      -7.446   0.388 123.437  0.00  0.00    +0.000 NA
ATOM      3  C   UNL     1      -8.408  -0.694 123.155  0.00  0.00    +0.000 C 
ATOM      4  C   UNL     1      -8.793  -1.733 124.220  0.00  0.00    +0.000 C 
ATOM      5  C   UNL     1      -8.049  -1.592 125.473  0.00  0.00    +0.000 C 
ATOM      6  C   UNL     1      -7.141  -0.635 125.716  0.00  0.00    +0.000 C 
ATOM      7  C   UNL     1      -6.757   0.409 124.738  0.00  0.00    +0.000 C 
ATOM      8  C   UNL     1      -6.628  -0.676 127.148  0.00  0.00    +0.000 C 
ATOM      9  C   UNL     1      -7.362  -1.890 127.669  0.00  0.00    +0.000 A 
ATOM     10  C   UNL     1      -7.317  -2.467 128.926  0.00  0.00    +0.000 A 
ATOM     11  C   UNL     1      -8.150  -3.560 129.173  0.00  0.00    +0.000 A 
ATOM     12  C   UNL     1      -9.011  -4.052 128.176  0.00  0.00    +0.000 A 
ATOM     13  C   UNL     1      -9.047  -3.463 126.911  0.00  0.00    +0.000 A 
ATOM     14  C   UNL     1      -8.209  -2.392 126.670  0.00  0.00    +0.000 A 
ENDROOT
BRANCH   8  15
ATOM     15  C   UNL     1      -6.974   0.595 127.903  0.00  0.00    +0.000 A 
ATOM     16  C   UNL     1      -5.977   1.328 128.573  0.00  0.00    +0.000 A 
ATOM     17  C   UNL     1      -6.319   2.370 129.429  0.00  0.00    +0.000 A 
ATOM     18  C   UNL     1      -7.648   2.766 129.535  0.00  0.00    +0.000 A 
ATOM     19  C   UNL     1      -8.630   2.128 128.777  0.00  0.00    +0.000 A 
ATOM     20  C   UNL     1      -8.304   1.016 128.000  0.00  0.00    +0.000 A 
ENDBRANCH   8  15
TORSDOF 1
ENDMDL
