MODEL 1
REMARK VINA RESULT:      -7.8      0.000      0.000
REMARK  Name = Phenoxymethylpenicillin
REMARK  8 active torsions:
REMARK  status: ('A' for Active; 'I' for Inactive)
REMARK    1  A    between atoms: C_4  and  C_5
REMARK    2  A    between atoms: C_4  and  C_6
REMARK    3  A    between atoms: CA_7  and  C_23
REMARK    4  A    between atoms: CA_11  and  N_12
REMARK    5  A    between atoms: C_13  and  C_15
REMARK    6  A    between atoms: C_15  and  O_16
REMARK    7  A    between atoms: O_16  and  C_17
REMARK    8  A    between atoms: C_23  and  O_24
REMARK                            x       y       z     vdW  Elec       q    Type
REMARK                         _______ _______ _______ _____ _____    ______ ____
ROOT
ATOM      1  C   UNL     1      -9.047   0.122 124.231  0.00  0.00    +0.000 C 
ATOM      2  S   UNL     1      -7.625  -0.579 123.321  0.00  0.00    +0.000 S 
ATOM      3  C   UNL     1      -7.929  -2.262 124.090  0.00  0.00    +0.000 C 
ATOM      4  C   UNL     1      -6.600  -3.019 124.021  0.00  0.00    +0.000 C 
ATOM      5  C   UNL     1      -9.023  -2.914 123.224  0.00  0.00    +0.000 C 
ATOM      6  CA  UNL     1      -8.342  -1.931 125.544  0.00  0.00    +0.000 C 
ATOM      7  N   UNL     1      -9.093  -0.658 125.482  0.00  0.00    +0.000 N 
ATOM      8  C   UNL     1      -8.732   0.417 126.258  0.00  0.00    +0.000 C 
ATOM      9  O   UNL     1      -8.316   0.460 127.399  0.00  0.00    +0.000 OA
ATOM     10  CA  UNL     1      -8.832   1.403 125.056  0.00  0.00    +0.000 C 
ENDROOT
BRANCH  10  11
ATOM     11  N   UNL     1      -7.624   2.241 124.753  0.00  0.00    +0.000 N 
ATOM     12  C   UNL     1      -7.711   3.620 124.859  0.00  0.00    +0.000 C 
ATOM     13  O   UNL     1      -8.772   4.163 125.158  0.00  0.00    +0.000 OA
ATOM     14  H   UNL     1      -6.753   1.797 124.482  0.00  0.00    +0.000 HD
BRANCH  12  15
ATOM     15  C   UNL     1      -6.430   4.398 124.528  0.00  0.00    +0.000 C 
BRANCH  15  16
ATOM     16  O   UNL     1      -5.625   3.634 123.627  0.00  0.00    +0.000 OA
BRANCH  16  17
ATOM     17  C   UNL     1      -5.677   4.000 122.311  0.00  0.00    +0.000 A 
ATOM     18  C   UNL     1      -4.657   4.838 121.852  0.00  0.00    +0.000 A 
ATOM     19  C   UNL     1      -4.688   5.339 120.547  0.00  0.00    +0.000 A 
ATOM     20  C   UNL     1      -5.706   4.953 119.678  0.00  0.00    +0.000 A 
ATOM     21  C   UNL     1      -6.732   4.130 120.138  0.00  0.00    +0.000 A 
ATOM     22  C   UNL     1      -6.729   3.671 121.457  0.00  0.00    +0.000 A 
ENDBRANCH  16  17
ENDBRANCH  15  16
ENDBRANCH  12  15
ENDBRANCH  10  11
BRANCH   6  23
ATOM     23  C   UNL     1      -9.102  -2.992 126.378  0.00  0.00    +0.000 C 
ATOM     24  OXT UNL     1      -8.580  -3.601 127.304  0.00  0.00    +0.000 OA
BRANCH  23  25
ATOM     25  O   UNL     1     -10.380  -3.286 126.064  0.00  0.00    +0.000 OA
ATOM     26  H   UNL     1     -11.097  -2.656 126.230  0.00  0.00    +0.000 HD
ENDBRANCH  23  25
ENDBRANCH   6  23
TORSDOF 6
ENDMDL
MODEL 2
REMARK VINA RESULT:      -7.5      2.306      3.439
REMARK  Name = Phenoxymethylpenicillin
REMARK  8 active torsions:
REMARK  status: ('A' for Active; 'I' for Inactive)
REMARK    1  A    between atoms: C_4  and  C_5
REMARK    2  A    between atoms: C_4  and  C_6
REMARK    3  A    between atoms: CA_7  and  C_23
REMARK    4  A    between atoms: CA_11  and  N_12
REMARK    5  A    between atoms: C_13  and  C_15
REMARK    6  A    between atoms: C_15  and  O_16
REMARK    7  A    between atoms: O_16  and  C_17
REMARK    8  A    between atoms: C_23  and  O_24
REMARK                            x       y       z     vdW  Elec       q    Type
REMARK                         _______ _______ _______ _____ _____    ______ ____
ROOT
ATOM      1  C   UNL     1      -8.777   0.502 124.062  0.00  0.00    +0.000 C 
ATOM      2  S   UNL     1      -7.187  -0.113 123.403  0.00  0.00    +0.000 S 
ATOM      3  C   UNL     1      -7.520  -1.815 124.115  0.00  0.00    +0.000 C 
ATOM      4  C   UNL     1      -6.158  -2.497 124.270  0.00  0.00    +0.000 C 
ATOM      5  C   UNL     1      -8.417  -2.521 123.080  0.00  0.00    +0.000 C 
ATOM      6  CA  UNL     1      -8.187  -1.517 125.479  0.00  0.00    +0.000 C 
ATOM      7  N   UNL     1      -8.987  -0.288 125.289  0.00  0.00    +0.000 N 
ATOM      8  C   UNL     1      -8.820   0.800 126.112  0.00  0.00    +0.000 C 
ATOM      9  O   UNL     1      -8.603   0.859 127.306  0.00  0.00    +0.000 OA
ATOM     10  CA  UNL     1      -8.774   1.787 124.908  0.00  0.00    +0.000 C 
ENDROOT
BRANCH  10  11
ATOM     11  N   UNL     1      -7.581   2.693 124.808  0.00  0.00    +0.000 N 
ATOM     12  C   UNL     1      -7.711   4.029 125.154  0.00  0.00    +0.000 C 
ATOM     13  O   UNL     1      -8.798   4.485 125.501  0.00  0.00    +0.000 OA
ATOM     14  H   UNL     1      -6.688   2.324 124.497  0.00  0.00    +0.000 HD
BRANCH  12  15
ATOM     15  C   UNL     1      -6.443   4.882 125.018  0.00  0.00    +0.000 C 
BRANCH  15  16
ATOM     16  O   UNL     1      -5.939   5.200 126.318  0.00  0.00    +0.000 OA
BRANCH  16  17
ATOM     17  C   UNL     1      -4.751   4.621 126.665  0.00  0.00    +0.000 A 
ATOM     18  C   UNL     1      -4.002   5.269 127.651  0.00  0.00    +0.000 A 
ATOM     19  C   UNL     1      -2.731   4.800 127.995  0.00  0.00    +0.000 A 
ATOM     20  C   UNL     1      -2.230   3.645 127.397  0.00  0.00    +0.000 A 
ATOM     21  C   UNL     1      -2.968   3.006 126.403  0.00  0.00    +0.000 A 
ATOM     22  C   UNL     1      -4.217   3.505 126.023  0.00  0.00    +0.000 A 
ENDBRANCH  16  17
ENDBRANCH  15  16
ENDBRANCH  12  15
ENDBRANCH  10  11
BRANCH   6  23
ATOM     23  C   UNL     1      -9.015  -2.624 126.177  0.00  0.00    +0.000 C 
ATOM     24  OXT UNL     1      -8.552  -3.335 127.062  0.00  0.00    +0.000 OA
BRANCH  23  25
ATOM     25  O   UNL     1     -10.287  -2.844 125.786  0.00  0.00    +0.000 OA
ATOM     26  H   UNL     1     -10.578  -3.719 125.489  0.00  0.00    +0.000 HD
ENDBRANCH  23  25
ENDBRANCH   6  23
TORSDOF 6
ENDMDL
MODEL 3
REMARK VINA RESULT:      -7.4      3.406      7.299
REMARK  Name = Phenoxymethylpenicillin
REMARK  8 active torsions:
REMARK  status: ('A' for Active; 'I' for Inactive)
REMARK    1  A    between atoms: C_4  and  C_5
REMARK    2  A    between atoms: C_4  and  C_6
REMARK    3  A    between atoms: CA_7  and  C_23
REMARK    4  A    between atoms: CA_11  and  N_12
REMARK    5  A    between atoms: C_13  and  C_15
REMARK    6  A    between atoms: C_15  and  O_16
REMARK    7  A    between atoms: O_16  and  C_17
REMARK    8  A    between atoms: C_23  and  O_24
REMARK                            x       y       z     vdW  Elec       q    Type
REMARK                         _______ _______ _______ _____ _____    ______ ____
ROOT
ATOM      1  C   UNL     1      -6.058   3.168 127.103  0.00  0.00    +0.000 C 
ATOM      2  S   UNL     1      -4.672   2.076 126.625  0.00  0.00    +0.000 S 
ATOM      3  C   UNL     1      -3.435   3.290 127.343  0.00  0.00    +0.000 C 
ATOM      4  C   UNL     1      -2.100   3.015 126.645  0.00  0.00    +0.000 C 
ATOM      5  C   UNL     1      -3.386   2.977 128.850  0.00  0.00    +0.000 C 
ATOM      6  CA  UNL     1      -4.021   4.672 126.970  0.00  0.00    +0.000 C 
ATOM      7  N   UNL     1      -5.492   4.526 127.019  0.00  0.00    +0.000 N 
ATOM      8  C   UNL     1      -6.274   4.871 125.942  0.00  0.00    +0.000 C 
ATOM      9  O   UNL     1      -6.168   5.789 125.153  0.00  0.00    +0.000 OA
ATOM     10  CA  UNL     1      -7.095   3.550 126.032  0.00  0.00    +0.000 C 
ENDROOT
BRANCH  10  11
ATOM     11  N   UNL     1      -7.173   2.704 124.794  0.00  0.00    +0.000 N 
ATOM     12  C   UNL     1      -8.386   2.139 124.434  0.00  0.00    +0.000 C 
ATOM     13  O   UNL     1      -9.383   2.288 125.135  0.00  0.00    +0.000 OA
ATOM     14  H   UNL     1      -6.345   2.558 124.226  0.00  0.00    +0.000 HD
BRANCH  12  15
ATOM     15  C   UNL     1      -8.373   1.288 123.157  0.00  0.00    +0.000 C 
BRANCH  15  16
ATOM     16  O   UNL     1      -7.393   0.254 123.280  0.00  0.00    +0.000 OA
BRANCH  16  17
ATOM     17  C   UNL     1      -7.858  -0.981 123.633  0.00  0.00    +0.000 A 
ATOM     18  C   UNL     1      -7.160  -1.649 124.643  0.00  0.00    +0.000 A 
ATOM     19  C   UNL     1      -7.507  -2.956 124.997  0.00  0.00    +0.000 A 
ATOM     20  C   UNL     1      -8.593  -3.577 124.384  0.00  0.00    +0.000 A 
ATOM     21  C   UNL     1      -9.281  -2.919 123.367  0.00  0.00    +0.000 A 
ATOM     22  C   UNL     1      -8.901  -1.633 122.978  0.00  0.00    +0.000 A 
ENDBRANCH  16  17
ENDBRANCH  15  16
ENDBRANCH  12  15
ENDBRANCH  10  11
BRANCH   6  23
ATOM     23  C   UNL     1      -3.555   5.929 127.747  0.00  0.00    +0.000 C 
ATOM     24  OXT UNL     1      -4.339   6.694 128.296  0.00  0.00    +0.000 OA
BRANCH  23  25
ATOM     25  O   UNL     1      -2.239   6.219 127.804  0.00  0.00    +0.000 OA
ATOM     26  H   UNL     1      -1.839   6.588 128.606  0.00  0.00    +0.000 HD
ENDBRANCH  23  25
ENDBRANCH   6  23
TORSDOF 6
ENDMDL
MODEL 4
REMARK VINA RESULT:      -7.4      4.913      7.660
REMARK  Name = Phenoxymethylpenicillin
REMARK  8 active torsions:
REMARK  status: ('A' for Active; 'I' for Inactive)
REMARK    1  A    between atoms: C_4  and  C_5
REMARK    2  A    between atoms: C_4  and  C_6
REMARK    3  A    between atoms: CA_7  and  C_23
REMARK    4  A    between atoms: CA_11  and  N_12
REMARK    5  A    between atoms: C_13  and  C_15
REMARK    6  A    between atoms: C_15  and  O_16
REMARK    7  A    between atoms: O_16  and  C_17
REMARK    8  A    between atoms: C_23  and  O_24
REMARK                            x       y       z     vdW  Elec       q    Type
REMARK                         _______ _______ _______ _____ _____    ______ ____
ROOT
ATOM      1  C   UNL     1      -7.176   2.812 126.835  0.00  0.00    +0.000 C 
ATOM      2  S   UNL     1      -8.302   1.375 126.748  0.00  0.00    +0.000 S 
ATOM      3  C   UNL     1      -8.232   1.401 124.874  0.00  0.00    +0.000 C 
ATOM      4  C   UNL     1      -9.498   0.695 124.381  0.00  0.00    +0.000 C 
ATOM      5  C   UNL     1      -6.949   0.634 124.504  0.00  0.00    +0.000 C 
ATOM      6  CA  UNL     1      -8.227   2.909 124.529  0.00  0.00    +0.000 C 
ATOM      7  N   UNL     1      -7.477   3.580 125.614  0.00  0.00    +0.000 N 
ATOM      8  C   UNL     1      -8.028   4.627 126.313  0.00  0.00    +0.000 C 
ATOM      9  O   UNL     1      -8.738   5.539 125.938  0.00  0.00    +0.000 OA
ATOM     10  CA  UNL     1      -7.597   4.024 127.683  0.00  0.00    +0.000 C 
ENDROOT
BRANCH  10  11
ATOM     11  N   UNL     1      -8.671   3.824 128.713  0.00  0.00    +0.000 N 
ATOM     12  C   UNL     1      -8.921   4.827 129.637  0.00  0.00    +0.000 C 
ATOM     13  O   UNL     1      -8.250   5.857 129.645  0.00  0.00    +0.000 OA
ATOM     14  H   UNL     1      -9.210   2.965 128.725  0.00  0.00    +0.000 HD
BRANCH  12  15
ATOM     15  C   UNL     1     -10.033   4.537 130.654  0.00  0.00    +0.000 C 
BRANCH  15  16
ATOM     16  O   UNL     1     -11.308   4.748 130.043  0.00  0.00    +0.000 OA
BRANCH  16  17
ATOM     17  C   UNL     1     -11.763   6.036 130.023  0.00  0.00    +0.000 A 
ATOM     18  C   UNL     1     -12.180   6.574 131.244  0.00  0.00    +0.000 A 
ATOM     19  C   UNL     1     -12.751   7.849 131.297  0.00  0.00    +0.000 A 
ATOM     20  C   UNL     1     -12.850   8.615 130.137  0.00  0.00    +0.000 A 
ATOM     21  C   UNL     1     -12.448   8.076 128.917  0.00  0.00    +0.000 A 
ATOM     22  C   UNL     1     -11.925   6.782 128.857  0.00  0.00    +0.000 A 
ENDBRANCH  16  17
ENDBRANCH  15  16
ENDBRANCH  12  15
ENDBRANCH  10  11
BRANCH   6  23
ATOM     23  C   UNL     1      -7.731   3.368 123.136  0.00  0.00    +0.000 C 
ATOM     24  OXT UNL     1      -6.553   3.614 122.902  0.00  0.00    +0.000 OA
BRANCH  23  25
ATOM     25  O   UNL     1      -8.624   3.536 122.139  0.00  0.00    +0.000 OA
ATOM     26  H   UNL     1      -9.535   3.812 122.320  0.00  0.00    +0.000 HD
ENDBRANCH  23  25
ENDBRANCH   6  23
TORSDOF 6
ENDMDL
MODEL 5
REMARK VINA RESULT:      -7.2      8.325     10.248
REMARK  Name = Phenoxymethylpenicillin
REMARK  8 active torsions:
REMARK  status: ('A' for Active; 'I' for Inactive)
REMARK    1  A    between atoms: C_4  and  C_5
REMARK    2  A    between atoms: C_4  and  C_6
REMARK    3  A    between atoms: CA_7  and  C_23
REMARK    4  A    between atoms: CA_11  and  N_12
REMARK    5  A    between atoms: C_13  and  C_15
REMARK    6  A    between atoms: C_15  and  O_16
REMARK    7  A    between atoms: O_16  and  C_17
REMARK    8  A    between atoms: C_23  and  O_24
REMARK                            x       y       z     vdW  Elec       q    Type
REMARK                         _______ _______ _______ _____ _____    ______ ____
ROOT
ATOM      1  C   UNL     1      -6.256   5.044 132.228  0.00  0.00    +0.000 C 
ATOM      2  S   UNL     1      -6.211   3.545 131.183  0.00  0.00    +0.000 S 
ATOM      3  C   UNL     1      -4.410   3.857 130.767  0.00  0.00    +0.000 C 
ATOM      4  C   UNL     1      -4.134   3.127 129.449  0.00  0.00    +0.000 C 
ATOM      5  C   UNL     1      -3.611   3.267 131.944  0.00  0.00    +0.000 C 
ATOM      6  CA  UNL     1      -4.330   5.395 130.615  0.00  0.00    +0.000 C 
ATOM      7  N   UNL     1      -5.292   5.957 131.588  0.00  0.00    +0.000 N 
ATOM      8  C   UNL     1      -6.270   6.837 131.191  0.00  0.00    +0.000 C 
ATOM      9  O   UNL     1      -6.239   7.731 130.368  0.00  0.00    +0.000 OA
ATOM     10  CA  UNL     1      -7.371   6.075 131.987  0.00  0.00    +0.000 C 
ENDROOT
BRANCH  10  11
ATOM     11  N   UNL     1      -8.586   5.632 131.225  0.00  0.00    +0.000 N 
ATOM     12  C   UNL     1      -9.845   5.896 131.742  0.00  0.00    +0.000 C 
ATOM     13  O   UNL     1      -9.975   6.451 132.831  0.00  0.00    +0.000 OA
ATOM     14  H   UNL     1      -8.483   5.152 130.337  0.00  0.00    +0.000 HD
BRANCH  12  15
ATOM     15  C   UNL     1     -11.031   5.405 130.900  0.00  0.00    +0.000 C 
BRANCH  15  16
ATOM     16  O   UNL     1     -12.196   6.168 131.224  0.00  0.00    +0.000 OA
BRANCH  16  17
ATOM     17  C   UNL     1     -12.613   7.065 130.282  0.00  0.00    +0.000 A 
ATOM     18  C   UNL     1     -13.017   6.540 129.051  0.00  0.00    +0.000 A 
ATOM     19  C   UNL     1     -13.364   7.393 127.999  0.00  0.00    +0.000 A 
ATOM     20  C   UNL     1     -13.369   8.772 128.195  0.00  0.00    +0.000 A 
ATOM     21  C   UNL     1     -12.953   9.298 129.416  0.00  0.00    +0.000 A 
ATOM     22  C   UNL     1     -12.556   8.447 130.450  0.00  0.00    +0.000 A 
ENDBRANCH  16  17
ENDBRANCH  15  16
ENDBRANCH  12  15
ENDBRANCH  10  11
BRANCH   6  23
ATOM     23  C   UNL     1      -2.954   6.098 130.714  0.00  0.00    +0.000 C 
ATOM     24  OXT UNL     1      -2.592   6.702 131.717  0.00  0.00    +0.000 OA
BRANCH  23  25
ATOM     25  O   UNL     1      -2.124   6.076 129.651  0.00  0.00    +0.000 OA
ATOM     26  H   UNL     1      -1.177   5.896 129.756  0.00  0.00    +0.000 HD
ENDBRANCH  23  25
ENDBRANCH   6  23
TORSDOF 6
ENDMDL
MODEL 6
REMARK VINA RESULT:      -7.0      2.720      6.985
REMARK  Name = Phenoxymethylpenicillin
REMARK  8 active torsions:
REMARK  status: ('A' for Active; 'I' for Inactive)
REMARK    1  A    between atoms: C_4  and  C_5
REMARK    2  A    between atoms: C_4  and  C_6
REMARK    3  A    between atoms: CA_7  and  C_23
REMARK    4  A    between atoms: CA_11  and  N_12
REMARK    5  A    between atoms: C_13  and  C_15
REMARK    6  A    between atoms: C_15  and  O_16
REMARK    7  A    between atoms: O_16  and  C_17
REMARK    8  A    between atoms: C_23  and  O_24
REMARK                            x       y       z     vdW  Elec       q    Type
REMARK                         _______ _______ _______ _____ _____    ______ ____
ROOT
ATOM      1  C   UNL     1      -8.758   2.607 124.981  0.00  0.00    +0.000 C 
ATOM      2  S   UNL     1      -8.031   1.472 126.217  0.00  0.00    +0.000 S 
ATOM      3  C   UNL     1      -6.932   2.844 126.869  0.00  0.00    +0.000 C 
ATOM      4  C   UNL     1      -5.745   2.161 127.555  0.00  0.00    +0.000 C 
ATOM      5  C   UNL     1      -7.809   3.633 127.859  0.00  0.00    +0.000 C 
ATOM      6  CA  UNL     1      -6.512   3.613 125.594  0.00  0.00    +0.000 C 
ATOM      7  N   UNL     1      -7.665   3.547 124.671  0.00  0.00    +0.000 N 
ATOM      8  C   UNL     1      -7.520   3.077 123.387  0.00  0.00    +0.000 C 
ATOM      9  O   UNL     1      -6.610   3.218 122.595  0.00  0.00    +0.000 OA
ATOM     10  CA  UNL     1      -8.781   2.170 123.507  0.00  0.00    +0.000 C 
ENDROOT
BRANCH  10  11
ATOM     11  N   UNL     1      -8.608   0.710 123.202  0.00  0.00    +0.000 N 
ATOM     12  C   UNL     1      -9.702  -0.030 122.782  0.00  0.00    +0.000 C 
ATOM     13  O   UNL     1     -10.814   0.485 122.696  0.00  0.00    +0.000 OA
ATOM     14  H   UNL     1      -7.695   0.276 123.296  0.00  0.00    +0.000 HD
BRANCH  12  15
ATOM     15  C   UNL     1      -9.435  -1.514 122.496  0.00  0.00    +0.000 C 
BRANCH  15  16
ATOM     16  O   UNL     1      -9.763  -2.290 123.651  0.00  0.00    +0.000 OA
BRANCH  16  17
ATOM     17  C   UNL     1      -8.791  -2.394 124.605  0.00  0.00    +0.000 A 
ATOM     18  C   UNL     1      -9.205  -2.291 125.936  0.00  0.00    +0.000 A 
ATOM     19  C   UNL     1      -8.264  -2.287 126.971  0.00  0.00    +0.000 A 
ATOM     20  C   UNL     1      -6.911  -2.450 126.680  0.00  0.00    +0.000 A 
ATOM     21  C   UNL     1      -6.495  -2.539 125.354  0.00  0.00    +0.000 A 
ATOM     22  C   UNL     1      -7.430  -2.490 124.318  0.00  0.00    +0.000 A 
ENDBRANCH  16  17
ENDBRANCH  15  16
ENDBRANCH  12  15
ENDBRANCH  10  11
BRANCH   6  23
ATOM     23  C   UNL     1      -5.977   5.061 125.722  0.00  0.00    +0.000 C 
ATOM     24  OXT UNL     1      -5.141   5.384 126.559  0.00  0.00    +0.000 OA
BRANCH  23  25
ATOM     25  O   UNL     1      -6.462   6.019 124.907  0.00  0.00    +0.000 OA
ATOM     26  H   UNL     1      -5.874   6.650 124.466  0.00  0.00    +0.000 HD
ENDBRANCH  23  25
ENDBRANCH   6  23
TORSDOF 6
ENDMDL
MODEL 7
REMARK VINA RESULT:      -6.9      9.256     12.265
REMARK  Name = Phenoxymethylpenicillin
REMARK  8 active torsions:
REMARK  status: ('A' for Active; 'I' for Inactive)
REMARK    1  A    between atoms: C_4  and  C_5
REMARK    2  A    between atoms: C_4  and  C_6
REMARK    3  A    between atoms: CA_7  and  C_23
REMARK    4  A    between atoms: CA_11  and  N_12
REMARK    5  A    between atoms: C_13  and  C_15
REMARK    6  A    between atoms: C_15  and  O_16
REMARK    7  A    between atoms: O_16  and  C_17
REMARK    8  A    between atoms: C_23  and  O_24
REMARK                            x       y       z     vdW  Elec       q    Type
REMARK                         _______ _______ _______ _____ _____    ______ ____
ROOT
ATOM      1  C   UNL     1     -11.138   5.431 130.473  0.00  0.00    +0.000 C 
ATOM      2  S   UNL     1     -12.168   6.820 131.064  0.00  0.00    +0.000 S 
ATOM      3  C   UNL     1     -12.219   7.550 129.338  0.00  0.00    +0.000 C 
ATOM      4  C   UNL     1     -12.523   9.042 129.505  0.00  0.00    +0.000 C 
ATOM      5  C   UNL     1     -13.349   6.798 128.610  0.00  0.00    +0.000 C 
ATOM      6  CA  UNL     1     -10.794   7.298 128.792  0.00  0.00    +0.000 C 
ATOM      7  N   UNL     1     -10.350   6.011 129.370  0.00  0.00    +0.000 N 
ATOM      8  C   UNL     1      -9.165   5.915 130.060  0.00  0.00    +0.000 C 
ATOM      9  O   UNL     1      -8.093   6.451 129.863  0.00  0.00    +0.000 OA
ATOM     10  CA  UNL     1      -9.830   5.116 131.220  0.00  0.00    +0.000 C 
ENDROOT
BRANCH  10  11
ATOM     11  N   UNL     1      -9.666   5.659 132.611  0.00  0.00    +0.000 N 
ATOM     12  C   UNL     1      -8.518   5.357 133.326  0.00  0.00    +0.000 C 
ATOM     13  O   UNL     1      -7.656   4.621 132.852  0.00  0.00    +0.000 OA
ATOM     14  H   UNL     1     -10.388   6.247 133.015  0.00  0.00    +0.000 HD
BRANCH  12  15
ATOM     15  C   UNL     1      -8.435   5.951 134.739  0.00  0.00    +0.000 C 
BRANCH  15  16
ATOM     16  O   UNL     1      -7.139   5.700 135.288  0.00  0.00    +0.000 OA
BRANCH  16  17
ATOM     17  C   UNL     1      -7.014   5.858 136.640  0.00  0.00    +0.000 A 
ATOM     18  C   UNL     1      -5.912   5.246 137.243  0.00  0.00    +0.000 A 
ATOM     19  C   UNL     1      -5.761   5.273 138.633  0.00  0.00    +0.000 A 
ATOM     20  C   UNL     1      -6.680   5.966 139.418  0.00  0.00    +0.000 A 
ATOM     21  C   UNL     1      -7.788   6.564 138.821  0.00  0.00    +0.000 A 
ATOM     22  C   UNL     1      -7.965   6.492 137.437  0.00  0.00    +0.000 A 
ENDBRANCH  16  17
ENDBRANCH  15  16
ENDBRANCH  12  15
ENDBRANCH  10  11
BRANCH   6  23
ATOM     23  C   UNL     1     -10.547   7.342 127.263  0.00  0.00    +0.000 C 
ATOM     24  OXT UNL     1     -10.946   8.261 126.557  0.00  0.00    +0.000 OA
BRANCH  23  25
ATOM     25  O   UNL     1      -9.896   6.321 126.670  0.00  0.00    +0.000 OA
ATOM     26  H   UNL     1      -8.928   6.297 126.631  0.00  0.00    +0.000 HD
ENDBRANCH  23  25
ENDBRANCH   6  23
TORSDOF 6
ENDMDL
MODEL 8
REMARK VINA RESULT:      -6.9      2.895      7.932
REMARK  Name = Phenoxymethylpenicillin
REMARK  8 active torsions:
REMARK  status: ('A' for Active; 'I' for Inactive)
REMARK    1  A    between atoms: C_4  and  C_5
REMARK    2  A    between atoms: C_4  and  C_6
REMARK    3  A    between atoms: CA_7  and  C_23
REMARK    4  A    between atoms: CA_11  and  N_12
REMARK    5  A    between atoms: C_13  and  C_15
REMARK    6  A    between atoms: C_15  and  O_16
REMARK    7  A    between atoms: O_16  and  C_17
REMARK    8  A    between atoms: C_23  and  O_24
REMARK                            x       y       z     vdW  Elec       q    Type
REMARK                         _______ _______ _______ _____ _____    ______ ____
ROOT
ATOM      1  C   UNL     1      -8.809   1.580 125.321  0.00  0.00    +0.000 C 
ATOM      2  S   UNL     1      -7.840   2.124 126.772  0.00  0.00    +0.000 S 
ATOM      3  C   UNL     1      -6.976   3.429 125.739  0.00  0.00    +0.000 C 
ATOM      4  C   UNL     1      -5.659   3.747 126.452  0.00  0.00    +0.000 C 
ATOM      5  C   UNL     1      -7.937   4.632 125.716  0.00  0.00    +0.000 C 
ATOM      6  CA  UNL     1      -6.754   2.729 124.378  0.00  0.00    +0.000 C 
ATOM      7  N   UNL     1      -7.916   1.836 124.176  0.00  0.00    +0.000 N 
ATOM      8  C   UNL     1      -7.743   0.498 123.910  0.00  0.00    +0.000 C 
ATOM      9  O   UNL     1      -6.907  -0.070 123.236  0.00  0.00    +0.000 OA
ATOM     10  CA  UNL     1      -8.816   0.084 124.961  0.00  0.00    +0.000 C 
ENDROOT
BRANCH  10  11
ATOM     11  N   UNL     1      -8.399  -0.896 126.019  0.00  0.00    +0.000 N 
ATOM     12  C   UNL     1      -8.974  -2.157 126.042  0.00  0.00    +0.000 C 
ATOM     13  O   UNL     1      -9.847  -2.465 125.233  0.00  0.00    +0.000 OA
ATOM     14  H   UNL     1      -7.696  -0.636 126.703  0.00  0.00    +0.000 HD
BRANCH  12  15
ATOM     15  C   UNL     1      -8.491  -3.093 127.158  0.00  0.00    +0.000 C 
BRANCH  15  16
ATOM     16  O   UNL     1      -7.867  -2.325 128.189  0.00  0.00    +0.000 OA
BRANCH  16  17
ATOM     17  C   UNL     1      -6.715  -2.840 128.715  0.00  0.00    +0.000 A 
ATOM     18  C   UNL     1      -6.855  -3.709 129.800  0.00  0.00    +0.000 A 
ATOM     19  C   UNL     1      -5.726  -4.204 130.460  0.00  0.00    +0.000 A 
ATOM     20  C   UNL     1      -4.453  -3.880 129.996  0.00  0.00    +0.000 A 
ATOM     21  C   UNL     1      -4.311  -3.003 128.923  0.00  0.00    +0.000 A 
ATOM     22  C   UNL     1      -5.439  -2.468 128.297  0.00  0.00    +0.000 A 
ENDBRANCH  16  17
ENDBRANCH  15  16
ENDBRANCH  12  15
ENDBRANCH  10  11
BRANCH   6  23
ATOM     23  C   UNL     1      -6.481   3.588 123.118  0.00  0.00    +0.000 C 
ATOM     24  OXT UNL     1      -5.450   4.234 122.971  0.00  0.00    +0.000 OA
BRANCH  23  25
ATOM     25  O   UNL     1      -7.419   3.660 122.152  0.00  0.00    +0.000 OA
ATOM     26  H   UNL     1      -7.780   4.512 121.863  0.00  0.00    +0.000 HD
ENDBRANCH  23  25
ENDBRANCH   6  23
TORSDOF 6
ENDMDL
MODEL 9
REMARK VINA RESULT:      -6.8      3.825      7.966
REMARK  Name = Phenoxymethylpenicillin
REMARK  8 active torsions:
REMARK  status: ('A' for Active; 'I' for Inactive)
REMARK    1  A    between atoms: C_4  and  C_5
REMARK    2  A    between atoms: C_4  and  C_6
REMARK    3  A    between atoms: CA_7  and  C_23
REMARK    4  A    between atoms: CA_11  and  N_12
REMARK    5  A    between atoms: C_13  and  C_15
REMARK    6  A    between atoms: C_15  and  O_16
REMARK    7  A    between atoms: O_16  and  C_17
REMARK    8  A    between atoms: C_23  and  O_24
REMARK                            x       y       z     vdW  Elec       q    Type
REMARK                         _______ _______ _______ _____ _____    ______ ____
ROOT
ATOM      1  C   UNL     1      -6.962  -0.437 125.657  0.00  0.00    +0.000 C 
ATOM      2  S   UNL     1      -7.393  -2.205 125.483  0.00  0.00    +0.000 S 
ATOM      3  C   UNL     1      -8.350  -1.843 123.912  0.00  0.00    +0.000 C 
ATOM      4  C   UNL     1      -9.354  -2.986 123.740  0.00  0.00    +0.000 C 
ATOM      5  C   UNL     1      -7.295  -1.814 122.790  0.00  0.00    +0.000 C 
ATOM      6  CA  UNL     1      -9.042  -0.492 124.208  0.00  0.00    +0.000 C 
ATOM      7  N   UNL     1      -8.109   0.273 125.064  0.00  0.00    +0.000 N 
ATOM      8  C   UNL     1      -8.516   0.789 126.271  0.00  0.00    +0.000 C 
ATOM      9  O   UNL     1      -9.575   1.285 126.599  0.00  0.00    +0.000 OA
ATOM     10  CA  UNL     1      -7.245   0.259 127.000  0.00  0.00    +0.000 C 
ENDROOT
BRANCH  10  11
ATOM     11  N   UNL     1      -7.456  -0.604 128.209  0.00  0.00    +0.000 N 
ATOM     12  C   UNL     1      -7.702  -0.006 129.436  0.00  0.00    +0.000 C 
ATOM     13  O   UNL     1      -7.708   1.217 129.550  0.00  0.00    +0.000 OA
ATOM     14  H   UNL     1      -7.427  -1.615 128.124  0.00  0.00    +0.000 HD
BRANCH  12  15
ATOM     15  C   UNL     1      -7.903  -0.964 130.618  0.00  0.00    +0.000 C 
BRANCH  15  16
ATOM     16  O   UNL     1      -7.819  -2.315 130.159  0.00  0.00    +0.000 OA
BRANCH  16  17
ATOM     17  C   UNL     1      -7.015  -3.151 130.882  0.00  0.00    +0.000 A 
ATOM     18  C   UNL     1      -6.277  -4.092 130.159  0.00  0.00    +0.000 A 
ATOM     19  C   UNL     1      -5.506  -5.049 130.825  0.00  0.00    +0.000 A 
ATOM     20  C   UNL     1      -5.421  -5.028 132.216  0.00  0.00    +0.000 A 
ATOM     21  C   UNL     1      -6.166  -4.099 132.939  0.00  0.00    +0.000 A 
ATOM     22  C   UNL     1      -6.977  -3.176 132.275  0.00  0.00    +0.000 A 
ENDBRANCH  16  17
ENDBRANCH  15  16
ENDBRANCH  12  15
ENDBRANCH  10  11
BRANCH   6  23
ATOM     23  C   UNL     1      -9.559   0.371 123.030  0.00  0.00    +0.000 C 
ATOM     24  OXT UNL     1     -10.481   0.014 122.306  0.00  0.00    +0.000 OA
BRANCH  23  25
ATOM     25  O   UNL     1      -8.961   1.550 122.762  0.00  0.00    +0.000 OA
ATOM     26  H   UNL     1      -8.253   1.617 122.105  0.00  0.00    +0.000 HD
ENDBRANCH  23  25
ENDBRANCH   6  23
TORSDOF 6
ENDMDL
