MODEL 1
REMARK VINA RESULT:      -7.9      0.000      0.000
REMARK  Name = Phenylbutazone
REMARK  6 active torsions:
REMARK  status: ('A' for Active; 'I' for Inactive)
REMARK    1  A    between atoms: C_1  and  C_2
REMARK    2  A    between atoms: C_2  and  C_3
REMARK    3  A    between atoms: C_3  and  C_4
REMARK    4  A    between atoms: C_4  and  C_5
REMARK    5  A    between atoms: N_8  and  C_18
REMARK    6  A    between atoms: N_9  and  C_12
REMARK                            x       y       z     vdW  Elec       q    Type
REMARK                         _______ _______ _______ _____ _____    ______ ____
ROOT
ATOM      1  C   UNL     1      -6.644   3.799 125.041  0.00  0.00    +0.000 C 
ATOM      2  C   UNL     1      -6.042   3.934 123.647  0.00  0.00    +0.000 C 
ATOM      3  O   UNL     1      -5.210   4.771 123.314  0.00  0.00    +0.000 OA
ATOM      4  N   UNL     1      -6.734   3.008 122.824  0.00  0.00    +0.000 N 
ATOM      5  N   UNL     1      -7.474   2.128 123.643  0.00  0.00    +0.000 N 
ATOM      6  C   UNL     1      -7.253   2.418 124.996  0.00  0.00    +0.000 C 
ATOM      7  O   UNL     1      -7.500   1.703 125.963  0.00  0.00    +0.000 OA
ENDROOT
BRANCH   5   8
ATOM      8  C   UNL     1      -7.784   0.806 123.228  0.00  0.00    +0.000 A 
ATOM      9  C   UNL     1      -9.098   0.332 123.101  0.00  0.00    +0.000 A 
ATOM     10  C   UNL     1      -9.337  -1.036 122.911  0.00  0.00    +0.000 A 
ATOM     11  C   UNL     1      -8.270  -1.927 122.796  0.00  0.00    +0.000 A 
ATOM     12  C   UNL     1      -6.964  -1.450 122.868  0.00  0.00    +0.000 A 
ATOM     13  C   UNL     1      -6.723  -0.089 123.062  0.00  0.00    +0.000 A 
ENDBRANCH   5   8
BRANCH   4  14
ATOM     14  C   UNL     1      -7.238   3.434 121.547  0.00  0.00    +0.000 A 
ATOM     15  C   UNL     1      -8.622   3.525 121.362  0.00  0.00    +0.000 A 
ATOM     16  C   UNL     1      -9.169   3.926 120.133  0.00  0.00    +0.000 A 
ATOM     17  C   UNL     1      -8.338   4.282 119.074  0.00  0.00    +0.000 A 
ATOM     18  C   UNL     1      -6.957   4.202 119.235  0.00  0.00    +0.000 A 
ATOM     19  C   UNL     1      -6.407   3.789 120.465  0.00  0.00    +0.000 A 
ENDBRANCH   4  14
BRANCH   1  20
ATOM     20  C   UNL     1      -5.723   4.100 126.231  0.00  0.00    +0.000 C 
BRANCH  20  21
ATOM     21  C   UNL     1      -4.450   3.234 126.220  0.00  0.00    +0.000 C 
BRANCH  21  23
ATOM     22  C   UNL     1      -1.974   3.126 126.586  0.00  0.00    +0.000 C 
ATOM     23  C   UNL     1      -3.219   3.991 126.714  0.00  0.00    +0.000 C 
ENDBRANCH  21  23
ENDBRANCH  20  21
ENDBRANCH   1  20
TORSDOF 5
ENDMDL
MODEL 2
REMARK VINA RESULT:      -7.8      0.623      4.461
REMARK  Name = Phenylbutazone
REMARK  6 active torsions:
REMARK  status: ('A' for Active; 'I' for Inactive)
REMARK    1  A    between atoms: C_1  and  C_2
REMARK    2  A    between atoms: C_2  and  C_3
REMARK    3  A    between atoms: C_3  and  C_4
REMARK    4  A    between atoms: C_4  and  C_5
REMARK    5  A    between atoms: N_8  and  C_18
REMARK    6  A    between atoms: N_9  and  C_12
REMARK                            x       y       z     vdW  Elec       q    Type
REMARK                         _______ _______ _______ _____ _____    ______ ____
ROOT
ATOM      1  C   UNL     1      -5.975   2.916 125.428  0.00  0.00    +0.000 C 
ATOM      2  C   UNL     1      -7.239   2.067 125.354  0.00  0.00    +0.000 C 
ATOM      3  O   UNL     1      -7.841   1.609 126.320  0.00  0.00    +0.000 OA
ATOM      4  N   UNL     1      -7.470   1.817 123.977  0.00  0.00    +0.000 N 
ATOM      5  N   UNL     1      -6.651   2.674 123.210  0.00  0.00    +0.000 N 
ATOM      6  C   UNL     1      -5.914   3.523 124.046  0.00  0.00    +0.000 C 
ATOM      7  O   UNL     1      -5.330   4.556 123.734  0.00  0.00    +0.000 OA
ENDROOT
BRANCH   5   8
ATOM      8  C   UNL     1      -7.024   3.090 121.904  0.00  0.00    +0.000 A 
ATOM      9  C   UNL     1      -6.091   3.408 120.907  0.00  0.00    +0.000 A 
ATOM     10  C   UNL     1      -6.511   4.027 119.721  0.00  0.00    +0.000 A 
ATOM     11  C   UNL     1      -7.864   4.284 119.504  0.00  0.00    +0.000 A 
ATOM     12  C   UNL     1      -8.799   3.921 120.471  0.00  0.00    +0.000 A 
ATOM     13  C   UNL     1      -8.382   3.309 121.655  0.00  0.00    +0.000 A 
ENDBRANCH   5   8
BRANCH   4  14
ATOM     14  C   UNL     1      -7.760   0.479 123.538  0.00  0.00    +0.000 A 
ATOM     15  C   UNL     1      -6.697  -0.400 123.298  0.00  0.00    +0.000 A 
ATOM     16  C   UNL     1      -6.921  -1.713 122.859  0.00  0.00    +0.000 A 
ATOM     17  C   UNL     1      -8.220  -2.188 122.689  0.00  0.00    +0.000 A 
ATOM     18  C   UNL     1      -9.293  -1.333 122.925  0.00  0.00    +0.000 A 
ATOM     19  C   UNL     1      -9.068  -0.010 123.354  0.00  0.00    +0.000 A 
ENDBRANCH   4  14
BRANCH   1  20
ATOM     20  C   UNL     1      -5.857   3.890 126.606  0.00  0.00    +0.000 C 
BRANCH  20  21
ATOM     21  C   UNL     1      -4.405   4.053 127.090  0.00  0.00    +0.000 C 
BRANCH  21  23
ATOM     22  C   UNL     1      -2.130   3.190 126.493  0.00  0.00    +0.000 C 
ATOM     23  C   UNL     1      -3.559   2.805 126.846  0.00  0.00    +0.000 C 
ENDBRANCH  21  23
ENDBRANCH  20  21
ENDBRANCH   1  20
TORSDOF 5
ENDMDL
MODEL 3
REMARK VINA RESULT:      -7.4      6.841      9.933
REMARK  Name = Phenylbutazone
REMARK  6 active torsions:
REMARK  status: ('A' for Active; 'I' for Inactive)
REMARK    1  A    between atoms: C_1  and  C_2
REMARK    2  A    between atoms: C_2  and  C_3
REMARK    3  A    between atoms: C_3  and  C_4
REMARK    4  A    between atoms: C_4  and  C_5
REMARK    5  A    between atoms: N_8  and  C_18
REMARK    6  A    between atoms: N_9  and  C_12
REMARK                            x       y       z     vdW  Elec       q    Type
REMARK                         _______ _______ _______ _____ _____    ______ ____
ROOT
ATOM      1  C   UNL     1     -10.392   7.195 130.047  0.00  0.00    +0.000 C 
ATOM      2  C   UNL     1     -10.507   6.427 131.359  0.00  0.00    +0.000 C 
ATOM      3  O   UNL     1     -11.246   6.724 132.291  0.00  0.00    +0.000 OA
ATOM      4  N   UNL     1      -9.508   5.420 131.318  0.00  0.00    +0.000 N 
ATOM      5  N   UNL     1      -9.012   5.317 130.001  0.00  0.00    +0.000 N 
ATOM      6  C   UNL     1      -9.692   6.201 129.152  0.00  0.00    +0.000 C 
ATOM      7  O   UNL     1      -9.723   6.184 127.925  0.00  0.00    +0.000 OA
ENDROOT
BRANCH   5   8
ATOM      8  C   UNL     1      -8.475   4.102 129.498  0.00  0.00    +0.000 A 
ATOM      9  C   UNL     1      -9.124   2.866 129.630  0.00  0.00    +0.000 A 
ATOM     10  C   UNL     1      -8.447   1.679 129.320  0.00  0.00    +0.000 A 
ATOM     11  C   UNL     1      -7.141   1.721 128.832  0.00  0.00    +0.000 A 
ATOM     12  C   UNL     1      -6.513   2.951 128.650  0.00  0.00    +0.000 A 
ATOM     13  C   UNL     1      -7.184   4.135 128.962  0.00  0.00    +0.000 A 
ENDBRANCH   5   8
BRANCH   4  14
ATOM     14  C   UNL     1      -8.644   5.231 132.452  0.00  0.00    +0.000 A 
ATOM     15  C   UNL     1      -9.030   4.334 133.455  0.00  0.00    +0.000 A 
ATOM     16  C   UNL     1      -8.231   4.118 134.587  0.00  0.00    +0.000 A 
ATOM     17  C   UNL     1      -7.007   4.769 134.722  0.00  0.00    +0.000 A 
ATOM     18  C   UNL     1      -6.601   5.664 133.736  0.00  0.00    +0.000 A 
ATOM     19  C   UNL     1      -7.408   5.890 132.603  0.00  0.00    +0.000 A 
ENDBRANCH   4  14
BRANCH   1  20
ATOM     20  C   UNL     1     -11.677   7.825 129.494  0.00  0.00    +0.000 C 
BRANCH  20  21
ATOM     21  C   UNL     1     -12.822   6.804 129.367  0.00  0.00    +0.000 C 
BRANCH  21  23
ATOM     22  C   UNL     1     -12.859   7.066 126.875  0.00  0.00    +0.000 C 
ATOM     23  C   UNL     1     -13.701   7.055 128.143  0.00  0.00    +0.000 C 
ENDBRANCH  21  23
ENDBRANCH  20  21
ENDBRANCH   1  20
TORSDOF 5
ENDMDL
MODEL 4
REMARK VINA RESULT:      -7.2      4.570      7.188
REMARK  Name = Phenylbutazone
REMARK  6 active torsions:
REMARK  status: ('A' for Active; 'I' for Inactive)
REMARK    1  A    between atoms: C_1  and  C_2
REMARK    2  A    between atoms: C_2  and  C_3
REMARK    3  A    between atoms: C_3  and  C_4
REMARK    4  A    between atoms: C_4  and  C_5
REMARK    5  A    between atoms: N_8  and  C_18
REMARK    6  A    between atoms: N_9  and  C_12
REMARK                            x       y       z     vdW  Elec       q    Type
REMARK                         _______ _______ _______ _____ _____    ______ ____
ROOT
ATOM      1  C   UNL     1      -5.247   0.835 127.090  0.00  0.00    +0.000 C 
ATOM      2  C   UNL     1      -5.763   0.203 128.379  0.00  0.00    +0.000 C 
ATOM      3  O   UNL     1      -5.683   0.706 129.495  0.00  0.00    +0.000 OA
ATOM      4  N   UNL     1      -6.205  -1.100 128.033  0.00  0.00    +0.000 N 
ATOM      5  N   UNL     1      -6.285  -1.201 126.627  0.00  0.00    +0.000 N 
ATOM      6  C   UNL     1      -5.951   0.022 126.029  0.00  0.00    +0.000 C 
ATOM      7  O   UNL     1      -6.177   0.377 124.877  0.00  0.00    +0.000 OA
ENDROOT
BRANCH   5   8
ATOM      8  C   UNL     1      -7.192  -2.091 125.993  0.00  0.00    +0.000 A 
ATOM      9  C   UNL     1      -6.829  -2.919 124.922  0.00  0.00    +0.000 A 
ATOM     10  C   UNL     1      -7.813  -3.602 124.195  0.00  0.00    +0.000 A 
ATOM     11  C   UNL     1      -9.155  -3.502 124.563  0.00  0.00    +0.000 A 
ATOM     12  C   UNL     1      -9.512  -2.722 125.660  0.00  0.00    +0.000 A 
ATOM     13  C   UNL     1      -8.534  -2.037 126.383  0.00  0.00    +0.000 A 
ENDBRANCH   5   8
BRANCH   4  14
ATOM     14  C   UNL     1      -5.800  -2.222 128.835  0.00  0.00    +0.000 A 
ATOM     15  C   UNL     1      -4.453  -2.602 128.837  0.00  0.00    +0.000 A 
ATOM     16  C   UNL     1      -4.006  -3.696 129.594  0.00  0.00    +0.000 A 
ATOM     17  C   UNL     1      -4.892  -4.409 130.397  0.00  0.00    +0.000 A 
ATOM     18  C   UNL     1      -6.236  -4.047 130.413  0.00  0.00    +0.000 A 
ATOM     19  C   UNL     1      -6.690  -2.956 129.645  0.00  0.00    +0.000 A 
ENDBRANCH   4  14
BRANCH   1  20
ATOM     20  C   UNL     1      -5.360   2.360 126.968  0.00  0.00    +0.000 C 
BRANCH  20  21
ATOM     21  C   UNL     1      -4.098   2.994 126.355  0.00  0.00    +0.000 C 
BRANCH  21  23
ATOM     22  C   UNL     1      -1.602   2.991 126.567  0.00  0.00    +0.000 C 
ATOM     23  C   UNL     1      -2.920   3.020 127.327  0.00  0.00    +0.000 C 
ENDBRANCH  21  23
ENDBRANCH  20  21
ENDBRANCH   1  20
TORSDOF 5
ENDMDL
MODEL 5
REMARK VINA RESULT:      -7.2      7.755     10.085
REMARK  Name = Phenylbutazone
REMARK  6 active torsions:
REMARK  status: ('A' for Active; 'I' for Inactive)
REMARK    1  A    between atoms: C_1  and  C_2
REMARK    2  A    between atoms: C_2  and  C_3
REMARK    3  A    between atoms: C_3  and  C_4
REMARK    4  A    between atoms: C_4  and  C_5
REMARK    5  A    between atoms: N_8  and  C_18
REMARK    6  A    between atoms: N_9  and  C_12
REMARK                            x       y       z     vdW  Elec       q    Type
REMARK                         _______ _______ _______ _____ _____    ______ ____
ROOT
ATOM      1  C   UNL     1     -10.943   5.991 131.143  0.00  0.00    +0.000 C 
ATOM      2  C   UNL     1     -10.070   5.893 132.389  0.00  0.00    +0.000 C 
ATOM      3  O   UNL     1     -10.080   6.687 133.325  0.00  0.00    +0.000 OA
ATOM      4  N   UNL     1      -9.182   4.809 132.168  0.00  0.00    +0.000 N 
ATOM      5  N   UNL     1      -9.633   4.065 131.056  0.00  0.00    +0.000 N 
ATOM      6  C   UNL     1     -10.828   4.603 130.560  0.00  0.00    +0.000 C 
ATOM      7  O   UNL     1     -11.631   4.067 129.802  0.00  0.00    +0.000 OA
ENDROOT
BRANCH   5   8
ATOM      8  C   UNL     1      -9.354   2.679 130.923  0.00  0.00    +0.000 A 
ATOM      9  C   UNL     1      -9.721   1.729 131.886  0.00  0.00    +0.000 A 
ATOM     10  C   UNL     1      -9.222   0.421 131.811  0.00  0.00    +0.000 A 
ATOM     11  C   UNL     1      -8.400   0.042 130.750  0.00  0.00    +0.000 A 
ATOM     12  C   UNL     1      -8.078   0.970 129.762  0.00  0.00    +0.000 A 
ATOM     13  C   UNL     1      -8.569   2.275 129.838  0.00  0.00    +0.000 A 
ENDBRANCH   5   8
BRANCH   4  14
ATOM     14  C   UNL     1      -7.778   4.977 132.428  0.00  0.00    +0.000 A 
ATOM     15  C   UNL     1      -7.074   5.966 131.732  0.00  0.00    +0.000 A 
ATOM     16  C   UNL     1      -5.702   6.166 131.939  0.00  0.00    +0.000 A 
ATOM     17  C   UNL     1      -5.011   5.406 132.880  0.00  0.00    +0.000 A 
ATOM     18  C   UNL     1      -5.691   4.418 133.587  0.00  0.00    +0.000 A 
ATOM     19  C   UNL     1      -7.068   4.208 133.371  0.00  0.00    +0.000 A 
ENDBRANCH   4  14
BRANCH   1  20
ATOM     20  C   UNL     1     -12.365   6.537 131.330  0.00  0.00    +0.000 C 
BRANCH  20  21
ATOM     21  C   UNL     1     -12.623   7.800 130.489  0.00  0.00    +0.000 C 
BRANCH  21  23
ATOM     22  C   UNL     1     -13.544   6.961 128.315  0.00  0.00    +0.000 C 
ATOM     23  C   UNL     1     -12.340   7.587 129.004  0.00  0.00    +0.000 C 
ENDBRANCH  21  23
ENDBRANCH  20  21
ENDBRANCH   1  20
TORSDOF 5
ENDMDL
MODEL 6
REMARK VINA RESULT:      -7.1      6.874      9.856
REMARK  Name = Phenylbutazone
REMARK  6 active torsions:
REMARK  status: ('A' for Active; 'I' for Inactive)
REMARK    1  A    between atoms: C_1  and  C_2
REMARK    2  A    between atoms: C_2  and  C_3
REMARK    3  A    between atoms: C_3  and  C_4
REMARK    4  A    between atoms: C_4  and  C_5
REMARK    5  A    between atoms: N_8  and  C_18
REMARK    6  A    between atoms: N_9  and  C_12
REMARK                            x       y       z     vdW  Elec       q    Type
REMARK                         _______ _______ _______ _____ _____    ______ ____
ROOT
ATOM      1  C   UNL     1     -11.033   6.274 130.117  0.00  0.00    +0.000 C 
ATOM      2  C   UNL     1      -9.788   5.974 129.289  0.00  0.00    +0.000 C 
ATOM      3  O   UNL     1      -9.657   6.219 128.095  0.00  0.00    +0.000 OA
ATOM      4  N   UNL     1      -8.912   5.250 130.138  0.00  0.00    +0.000 N 
ATOM      5  N   UNL     1      -9.374   5.347 131.468  0.00  0.00    +0.000 N 
ATOM      6  C   UNL     1     -10.514   6.160 131.531  0.00  0.00    +0.000 C 
ATOM      7  O   UNL     1     -11.005   6.682 132.527  0.00  0.00    +0.000 OA
ENDROOT
BRANCH   5   8
ATOM      8  C   UNL     1      -8.488   5.258 132.574  0.00  0.00    +0.000 A 
ATOM      9  C   UNL     1      -7.290   5.981 132.655  0.00  0.00    +0.000 A 
ATOM     10  C   UNL     1      -6.353   5.683 133.654  0.00  0.00    +0.000 A 
ATOM     11  C   UNL     1      -6.629   4.701 134.605  0.00  0.00    +0.000 A 
ATOM     12  C   UNL     1      -7.842   4.019 134.559  0.00  0.00    +0.000 A 
ATOM     13  C   UNL     1      -8.774   4.310 133.561  0.00  0.00    +0.000 A 
ENDBRANCH   5   8
BRANCH   4  14
ATOM     14  C   UNL     1      -8.290   4.047 129.655  0.00  0.00    +0.000 A 
ATOM     15  C   UNL     1      -9.022   2.854 129.670  0.00  0.00    +0.000 A 
ATOM     16  C   UNL     1      -8.462   1.649 129.220  0.00  0.00    +0.000 A 
ATOM     17  C   UNL     1      -7.167   1.621 128.707  0.00  0.00    +0.000 A 
ATOM     18  C   UNL     1      -6.421   2.795 128.679  0.00  0.00    +0.000 A 
ATOM     19  C   UNL     1      -6.979   4.004 129.142  0.00  0.00    +0.000 A 
ENDBRANCH   4  14
BRANCH   1  20
ATOM     20  C   UNL     1     -11.806   7.554 129.775  0.00  0.00    +0.000 C 
BRANCH  20  21
ATOM     21  C   UNL     1     -13.225   7.262 129.255  0.00  0.00    +0.000 C 
BRANCH  21  23
ATOM     22  C   UNL     1     -12.780   7.060 126.798  0.00  0.00    +0.000 C 
ATOM     23  C   UNL     1     -13.484   7.868 127.878  0.00  0.00    +0.000 C 
ENDBRANCH  21  23
ENDBRANCH  20  21
ENDBRANCH   1  20
TORSDOF 5
ENDMDL
MODEL 7
REMARK VINA RESULT:      -6.9      5.415      7.156
REMARK  Name = Phenylbutazone
REMARK  6 active torsions:
REMARK  status: ('A' for Active; 'I' for Inactive)
REMARK    1  A    between atoms: C_1  and  C_2
REMARK    2  A    between atoms: C_2  and  C_3
REMARK    3  A    between atoms: C_3  and  C_4
REMARK    4  A    between atoms: C_4  and  C_5
REMARK    5  A    between atoms: N_8  and  C_18
REMARK    6  A    between atoms: N_9  and  C_12
REMARK                            x       y       z     vdW  Elec       q    Type
REMARK                         _______ _______ _______ _____ _____    ______ ____
ROOT
ATOM      1  C   UNL     1      -8.122   0.755 128.599  0.00  0.00    +0.000 C 
ATOM      2  C   UNL     1      -7.550   0.410 127.229  0.00  0.00    +0.000 C 
ATOM      3  O   UNL     1      -7.532   1.162 126.260  0.00  0.00    +0.000 OA
ATOM      4  N   UNL     1      -7.190  -0.962 127.282  0.00  0.00    +0.000 N 
ATOM      5  N   UNL     1      -7.210  -1.391 128.626  0.00  0.00    +0.000 N 
ATOM      6  C   UNL     1      -7.528  -0.322 129.476  0.00  0.00    +0.000 C 
ATOM      7  O   UNL     1      -7.364  -0.259 130.690  0.00  0.00    +0.000 OA
ENDROOT
BRANCH   5   8
ATOM      8  C   UNL     1      -6.388  -2.456 129.082  0.00  0.00    +0.000 A 
ATOM      9  C   UNL     1      -6.883  -3.547 129.809  0.00  0.00    +0.000 A 
ATOM     10  C   UNL     1      -5.997  -4.444 130.423  0.00  0.00    +0.000 A 
ATOM     11  C   UNL     1      -4.620  -4.285 130.273  0.00  0.00    +0.000 A 
ATOM     12  C   UNL     1      -4.127  -3.233 129.506  0.00  0.00    +0.000 A 
ATOM     13  C   UNL     1      -5.007  -2.335 128.897  0.00  0.00    +0.000 A 
ENDBRANCH   5   8
BRANCH   4  14
ATOM     14  C   UNL     1      -7.590  -1.841 126.217  0.00  0.00    +0.000 A 
ATOM     15  C   UNL     1      -8.926  -2.251 126.143  0.00  0.00    +0.000 A 
ATOM     16  C   UNL     1      -9.369  -3.116 125.131  0.00  0.00    +0.000 A 
ATOM     17  C   UNL     1      -8.489  -3.559 124.146  0.00  0.00    +0.000 A 
ATOM     18  C   UNL     1      -7.156  -3.162 124.197  0.00  0.00    +0.000 A 
ATOM     19  C   UNL     1      -6.707  -2.302 125.220  0.00  0.00    +0.000 A 
ENDBRANCH   4  14
BRANCH   1  20
ATOM     20  C   UNL     1      -7.949   2.200 129.083  0.00  0.00    +0.000 C 
BRANCH  20  21
ATOM     21  C   UNL     1      -9.228   2.758 129.733  0.00  0.00    +0.000 C 
BRANCH  21  23
ATOM     22  C   UNL     1      -9.926   1.786 131.935  0.00  0.00    +0.000 C 
ATOM     23  C   UNL     1      -9.112   2.876 131.252  0.00  0.00    +0.000 C 
ENDBRANCH  21  23
ENDBRANCH  20  21
ENDBRANCH   1  20
TORSDOF 5
ENDMDL
MODEL 8
REMARK VINA RESULT:      -6.9      4.655      6.462
REMARK  Name = Phenylbutazone
REMARK  6 active torsions:
REMARK  status: ('A' for Active; 'I' for Inactive)
REMARK    1  A    between atoms: C_1  and  C_2
REMARK    2  A    between atoms: C_2  and  C_3
REMARK    3  A    between atoms: C_3  and  C_4
REMARK    4  A    between atoms: C_4  and  C_5
REMARK    5  A    between atoms: N_8  and  C_18
REMARK    6  A    between atoms: N_9  and  C_12
REMARK                            x       y       z     vdW  Elec       q    Type
REMARK                         _______ _______ _______ _____ _____    ______ ____
ROOT
ATOM      1  C   UNL     1      -6.366   1.187 127.662  0.00  0.00    +0.000 C 
ATOM      2  C   UNL     1      -6.190   0.351 126.399  0.00  0.00    +0.000 C 
ATOM      3  O   UNL     1      -6.043   0.801 125.267  0.00  0.00    +0.000 OA
ATOM      4  N   UNL     1      -6.371  -1.001 126.789  0.00  0.00    +0.000 N 
ATOM      5  N   UNL     1      -6.339  -1.082 128.198  0.00  0.00    +0.000 N 
ATOM      6  C   UNL     1      -6.092   0.181 128.754  0.00  0.00    +0.000 C 
ATOM      7  O   UNL     1      -5.728   0.435 129.898  0.00  0.00    +0.000 OA
ENDROOT
BRANCH   5   8
ATOM      8  C   UNL     1      -5.919  -2.261 128.868  0.00  0.00    +0.000 A 
ATOM      9  C   UNL     1      -6.751  -2.988 129.732  0.00  0.00    +0.000 A 
ATOM     10  C   UNL     1      -6.216  -4.004 130.535  0.00  0.00    +0.000 A 
ATOM     11  C   UNL     1      -4.864  -4.333 130.445  0.00  0.00    +0.000 A 
ATOM     12  C   UNL     1      -4.046  -3.648 129.549  0.00  0.00    +0.000 A 
ATOM     13  C   UNL     1      -4.576  -2.632 128.751  0.00  0.00    +0.000 A 
ENDBRANCH   5   8
BRANCH   4  14
ATOM     14  C   UNL     1      -7.236  -1.852 126.017  0.00  0.00    +0.000 A 
ATOM     15  C   UNL     1      -6.684  -2.618 124.983  0.00  0.00    +0.000 A 
ATOM     16  C   UNL     1      -7.483  -3.458 124.193  0.00  0.00    +0.000 A 
ATOM     17  C   UNL     1      -8.847  -3.578 124.446  0.00  0.00    +0.000 A 
ATOM     18  C   UNL     1      -9.417  -2.828 125.471  0.00  0.00    +0.000 A 
ATOM     19  C   UNL     1      -8.618  -1.976 126.259  0.00  0.00    +0.000 A 
ENDBRANCH   4  14
BRANCH   1  20
ATOM     20  C   UNL     1      -5.587   2.506 127.738  0.00  0.00    +0.000 C 
BRANCH  20  21
ATOM     21  C   UNL     1      -4.065   2.295 127.631  0.00  0.00    +0.000 C 
BRANCH  21  23
ATOM     22  C   UNL     1      -1.903   3.097 126.652  0.00  0.00    +0.000 C 
ATOM     23  C   UNL     1      -3.420   3.189 126.574  0.00  0.00    +0.000 C 
ENDBRANCH  21  23
ENDBRANCH  20  21
ENDBRANCH   1  20
TORSDOF 5
ENDMDL
MODEL 9
REMARK VINA RESULT:      -6.9      4.514      6.879
REMARK  Name = Phenylbutazone
REMARK  6 active torsions:
REMARK  status: ('A' for Active; 'I' for Inactive)
REMARK    1  A    between atoms: C_1  and  C_2
REMARK    2  A    between atoms: C_2  and  C_3
REMARK    3  A    between atoms: C_3  and  C_4
REMARK    4  A    between atoms: C_4  and  C_5
REMARK    5  A    between atoms: N_8  and  C_18
REMARK    6  A    between atoms: N_9  and  C_12
REMARK                            x       y       z     vdW  Elec       q    Type
REMARK                         _______ _______ _______ _____ _____    ______ ____
ROOT
ATOM      1  C   UNL     1      -7.180  -2.374 128.497  0.00  0.00    +0.000 C 
ATOM      2  C   UNL     1      -7.775  -2.574 127.108  0.00  0.00    +0.000 C 
ATOM      3  O   UNL     1      -8.469  -3.526 126.766  0.00  0.00    +0.000 OA
ATOM      4  N   UNL     1      -7.251  -1.534 126.297  0.00  0.00    +0.000 N 
ATOM      5  N   UNL     1      -6.646  -0.565 127.127  0.00  0.00    +0.000 N 
ATOM      6  C   UNL     1      -6.797  -0.914 128.476  0.00  0.00    +0.000 C 
ATOM      7  O   UNL     1      -6.651  -0.189 129.455  0.00  0.00    +0.000 OA
ENDROOT
BRANCH   5   8
ATOM      8  C   UNL     1      -6.555   0.798 126.738  0.00  0.00    +0.000 A 
ATOM      9  C   UNL     1      -7.678   1.610 126.526  0.00  0.00    +0.000 A 
ATOM     10  C   UNL     1      -7.534   2.869 125.927  0.00  0.00    +0.000 A 
ATOM     11  C   UNL     1      -6.268   3.343 125.585  0.00  0.00    +0.000 A 
ATOM     12  C   UNL     1      -5.145   2.561 125.844  0.00  0.00    +0.000 A 
ATOM     13  C   UNL     1      -5.287   1.304 126.436  0.00  0.00    +0.000 A 
ENDBRANCH   5   8
BRANCH   4  14
ATOM     14  C   UNL     1      -6.706  -1.849 125.005  0.00  0.00    +0.000 A 
ATOM     15  C   UNL     1      -5.555  -2.642 124.930  0.00  0.00    +0.000 A 
ATOM     16  C   UNL     1      -4.976  -2.971 123.696  0.00  0.00    +0.000 A 
ATOM     17  C   UNL     1      -5.560  -2.545 122.505  0.00  0.00    +0.000 A 
ATOM     18  C   UNL     1      -6.707  -1.758 122.555  0.00  0.00    +0.000 A 
ATOM     19  C   UNL     1      -7.284  -1.416 123.795  0.00  0.00    +0.000 A 
ENDBRANCH   4  14
BRANCH   1  20
ATOM     20  C   UNL     1      -8.023  -2.841 129.690  0.00  0.00    +0.000 C 
BRANCH  20  21
ATOM     21  C   UNL     1      -7.158  -3.386 130.842  0.00  0.00    +0.000 C 
BRANCH  21  23
ATOM     22  C   UNL     1      -5.475  -5.188 131.287  0.00  0.00    +0.000 C 
ATOM     23  C   UNL     1      -5.878  -4.057 130.351  0.00  0.00    +0.000 C 
ENDBRANCH  21  23
ENDBRANCH  20  21
ENDBRANCH   1  20
TORSDOF 5
ENDMDL
