MODEL 1
REMARK VINA RESULT:      -7.6      0.000      0.000
REMARK  Name = Phenyltoloxamine
REMARK  8 active torsions:
REMARK  status: ('A' for Active; 'I' for Inactive)
REMARK    1  A    between atoms: C_1  and  N_2
REMARK    2  A    between atoms: N_2  and  C_3
REMARK    3  A    between atoms: N_2  and  C_4
REMARK    4  A    between atoms: C_4  and  C_5
REMARK    5  A    between atoms: C_5  and  O_6
REMARK    6  A    between atoms: O_6  and  C_7
REMARK    7  A    between atoms: C_12  and  C_13
REMARK    8  A    between atoms: C_13  and  C_14
REMARK                            x       y       z     vdW  Elec       q    Type
REMARK                         _______ _______ _______ _____ _____    ______ ____
ROOT
ATOM      1  C   UNL     1      -7.578  -1.604 126.889  0.00  0.00    +0.000 A 
ATOM      2  C   UNL     1      -7.404  -1.691 128.274  0.00  0.00    +0.000 A 
ATOM      3  C   UNL     1      -7.968  -2.724 129.045  0.00  0.00    +0.000 A 
ATOM      4  C   UNL     1      -8.778  -3.692 128.479  0.00  0.00    +0.000 A 
ATOM      5  C   UNL     1      -8.962  -3.672 127.126  0.00  0.00    +0.000 A 
ATOM      6  C   UNL     1      -8.358  -2.682 126.310  0.00  0.00    +0.000 A 
ENDROOT
BRANCH   1   7
ATOM      7  O   UNL     1      -6.812  -0.500 126.385  0.00  0.00    +0.000 OA
BRANCH   7   8
ATOM      8  C   UNL     1      -7.519   0.741 126.047  0.00  0.00    +0.000 C 
BRANCH   8   9
ATOM      9  C   UNL     1      -7.748   1.416 124.441  0.00  0.00    +0.000 C 
BRANCH   9  11
ATOM     10  C   UNL     1      -8.903   2.639 122.480  0.00  0.00    +0.000 C 
ATOM     11  N   UNL     1      -9.252   1.668 123.520  0.00  0.00    +0.000 NA
ATOM     12  C   UNL     1     -10.185   0.619 122.509  0.00  0.00    +0.000 C 
ENDBRANCH   9  11
ENDBRANCH   8   9
ENDBRANCH   7   8
ENDBRANCH   1   7
BRANCH   6  13
ATOM     13  C   UNL     1      -8.712  -3.132 124.917  0.00  0.00    +0.000 C 
BRANCH  13  14
ATOM     14  C   UNL     1      -7.607  -3.113 124.015  0.00  0.00    +0.000 A 
ATOM     15  C   UNL     1      -7.714  -2.074 123.120  0.00  0.00    +0.000 A 
ATOM     16  C   UNL     1      -6.507  -1.779 122.803  0.00  0.00    +0.000 A 
ATOM     17  C   UNL     1      -5.274  -2.641 123.003  0.00  0.00    +0.000 A 
ATOM     18  C   UNL     1      -5.205  -3.689 123.858  0.00  0.00    +0.000 A 
ATOM     19  C   UNL     1      -6.401  -3.866 124.412  0.00  0.00    +0.000 A 
ENDBRANCH  13  14
ENDBRANCH   6  13
TORSDOF 6
ENDMDL
MODEL 2
REMARK VINA RESULT:      -7.1      1.864      2.612
REMARK  Name = Phenyltoloxamine
REMARK  8 active torsions:
REMARK  status: ('A' for Active; 'I' for Inactive)
REMARK    1  A    between atoms: C_1  and  N_2
REMARK    2  A    between atoms: N_2  and  C_3
REMARK    3  A    between atoms: N_2  and  C_4
REMARK    4  A    between atoms: C_4  and  C_5
REMARK    5  A    between atoms: C_5  and  O_6
REMARK    6  A    between atoms: O_6  and  C_7
REMARK    7  A    between atoms: C_12  and  C_13
REMARK    8  A    between atoms: C_13  and  C_14
REMARK                            x       y       z     vdW  Elec       q    Type
REMARK                         _______ _______ _______ _____ _____    ______ ____
ROOT
ATOM      1  C   UNL     1      -8.222  -1.415 126.787  0.00  0.00    +0.000 A 
ATOM      2  C   UNL     1      -7.864  -1.174 128.118  0.00  0.00    +0.000 A 
ATOM      3  C   UNL     1      -7.834  -2.190 129.089  0.00  0.00    +0.000 A 
ATOM      4  C   UNL     1      -8.211  -3.488 128.795  0.00  0.00    +0.000 A 
ATOM      5  C   UNL     1      -8.545  -3.787 127.504  0.00  0.00    +0.000 A 
ATOM      6  C   UNL     1      -8.526  -2.800 126.486  0.00  0.00    +0.000 A 
ENDROOT
BRANCH   1   7
ATOM      7  O   UNL     1      -8.070  -0.205 126.031  0.00  0.00    +0.000 OA
BRANCH   7   8
ATOM      8  C   UNL     1      -6.717   0.206 125.639  0.00  0.00    +0.000 C 
BRANCH   8   9
ATOM      9  C   UNL     1      -6.236   1.772 125.003  0.00  0.00    +0.000 C 
BRANCH   9  11
ATOM     10  C   UNL     1      -5.808   3.759 126.597  0.00  0.00    +0.000 C 
ATOM     11  N   UNL     1      -5.055   2.942 125.642  0.00  0.00    +0.000 NA
ATOM     12  C   UNL     1      -3.639   2.748 126.617  0.00  0.00    +0.000 C 
ENDBRANCH   9  11
ENDBRANCH   8   9
ENDBRANCH   7   8
ENDBRANCH   1   7
BRANCH   6  13
ATOM     13  C   UNL     1      -8.816  -3.597 125.241  0.00  0.00    +0.000 C 
BRANCH  13  14
ATOM     14  C   UNL     1      -7.975  -3.257 124.139  0.00  0.00    +0.000 A 
ATOM     15  C   UNL     1      -8.659  -2.519 123.202  0.00  0.00    +0.000 A 
ATOM     16  C   UNL     1      -7.768  -1.795 122.630  0.00  0.00    +0.000 A 
ATOM     17  C   UNL     1      -6.266  -2.012 122.651  0.00  0.00    +0.000 A 
ATOM     18  C   UNL     1      -5.618  -2.780 123.558  0.00  0.00    +0.000 A 
ATOM     19  C   UNL     1      -6.517  -3.356 124.350  0.00  0.00    +0.000 A 
ENDBRANCH  13  14
ENDBRANCH   6  13
TORSDOF 6
ENDMDL
MODEL 3
REMARK VINA RESULT:      -6.9      1.703      4.641
REMARK  Name = Phenyltoloxamine
REMARK  8 active torsions:
REMARK  status: ('A' for Active; 'I' for Inactive)
REMARK    1  A    between atoms: C_1  and  N_2
REMARK    2  A    between atoms: N_2  and  C_3
REMARK    3  A    between atoms: N_2  and  C_4
REMARK    4  A    between atoms: C_4  and  C_5
REMARK    5  A    between atoms: C_5  and  O_6
REMARK    6  A    between atoms: O_6  and  C_7
REMARK    7  A    between atoms: C_12  and  C_13
REMARK    8  A    between atoms: C_13  and  C_14
REMARK                            x       y       z     vdW  Elec       q    Type
REMARK                         _______ _______ _______ _____ _____    ______ ____
ROOT
ATOM      1  C   UNL     1      -8.257  -1.406 124.096  0.00  0.00    +0.000 A 
ATOM      2  C   UNL     1      -7.419  -0.925 123.084  0.00  0.00    +0.000 A 
ATOM      3  C   UNL     1      -6.239  -1.587 122.700  0.00  0.00    +0.000 A 
ATOM      4  C   UNL     1      -5.808  -2.734 123.342  0.00  0.00    +0.000 A 
ATOM      5  C   UNL     1      -6.601  -3.264 124.320  0.00  0.00    +0.000 A 
ATOM      6  C   UNL     1      -7.827  -2.657 124.690  0.00  0.00    +0.000 A 
ENDROOT
BRANCH   1   7
ATOM      7  O   UNL     1      -9.415  -0.564 124.190  0.00  0.00    +0.000 OA
BRANCH   7   8
ATOM      8  C   UNL     1      -9.480   0.410 125.286  0.00  0.00    +0.000 C 
BRANCH   8   9
ATOM      9  C   UNL     1      -8.370   1.740 125.579  0.00  0.00    +0.000 C 
BRANCH   9  11
ATOM     10  C   UNL     1      -6.634   1.836 127.490  0.00  0.00    +0.000 C 
ATOM     11  N   UNL     1      -6.647   1.700 126.031  0.00  0.00    +0.000 NA
ATOM     12  C   UNL     1      -5.449   0.456 125.936  0.00  0.00    +0.000 C 
ENDBRANCH   9  11
ENDBRANCH   8   9
ENDBRANCH   7   8
ENDBRANCH   1   7
BRANCH   6  13
ATOM     13  C   UNL     1      -8.405  -3.641 125.674  0.00  0.00    +0.000 C 
BRANCH  13  14
ATOM     14  C   UNL     1      -8.522  -3.120 126.998  0.00  0.00    +0.000 A 
ATOM     15  C   UNL     1      -9.160  -4.012 127.828  0.00  0.00    +0.000 A 
ATOM     16  C   UNL     1      -8.700  -3.766 129.000  0.00  0.00    +0.000 A 
ATOM     17  C   UNL     1      -7.976  -2.511 129.451  0.00  0.00    +0.000 A 
ATOM     18  C   UNL     1      -7.394  -1.622 128.612  0.00  0.00    +0.000 A 
ATOM     19  C   UNL     1      -7.635  -1.996 127.359  0.00  0.00    +0.000 A 
ENDBRANCH  13  14
ENDBRANCH   6  13
TORSDOF 6
ENDMDL
MODEL 4
REMARK VINA RESULT:      -6.8      2.098      5.204
REMARK  Name = Phenyltoloxamine
REMARK  8 active torsions:
REMARK  status: ('A' for Active; 'I' for Inactive)
REMARK    1  A    between atoms: C_1  and  N_2
REMARK    2  A    between atoms: N_2  and  C_3
REMARK    3  A    between atoms: N_2  and  C_4
REMARK    4  A    between atoms: C_4  and  C_5
REMARK    5  A    between atoms: C_5  and  O_6
REMARK    6  A    between atoms: O_6  and  C_7
REMARK    7  A    between atoms: C_12  and  C_13
REMARK    8  A    between atoms: C_13  and  C_14
REMARK                            x       y       z     vdW  Elec       q    Type
REMARK                         _______ _______ _______ _____ _____    ______ ____
ROOT
ATOM      1  C   UNL     1      -7.477  -3.501 124.304  0.00  0.00    +0.000 A 
ATOM      2  C   UNL     1      -6.103  -3.760 124.341  0.00  0.00    +0.000 A 
ATOM      3  C   UNL     1      -5.191  -3.132 123.473  0.00  0.00    +0.000 A 
ATOM      4  C   UNL     1      -5.610  -2.255 122.490  0.00  0.00    +0.000 A 
ATOM      5  C   UNL     1      -6.939  -1.944 122.425  0.00  0.00    +0.000 A 
ATOM      6  C   UNL     1      -7.878  -2.510 123.324  0.00  0.00    +0.000 A 
ENDROOT
BRANCH   1   7
ATOM      7  O   UNL     1      -8.122  -4.222 125.364  0.00  0.00    +0.000 OA
BRANCH   7   8
ATOM      8  C   UNL     1      -8.645  -3.463 126.506  0.00  0.00    +0.000 C 
BRANCH   8   9
ATOM      9  C   UNL     1      -7.707  -2.677 127.765  0.00  0.00    +0.000 C 
BRANCH   9  11
ATOM     10  C   UNL     1      -5.206  -2.143 128.133  0.00  0.00    +0.000 C 
ATOM     11  N   UNL     1      -6.404  -1.470 127.624  0.00  0.00    +0.000 NA
ATOM     12  C   UNL     1      -5.649  -0.731 126.254  0.00  0.00    +0.000 C 
ENDBRANCH   9  11
ENDBRANCH   8   9
ENDBRANCH   7   8
ENDBRANCH   1   7
BRANCH   6  13
ATOM     13  C   UNL     1      -9.153  -1.787 122.977  0.00  0.00    +0.000 C 
BRANCH  13  14
ATOM     14  C   UNL     1      -9.179  -0.433 123.426  0.00  0.00    +0.000 A 
ATOM     15  C   UNL     1      -9.840   0.375 122.531  0.00  0.00    +0.000 A 
ATOM     16  C   UNL     1     -10.322   1.332 123.235  0.00  0.00    +0.000 A 
ATOM     17  C   UNL     1      -9.899   1.737 124.636  0.00  0.00    +0.000 A 
ATOM     18  C   UNL     1      -9.208   0.940 125.485  0.00  0.00    +0.000 A 
ATOM     19  C   UNL     1      -8.909  -0.194 124.858  0.00  0.00    +0.000 A 
ENDBRANCH  13  14
ENDBRANCH   6  13
TORSDOF 6
ENDMDL
MODEL 5
REMARK VINA RESULT:      -6.6      2.306      3.182
REMARK  Name = Phenyltoloxamine
REMARK  8 active torsions:
REMARK  status: ('A' for Active; 'I' for Inactive)
REMARK    1  A    between atoms: C_1  and  N_2
REMARK    2  A    between atoms: N_2  and  C_3
REMARK    3  A    between atoms: N_2  and  C_4
REMARK    4  A    between atoms: C_4  and  C_5
REMARK    5  A    between atoms: C_5  and  O_6
REMARK    6  A    between atoms: O_6  and  C_7
REMARK    7  A    between atoms: C_12  and  C_13
REMARK    8  A    between atoms: C_13  and  C_14
REMARK                            x       y       z     vdW  Elec       q    Type
REMARK                         _______ _______ _______ _____ _____    ______ ____
ROOT
ATOM      1  C   UNL     1      -7.914  -1.468 126.883  0.00  0.00    +0.000 A 
ATOM      2  C   UNL     1      -7.674  -1.638 128.251  0.00  0.00    +0.000 A 
ATOM      3  C   UNL     1      -8.067  -2.794 128.950  0.00  0.00    +0.000 A 
ATOM      4  C   UNL     1      -8.765  -3.814 128.332  0.00  0.00    +0.000 A 
ATOM      5  C   UNL     1      -9.005  -3.714 126.990  0.00  0.00    +0.000 A 
ATOM      6  C   UNL     1      -8.569  -2.592 126.242  0.00  0.00    +0.000 A 
ENDROOT
BRANCH   1   7
ATOM      7  O   UNL     1      -7.320  -0.236 126.449  0.00  0.00    +0.000 OA
BRANCH   7   8
ATOM      8  C   UNL     1      -6.942   0.751 127.468  0.00  0.00    +0.000 C 
BRANCH   8   9
ATOM      9  C   UNL     1      -7.935   2.064 128.080  0.00  0.00    +0.000 C 
BRANCH   9  11
ATOM     10  C   UNL     1      -8.745   4.081 129.477  0.00  0.00    +0.000 C 
ATOM     11  N   UNL     1      -7.476   3.460 129.087  0.00  0.00    +0.000 NA
ATOM     12  C   UNL     1      -6.713   3.575 130.635  0.00  0.00    +0.000 C 
ENDBRANCH   9  11
ENDBRANCH   8   9
ENDBRANCH   7   8
ENDBRANCH   1   7
BRANCH   6  13
ATOM     13  C   UNL     1      -8.917  -2.976 124.828  0.00  0.00    +0.000 C 
BRANCH  13  14
ATOM     14  C   UNL     1      -7.792  -2.995 123.949  0.00  0.00    +0.000 A 
ATOM     15  C   UNL     1      -7.898  -2.022 122.984  0.00  0.00    +0.000 A 
ATOM     16  C   UNL     1      -6.690  -1.723 122.675  0.00  0.00    +0.000 A 
ATOM     17  C   UNL     1      -5.445  -2.545 122.959  0.00  0.00    +0.000 A 
ATOM     18  C   UNL     1      -5.376  -3.531 123.884  0.00  0.00    +0.000 A 
ATOM     19  C   UNL     1      -6.581  -3.695 124.423  0.00  0.00    +0.000 A 
ENDBRANCH  13  14
ENDBRANCH   6  13
TORSDOF 6
ENDMDL
MODEL 6
REMARK VINA RESULT:      -6.5      2.359      3.255
REMARK  Name = Phenyltoloxamine
REMARK  8 active torsions:
REMARK  status: ('A' for Active; 'I' for Inactive)
REMARK    1  A    between atoms: C_1  and  N_2
REMARK    2  A    between atoms: N_2  and  C_3
REMARK    3  A    between atoms: N_2  and  C_4
REMARK    4  A    between atoms: C_4  and  C_5
REMARK    5  A    between atoms: C_5  and  O_6
REMARK    6  A    between atoms: O_6  and  C_7
REMARK    7  A    between atoms: C_12  and  C_13
REMARK    8  A    between atoms: C_13  and  C_14
REMARK                            x       y       z     vdW  Elec       q    Type
REMARK                         _______ _______ _______ _____ _____    ______ ____
ROOT
ATOM      1  C   UNL     1      -6.484  -2.429 127.033  0.00  0.00    +0.000 A 
ATOM      2  C   UNL     1      -5.536  -2.336 128.058  0.00  0.00    +0.000 A 
ATOM      3  C   UNL     1      -5.838  -2.642 129.398  0.00  0.00    +0.000 A 
ATOM      4  C   UNL     1      -7.113  -3.006 129.790  0.00  0.00    +0.000 A 
ATOM      5  C   UNL     1      -8.073  -3.139 128.827  0.00  0.00    +0.000 A 
ATOM      6  C   UNL     1      -7.789  -2.899 127.459  0.00  0.00    +0.000 A 
ENDROOT
BRANCH   1   7
ATOM      7  O   UNL     1      -5.852  -2.139 125.778  0.00  0.00    +0.000 OA
BRANCH   7   8
ATOM      8  C   UNL     1      -5.265  -0.808 125.586  0.00  0.00    +0.000 C 
BRANCH   8   9
ATOM      9  C   UNL     1      -5.942   0.726 126.109  0.00  0.00    +0.000 C 
BRANCH   9  11
ATOM     10  C   UNL     1      -7.034   2.582 127.536  0.00  0.00    +0.000 C 
ATOM     11  N   UNL     1      -6.565   1.204 127.708  0.00  0.00    +0.000 NA
ATOM     12  C   UNL     1      -7.911   0.651 128.643  0.00  0.00    +0.000 C 
ENDBRANCH   9  11
ENDBRANCH   8   9
ENDBRANCH   7   8
ENDBRANCH   1   7
BRANCH   6  13
ATOM     13  C   UNL     1      -9.069  -3.299 126.775  0.00  0.00    +0.000 C 
BRANCH  13  14
ATOM     14  C   UNL     1      -9.287  -2.626 125.536  0.00  0.00    +0.000 A 
ATOM     15  C   UNL     1      -9.328  -1.263 125.711  0.00  0.00    +0.000 A 
ATOM     16  C   UNL     1      -8.927  -0.769 124.597  0.00  0.00    +0.000 A 
ATOM     17  C   UNL     1      -8.856  -1.480 123.258  0.00  0.00    +0.000 A 
ATOM     18  C   UNL     1      -8.863  -2.825 123.106  0.00  0.00    +0.000 A 
ATOM     19  C   UNL     1      -9.020  -3.389 124.300  0.00  0.00    +0.000 A 
ENDBRANCH  13  14
ENDBRANCH   6  13
TORSDOF 6
ENDMDL
MODEL 7
REMARK VINA RESULT:      -6.5      2.491      5.009
REMARK  Name = Phenyltoloxamine
REMARK  8 active torsions:
REMARK  status: ('A' for Active; 'I' for Inactive)
REMARK    1  A    between atoms: C_1  and  N_2
REMARK    2  A    between atoms: N_2  and  C_3
REMARK    3  A    between atoms: N_2  and  C_4
REMARK    4  A    between atoms: C_4  and  C_5
REMARK    5  A    between atoms: C_5  and  O_6
REMARK    6  A    between atoms: O_6  and  C_7
REMARK    7  A    between atoms: C_12  and  C_13
REMARK    8  A    between atoms: C_13  and  C_14
REMARK                            x       y       z     vdW  Elec       q    Type
REMARK                         _______ _______ _______ _____ _____    ______ ____
ROOT
ATOM      1  C   UNL     1      -7.837  -1.528 127.481  0.00  0.00    +0.000 A 
ATOM      2  C   UNL     1      -8.575  -2.070 126.423  0.00  0.00    +0.000 A 
ATOM      3  C   UNL     1      -9.251  -3.300 126.523  0.00  0.00    +0.000 A 
ATOM      4  C   UNL     1      -9.182  -4.075 127.667  0.00  0.00    +0.000 A 
ATOM      5  C   UNL     1      -8.498  -3.583 128.742  0.00  0.00    +0.000 A 
ATOM      6  C   UNL     1      -7.855  -2.320 128.696  0.00  0.00    +0.000 A 
ENDROOT
BRANCH   1   7
ATOM      7  O   UNL     1      -7.345  -0.235 127.099  0.00  0.00    +0.000 OA
BRANCH   7   8
ATOM      8  C   UNL     1      -5.951  -0.124 126.654  0.00  0.00    +0.000 C 
BRANCH   8   9
ATOM      9  C   UNL     1      -5.259  -0.800 125.187  0.00  0.00    +0.000 C 
BRANCH   9  11
ATOM     10  C   UNL     1      -6.418  -1.937 123.178  0.00  0.00    +0.000 C 
ATOM     11  N   UNL     1      -5.636  -2.329 124.354  0.00  0.00    +0.000 NA
ATOM     12  C   UNL     1      -4.638  -3.491 123.552  0.00  0.00    +0.000 C 
ENDBRANCH   9  11
ENDBRANCH   8   9
ENDBRANCH   7   8
ENDBRANCH   1   7
BRANCH   6  13
ATOM     13  C   UNL     1      -7.370  -2.139 130.110  0.00  0.00    +0.000 C 
BRANCH  13  14
ATOM     14  C   UNL     1      -6.072  -2.686 130.341  0.00  0.00    +0.000 A 
ATOM     15  C   UNL     1      -6.135  -3.785 131.164  0.00  0.00    +0.000 A 
ATOM     16  C   UNL     1      -5.129  -4.509 130.834  0.00  0.00    +0.000 A 
ATOM     17  C   UNL     1      -3.906  -4.068 130.051  0.00  0.00    +0.000 A 
ATOM     18  C   UNL     1      -3.852  -2.956 129.281  0.00  0.00    +0.000 A 
ATOM     19  C   UNL     1      -5.002  -2.299 129.399  0.00  0.00    +0.000 A 
ENDBRANCH  13  14
ENDBRANCH   6  13
TORSDOF 6
ENDMDL
MODEL 8
REMARK VINA RESULT:      -6.4      8.391     10.257
REMARK  Name = Phenyltoloxamine
REMARK  8 active torsions:
REMARK  status: ('A' for Active; 'I' for Inactive)
REMARK    1  A    between atoms: C_1  and  N_2
REMARK    2  A    between atoms: N_2  and  C_3
REMARK    3  A    between atoms: N_2  and  C_4
REMARK    4  A    between atoms: C_4  and  C_5
REMARK    5  A    between atoms: C_5  and  O_6
REMARK    6  A    between atoms: O_6  and  C_7
REMARK    7  A    between atoms: C_12  and  C_13
REMARK    8  A    between atoms: C_13  and  C_14
REMARK                            x       y       z     vdW  Elec       q    Type
REMARK                         _______ _______ _______ _____ _____    ______ ____
ROOT
ATOM      1  C   UNL     1      -8.318   6.276 132.262  0.00  0.00    +0.000 A 
ATOM      2  C   UNL     1      -7.651   6.927 131.218  0.00  0.00    +0.000 A 
ATOM      3  C   UNL     1      -6.257   6.853 131.048  0.00  0.00    +0.000 A 
ATOM      4  C   UNL     1      -5.452   6.169 131.940  0.00  0.00    +0.000 A 
ATOM      5  C   UNL     1      -6.051   5.492 132.964  0.00  0.00    +0.000 A 
ATOM      6  C   UNL     1      -7.459   5.494 133.130  0.00  0.00    +0.000 A 
ENDROOT
BRANCH   1   7
ATOM      7  O   UNL     1      -9.732   6.470 132.113  0.00  0.00    +0.000 OA
BRANCH   7   8
ATOM      8  C   UNL     1     -10.386   5.932 130.914  0.00  0.00    +0.000 C 
BRANCH   8   9
ATOM      9  C   UNL     1     -11.053   6.854 129.576  0.00  0.00    +0.000 C 
BRANCH   9  11
ATOM     10  C   UNL     1     -12.692   8.846 129.439  0.00  0.00    +0.000 C 
ATOM     11  N   UNL     1     -12.728   7.389 129.290  0.00  0.00    +0.000 NA
ATOM     12  C   UNL     1     -13.733   7.357 127.883  0.00  0.00    +0.000 C 
ENDBRANCH   9  11
ENDBRANCH   8   9
ENDBRANCH   7   8
ENDBRANCH   1   7
BRANCH   6  13
ATOM     13  C   UNL     1      -7.664   4.526 134.266  0.00  0.00    +0.000 C 
BRANCH  13  14
ATOM     14  C   UNL     1      -8.080   3.229 133.841  0.00  0.00    +0.000 A 
ATOM     15  C   UNL     1      -9.388   3.241 133.415  0.00  0.00    +0.000 A 
ATOM     16  C   UNL     1      -9.468   2.297 132.550  0.00  0.00    +0.000 A 
ATOM     17  C   UNL     1      -8.495   1.148 132.362  0.00  0.00    +0.000 A 
ATOM     18  C   UNL     1      -7.224   1.139 132.830  0.00  0.00    +0.000 A 
ATOM     19  C   UNL     1      -7.019   2.250 133.530  0.00  0.00    +0.000 A 
ENDBRANCH  13  14
ENDBRANCH   6  13
TORSDOF 6
ENDMDL
MODEL 9
REMARK VINA RESULT:      -6.3      6.521      9.275
REMARK  Name = Phenyltoloxamine
REMARK  8 active torsions:
REMARK  status: ('A' for Active; 'I' for Inactive)
REMARK    1  A    between atoms: C_1  and  N_2
REMARK    2  A    between atoms: N_2  and  C_3
REMARK    3  A    between atoms: N_2  and  C_4
REMARK    4  A    between atoms: C_4  and  C_5
REMARK    5  A    between atoms: C_5  and  O_6
REMARK    6  A    between atoms: O_6  and  C_7
REMARK    7  A    between atoms: C_12  and  C_13
REMARK    8  A    between atoms: C_13  and  C_14
REMARK                            x       y       z     vdW  Elec       q    Type
REMARK                         _______ _______ _______ _____ _____    ______ ____
ROOT
ATOM      1  C   UNL     1      -8.727   4.587 129.174  0.00  0.00    +0.000 A 
ATOM      2  C   UNL     1      -8.558   3.198 129.145  0.00  0.00    +0.000 A 
ATOM      3  C   UNL     1      -8.773   2.386 130.274  0.00  0.00    +0.000 A 
ATOM      4  C   UNL     1      -9.116   2.924 131.501  0.00  0.00    +0.000 A 
ATOM      5  C   UNL     1      -9.320   4.273 131.581  0.00  0.00    +0.000 A 
ATOM      6  C   UNL     1      -9.173   5.114 130.449  0.00  0.00    +0.000 A 
ENDROOT
BRANCH   1   7
ATOM      7  O   UNL     1      -8.521   5.114 127.855  0.00  0.00    +0.000 OA
BRANCH   7   8
ATOM      8  C   UNL     1      -7.734   4.321 126.903  0.00  0.00    +0.000 C 
BRANCH   8   9
ATOM      9  C   UNL     1      -8.256   3.750 125.327  0.00  0.00    +0.000 C 
BRANCH   9  11
ATOM     10  C   UNL     1      -8.298   1.606 123.887  0.00  0.00    +0.000 C 
ATOM     11  N   UNL     1      -9.136   2.263 124.893  0.00  0.00    +0.000 NA
ATOM     12  C   UNL     1      -9.522   0.837 125.793  0.00  0.00    +0.000 C 
ENDBRANCH   9  11
ENDBRANCH   8   9
ENDBRANCH   7   8
ENDBRANCH   1   7
BRANCH   6  13
ATOM     13  C   UNL     1      -9.626   6.454 130.966  0.00  0.00    +0.000 C 
BRANCH  13  14
ATOM     14  C   UNL     1     -10.805   6.942 130.326  0.00  0.00    +0.000 A 
ATOM     15  C   UNL     1     -11.896   6.851 131.158  0.00  0.00    +0.000 A 
ATOM     16  C   UNL     1     -12.682   7.793 130.783  0.00  0.00    +0.000 A 
ATOM     17  C   UNL     1     -12.645   8.541 129.463  0.00  0.00    +0.000 A 
ATOM     18  C   UNL     1     -11.573   8.579 128.637  0.00  0.00    +0.000 A 
ATOM     19  C   UNL     1     -10.619   7.801 129.139  0.00  0.00    +0.000 A 
ENDBRANCH  13  14
ENDBRANCH   6  13
TORSDOF 6
ENDMDL
