MODEL 1
REMARK VINA RESULT:      -6.8      0.000      0.000
REMARK  Name = Phenylethyl resorcinol
REMARK  5 active torsions:
REMARK  status: ('A' for Active; 'I' for Inactive)
REMARK    1  A    between atoms: C_1  and  C_2
REMARK    2  A    between atoms: C_2  and  C_3
REMARK    3  A    between atoms: C_2  and  C_9
REMARK    4  A    between atoms: C_12  and  O_13
REMARK    5  A    between atoms: C_15  and  O_16
REMARK                            x       y       z     vdW  Elec       q    Type
REMARK                         _______ _______ _______ _____ _____    ______ ____
ROOT
ATOM      1  C   UNL     1      -8.521   1.084 123.279  0.00  0.00    +0.000 A 
ATOM      2  C   UNL     1      -7.319   0.593 123.806  0.00  0.00    +0.000 A 
ATOM      3  C   UNL     1      -6.929  -0.728 123.662  0.00  0.00    +0.000 A 
ATOM      4  C   UNL     1      -7.872  -1.644 123.257  0.00  0.00    +0.000 A 
ATOM      5  C   UNL     1      -9.161  -1.238 122.921  0.00  0.00    +0.000 A 
ATOM      6  C   UNL     1      -9.470   0.128 122.907  0.00  0.00    +0.000 A 
ENDROOT
BRANCH   1   8
ATOM      7  C   UNL     1      -8.379   3.309 124.445  0.00  0.00    +0.000 C 
ATOM      8  C   UNL     1      -8.788   2.585 123.157  0.00  0.00    +0.000 C 
BRANCH   8   9
ATOM      9  C   UNL     1      -8.145   3.301 121.952  0.00  0.00    +0.000 A 
ATOM     10  C   UNL     1      -8.865   3.669 120.806  0.00  0.00    +0.000 A 
ATOM     11  C   UNL     1      -8.268   4.082 119.627  0.00  0.00    +0.000 A 
ATOM     12  C   UNL     1      -6.892   4.216 119.580  0.00  0.00    +0.000 A 
ATOM     13  C   UNL     1      -6.141   3.935 120.719  0.00  0.00    +0.000 A 
ATOM     14  C   UNL     1      -6.751   3.474 121.894  0.00  0.00    +0.000 A 
ENDBRANCH   8   9
ENDBRANCH   1   8
BRANCH   4  15
ATOM     15  O   UNL     1      -7.571  -2.972 123.258  0.00  0.00    +0.000 OA
ATOM     16  H   UNL     1      -8.358  -3.451 123.574  0.00  0.00    +0.000 HD
ENDBRANCH   4  15
BRANCH   6  17
ATOM     17  O   UNL     1     -10.734   0.542 122.586  0.00  0.00    +0.000 OA
ATOM     18  H   UNL     1     -10.790   0.663 121.625  0.00  0.00    +0.000 HD
ENDBRANCH   6  17
TORSDOF 4
ENDMDL
MODEL 2
REMARK VINA RESULT:      -6.6      8.913     10.136
REMARK  Name = Phenylethyl resorcinol
REMARK  5 active torsions:
REMARK  status: ('A' for Active; 'I' for Inactive)
REMARK    1  A    between atoms: C_1  and  C_2
REMARK    2  A    between atoms: C_2  and  C_3
REMARK    3  A    between atoms: C_2  and  C_9
REMARK    4  A    between atoms: C_12  and  O_13
REMARK    5  A    between atoms: C_15  and  O_16
REMARK                            x       y       z     vdW  Elec       q    Type
REMARK                         _______ _______ _______ _____ _____    ______ ____
ROOT
ATOM      1  C   UNL     1      -9.365   4.790 131.706  0.00  0.00    +0.000 A 
ATOM      2  C   UNL     1      -9.431   3.950 130.586  0.00  0.00    +0.000 A 
ATOM      3  C   UNL     1      -9.736   2.602 130.685  0.00  0.00    +0.000 A 
ATOM      4  C   UNL     1      -9.676   2.012 131.926  0.00  0.00    +0.000 A 
ATOM      5  C   UNL     1      -9.399   2.769 133.062  0.00  0.00    +0.000 A 
ATOM      6  C   UNL     1      -9.273   4.159 132.949  0.00  0.00    +0.000 A 
ENDROOT
BRANCH   1   8
ATOM      7  C   UNL     1      -7.978   6.798 131.093  0.00  0.00    +0.000 C 
ATOM      8  C   UNL     1      -9.354   6.313 131.565  0.00  0.00    +0.000 C 
BRANCH   8   9
ATOM      9  C   UNL     1     -10.441   6.927 130.659  0.00  0.00    +0.000 A 
ATOM     10  C   UNL     1     -10.149   7.612 129.470  0.00  0.00    +0.000 A 
ATOM     11  C   UNL     1     -11.075   8.375 128.780  0.00  0.00    +0.000 A 
ATOM     12  C   UNL     1     -12.381   8.419 129.231  0.00  0.00    +0.000 A 
ATOM     13  C   UNL     1     -12.736   7.693 130.366  0.00  0.00    +0.000 A 
ATOM     14  C   UNL     1     -11.780   6.959 131.083  0.00  0.00    +0.000 A 
ENDBRANCH   8   9
ENDBRANCH   1   8
BRANCH   4  15
ATOM     15  O   UNL     1      -9.810   0.661 132.041  0.00  0.00    +0.000 OA
ATOM     16  H   UNL     1      -9.634   0.274 131.165  0.00  0.00    +0.000 HD
ENDBRANCH   4  15
BRANCH   6  17
ATOM     17  O   UNL     1      -8.994   4.914 134.055  0.00  0.00    +0.000 OA
ATOM     18  H   UNL     1      -9.007   5.852 133.806  0.00  0.00    +0.000 HD
ENDBRANCH   6  17
TORSDOF 4
ENDMDL
MODEL 3
REMARK VINA RESULT:      -6.4      9.121     10.581
REMARK  Name = Phenylethyl resorcinol
REMARK  5 active torsions:
REMARK  status: ('A' for Active; 'I' for Inactive)
REMARK    1  A    between atoms: C_1  and  C_2
REMARK    2  A    between atoms: C_2  and  C_3
REMARK    3  A    between atoms: C_2  and  C_9
REMARK    4  A    between atoms: C_12  and  O_13
REMARK    5  A    between atoms: C_15  and  O_16
REMARK                            x       y       z     vdW  Elec       q    Type
REMARK                         _______ _______ _______ _____ _____    ______ ____
ROOT
ATOM      1  C   UNL     1     -10.741   6.654 130.191  0.00  0.00    +0.000 A 
ATOM      2  C   UNL     1     -10.465   7.228 128.943  0.00  0.00    +0.000 A 
ATOM      3  C   UNL     1     -11.103   8.373 128.494  0.00  0.00    +0.000 A 
ATOM      4  C   UNL     1     -12.240   8.784 129.151  0.00  0.00    +0.000 A 
ATOM      5  C   UNL     1     -12.687   8.114 130.287  0.00  0.00    +0.000 A 
ATOM      6  C   UNL     1     -11.919   7.069 130.817  0.00  0.00    +0.000 A 
ENDROOT
BRANCH   1   8
ATOM      7  C   UNL     1     -10.228   4.196 130.356  0.00  0.00    +0.000 C 
ATOM      8  C   UNL     1      -9.819   5.602 130.811  0.00  0.00    +0.000 C 
BRANCH   8   9
ATOM      9  C   UNL     1      -8.307   5.787 130.570  0.00  0.00    +0.000 A 
ATOM     10  C   UNL     1      -7.518   4.844 129.894  0.00  0.00    +0.000 A 
ATOM     11  C   UNL     1      -6.135   4.871 129.884  0.00  0.00    +0.000 A 
ATOM     12  C   UNL     1      -5.476   5.915 130.507  0.00  0.00    +0.000 A 
ATOM     13  C   UNL     1      -6.221   6.917 131.126  0.00  0.00    +0.000 A 
ATOM     14  C   UNL     1      -7.621   6.857 131.170  0.00  0.00    +0.000 A 
ENDBRANCH   8   9
ENDBRANCH   1   8
BRANCH   4  15
ATOM     15  O   UNL     1     -12.983   9.807 128.645  0.00  0.00    +0.000 OA
ATOM     16  H   UNL     1     -13.229   9.567 127.734  0.00  0.00    +0.000 HD
ENDBRANCH   4  15
BRANCH   6  17
ATOM     17  O   UNL     1     -12.349   6.397 131.928  0.00  0.00    +0.000 OA
ATOM     18  H   UNL     1     -12.918   5.662 131.650  0.00  0.00    +0.000 HD
ENDBRANCH   6  17
TORSDOF 4
ENDMDL
MODEL 4
REMARK VINA RESULT:      -6.4      2.793      6.509
REMARK  Name = Phenylethyl resorcinol
REMARK  5 active torsions:
REMARK  status: ('A' for Active; 'I' for Inactive)
REMARK    1  A    between atoms: C_1  and  C_2
REMARK    2  A    between atoms: C_2  and  C_3
REMARK    3  A    between atoms: C_2  and  C_9
REMARK    4  A    between atoms: C_12  and  O_13
REMARK    5  A    between atoms: C_15  and  O_16
REMARK                            x       y       z     vdW  Elec       q    Type
REMARK                         _______ _______ _______ _____ _____    ______ ____
ROOT
ATOM      1  C   UNL     1      -7.959  -0.566 123.731  0.00  0.00    +0.000 A 
ATOM      2  C   UNL     1      -6.925   0.374 123.836  0.00  0.00    +0.000 A 
ATOM      3  C   UNL     1      -7.150   1.739 123.754  0.00  0.00    +0.000 A 
ATOM      4  C   UNL     1      -8.360   2.170 123.261  0.00  0.00    +0.000 A 
ATOM      5  C   UNL     1      -9.361   1.258 122.934  0.00  0.00    +0.000 A 
ATOM      6  C   UNL     1      -9.164  -0.104 123.197  0.00  0.00    +0.000 A 
ENDROOT
BRANCH   1   8
ATOM      7  C   UNL     1      -6.360  -2.508 123.746  0.00  0.00    +0.000 C 
ATOM      8  C   UNL     1      -7.760  -2.025 124.144  0.00  0.00    +0.000 C 
BRANCH   8   9
ATOM      9  C   UNL     1      -8.001  -2.358 125.630  0.00  0.00    +0.000 A 
ATOM     10  C   UNL     1      -7.137  -1.949 126.657  0.00  0.00    +0.000 A 
ATOM     11  C   UNL     1      -7.198  -2.440 127.949  0.00  0.00    +0.000 A 
ATOM     12  C   UNL     1      -8.204  -3.327 128.286  0.00  0.00    +0.000 A 
ATOM     13  C   UNL     1      -9.133  -3.703 127.318  0.00  0.00    +0.000 A 
ATOM     14  C   UNL     1      -9.035  -3.236 126.000  0.00  0.00    +0.000 A 
ENDBRANCH   8   9
ENDBRANCH   1   8
BRANCH   4  15
ATOM     15  O   UNL     1      -8.557   3.494 123.014  0.00  0.00    +0.000 OA
ATOM     16  H   UNL     1      -8.464   3.967 123.860  0.00  0.00    +0.000 HD
ENDBRANCH   4  15
BRANCH   6  17
ATOM     17  O   UNL     1     -10.136  -1.011 122.875  0.00  0.00    +0.000 OA
ATOM     18  H   UNL     1     -10.068  -1.770 123.476  0.00  0.00    +0.000 HD
ENDBRANCH   6  17
TORSDOF 4
ENDMDL
MODEL 5
REMARK VINA RESULT:      -6.2      8.531      9.893
REMARK  Name = Phenylethyl resorcinol
REMARK  5 active torsions:
REMARK  status: ('A' for Active; 'I' for Inactive)
REMARK    1  A    between atoms: C_1  and  C_2
REMARK    2  A    between atoms: C_2  and  C_3
REMARK    3  A    between atoms: C_2  and  C_9
REMARK    4  A    between atoms: C_12  and  O_13
REMARK    5  A    between atoms: C_15  and  O_16
REMARK                            x       y       z     vdW  Elec       q    Type
REMARK                         _______ _______ _______ _____ _____    ______ ____
ROOT
ATOM      1  C   UNL     1      -9.976   5.818 130.729  0.00  0.00    +0.000 A 
ATOM      2  C   UNL     1      -9.038   6.685 131.306  0.00  0.00    +0.000 A 
ATOM      3  C   UNL     1      -7.692   6.646 130.981  0.00  0.00    +0.000 A 
ATOM      4  C   UNL     1      -7.217   5.544 130.308  0.00  0.00    +0.000 A 
ATOM      5  C   UNL     1      -8.083   4.536 129.892  0.00  0.00    +0.000 A 
ATOM      6  C   UNL     1      -9.462   4.692 130.080  0.00  0.00    +0.000 A 
ENDROOT
BRANCH   1   8
ATOM      7  C   UNL     1     -11.821   6.671 132.211  0.00  0.00    +0.000 C 
ATOM      8  C   UNL     1     -11.480   6.077 130.840  0.00  0.00    +0.000 C 
BRANCH   8   9
ATOM      9  C   UNL     1     -12.109   6.956 129.740  0.00  0.00    +0.000 A 
ATOM     10  C   UNL     1     -12.033   8.357 129.744  0.00  0.00    +0.000 A 
ATOM     11  C   UNL     1     -12.791   9.166 128.915  0.00  0.00    +0.000 A 
ATOM     12  C   UNL     1     -13.620   8.580 127.976  0.00  0.00    +0.000 A 
ATOM     13  C   UNL     1     -13.670   7.191 127.884  0.00  0.00    +0.000 A 
ATOM     14  C   UNL     1     -12.933   6.380 128.759  0.00  0.00    +0.000 A 
ENDBRANCH   8   9
ENDBRANCH   1   8
BRANCH   4  15
ATOM     15  O   UNL     1      -5.877   5.395 130.114  0.00  0.00    +0.000 OA
ATOM     16  H   UNL     1      -5.422   5.915 130.800  0.00  0.00    +0.000 HD
ENDBRANCH   4  15
BRANCH   6  17
ATOM     17  O   UNL     1     -10.324   3.708 129.683  0.00  0.00    +0.000 OA
ATOM     18  H   UNL     1     -10.777   3.353 130.464  0.00  0.00    +0.000 HD
ENDBRANCH   6  17
TORSDOF 4
ENDMDL
MODEL 6
REMARK VINA RESULT:      -6.2      4.774      7.899
REMARK  Name = Phenylethyl resorcinol
REMARK  5 active torsions:
REMARK  status: ('A' for Active; 'I' for Inactive)
REMARK    1  A    between atoms: C_1  and  C_2
REMARK    2  A    between atoms: C_2  and  C_3
REMARK    3  A    between atoms: C_2  and  C_9
REMARK    4  A    between atoms: C_12  and  O_13
REMARK    5  A    between atoms: C_15  and  O_16
REMARK                            x       y       z     vdW  Elec       q    Type
REMARK                         _______ _______ _______ _____ _____    ______ ____
ROOT
ATOM      1  C   UNL     1      -8.299  -2.592 126.508  0.00  0.00    +0.000 A 
ATOM      2  C   UNL     1      -8.368  -3.649 125.590  0.00  0.00    +0.000 A 
ATOM      3  C   UNL     1      -8.045  -3.495 124.252  0.00  0.00    +0.000 A 
ATOM      4  C   UNL     1      -7.944  -2.217 123.751  0.00  0.00    +0.000 A 
ATOM      5  C   UNL     1      -8.080  -1.111 124.587  0.00  0.00    +0.000 A 
ATOM      6  C   UNL     1      -8.229  -1.306 125.967  0.00  0.00    +0.000 A 
ENDROOT
BRANCH   1   8
ATOM      7  C   UNL     1      -9.190  -4.071 128.338  0.00  0.00    +0.000 C 
ATOM      8  C   UNL     1      -8.337  -2.838 128.017  0.00  0.00    +0.000 C 
BRANCH   8   9
ATOM      9  C   UNL     1      -6.974  -2.972 128.726  0.00  0.00    +0.000 A 
ATOM     10  C   UNL     1      -5.789  -2.420 128.218  0.00  0.00    +0.000 A 
ATOM     11  C   UNL     1      -4.530  -2.734 128.700  0.00  0.00    +0.000 A 
ATOM     12  C   UNL     1      -4.418  -3.580 129.788  0.00  0.00    +0.000 A 
ATOM     13  C   UNL     1      -5.573  -4.092 130.375  0.00  0.00    +0.000 A 
ATOM     14  C   UNL     1      -6.841  -3.804 129.851  0.00  0.00    +0.000 A 
ENDBRANCH   8   9
ENDBRANCH   1   8
BRANCH   4  15
ATOM     15  O   UNL     1      -7.788  -2.025 122.412  0.00  0.00    +0.000 OA
ATOM     16  H   UNL     1      -6.832  -1.965 122.234  0.00  0.00    +0.000 HD
ENDBRANCH   4  15
BRANCH   6  17
ATOM     17  O   UNL     1      -8.371  -0.230 126.799  0.00  0.00    +0.000 OA
ATOM     18  H   UNL     1      -7.698  -0.282 127.497  0.00  0.00    +0.000 HD
ENDBRANCH   6  17
TORSDOF 4
ENDMDL
MODEL 7
REMARK VINA RESULT:      -6.1      5.527      8.001
REMARK  Name = Phenylethyl resorcinol
REMARK  5 active torsions:
REMARK  status: ('A' for Active; 'I' for Inactive)
REMARK    1  A    between atoms: C_1  and  C_2
REMARK    2  A    between atoms: C_2  and  C_3
REMARK    3  A    between atoms: C_2  and  C_9
REMARK    4  A    between atoms: C_12  and  O_13
REMARK    5  A    between atoms: C_15  and  O_16
REMARK                            x       y       z     vdW  Elec       q    Type
REMARK                         _______ _______ _______ _____ _____    ______ ____
ROOT
ATOM      1  C   UNL     1      -6.803  -2.110 126.007  0.00  0.00    +0.000 A 
ATOM      2  C   UNL     1      -8.098  -1.604 126.188  0.00  0.00    +0.000 A 
ATOM      3  C   UNL     1      -9.203  -2.143 125.550  0.00  0.00    +0.000 A 
ATOM      4  C   UNL     1      -8.990  -2.995 124.491  0.00  0.00    +0.000 A 
ATOM      5  C   UNL     1      -7.699  -3.369 124.126  0.00  0.00    +0.000 A 
ATOM      6  C   UNL     1      -6.614  -2.946 124.904  0.00  0.00    +0.000 A 
ENDROOT
BRANCH   1   8
ATOM      7  C   UNL     1      -5.681  -0.228 127.244  0.00  0.00    +0.000 C 
ATOM      8  C   UNL     1      -5.657  -1.732 126.947  0.00  0.00    +0.000 C 
BRANCH   8   9
ATOM      9  C   UNL     1      -5.577  -2.506 128.279  0.00  0.00    +0.000 A 
ATOM     10  C   UNL     1      -4.372  -2.985 128.815  0.00  0.00    +0.000 A 
ATOM     11  C   UNL     1      -4.307  -3.883 129.865  0.00  0.00    +0.000 A 
ATOM     12  C   UNL     1      -5.477  -4.287 130.481  0.00  0.00    +0.000 A 
ATOM     13  C   UNL     1      -6.694  -3.777 130.032  0.00  0.00    +0.000 A 
ATOM     14  C   UNL     1      -6.753  -2.903 128.938  0.00  0.00    +0.000 A 
ENDBRANCH   8   9
ENDBRANCH   1   8
BRANCH   4  15
ATOM     15  O   UNL     1     -10.044  -3.416 123.739  0.00  0.00    +0.000 OA
ATOM     16  H   UNL     1     -10.371  -2.649 123.236  0.00  0.00    +0.000 HD
ENDBRANCH   4  15
BRANCH   6  17
ATOM     17  O   UNL     1      -5.340  -3.300 124.554  0.00  0.00    +0.000 OA
ATOM     18  H   UNL     1      -5.312  -4.257 124.398  0.00  0.00    +0.000 HD
ENDBRANCH   6  17
TORSDOF 4
ENDMDL
MODEL 8
REMARK VINA RESULT:      -6.0      7.348      9.255
REMARK  Name = Phenylethyl resorcinol
REMARK  5 active torsions:
REMARK  status: ('A' for Active; 'I' for Inactive)
REMARK    1  A    between atoms: C_1  and  C_2
REMARK    2  A    between atoms: C_2  and  C_3
REMARK    3  A    between atoms: C_2  and  C_9
REMARK    4  A    between atoms: C_12  and  O_13
REMARK    5  A    between atoms: C_15  and  O_16
REMARK                            x       y       z     vdW  Elec       q    Type
REMARK                         _______ _______ _______ _____ _____    ______ ____
ROOT
ATOM      1  C   UNL     1     -10.336   4.946 130.341  0.00  0.00    +0.000 A 
ATOM      2  C   UNL     1      -9.318   5.615 129.647  0.00  0.00    +0.000 A 
ATOM      3  C   UNL     1      -8.428   4.956 128.816  0.00  0.00    +0.000 A 
ATOM      4  C   UNL     1      -8.349   3.585 128.904  0.00  0.00    +0.000 A 
ATOM      5  C   UNL     1      -9.201   2.875 129.746  0.00  0.00    +0.000 A 
ATOM      6  C   UNL     1     -10.209   3.558 130.439  0.00  0.00    +0.000 A 
ENDROOT
BRANCH   1   8
ATOM      7  C   UNL     1     -11.026   6.436 132.247  0.00  0.00    +0.000 C 
ATOM      8  C   UNL     1     -11.498   5.704 130.985  0.00  0.00    +0.000 C 
BRANCH   8   9
ATOM      9  C   UNL     1     -12.255   6.698 130.081  0.00  0.00    +0.000 A 
ATOM     10  C   UNL     1     -12.873   6.323 128.879  0.00  0.00    +0.000 A 
ATOM     11  C   UNL     1     -13.336   7.229 127.942  0.00  0.00    +0.000 A 
ATOM     12  C   UNL     1     -13.262   8.582 128.219  0.00  0.00    +0.000 A 
ATOM     13  C   UNL     1     -12.726   9.000 129.435  0.00  0.00    +0.000 A 
ATOM     14  C   UNL     1     -12.217   8.075 130.358  0.00  0.00    +0.000 A 
ENDBRANCH   8   9
ENDBRANCH   1   8
BRANCH   4  15
ATOM     15  O   UNL     1      -7.377   2.917 128.222  0.00  0.00    +0.000 OA
ATOM     16  H   UNL     1      -6.779   3.582 127.839  0.00  0.00    +0.000 HD
ENDBRANCH   4  15
BRANCH   6  17
ATOM     17  O   UNL     1     -11.049   2.876 131.275  0.00  0.00    +0.000 OA
ATOM     18  H   UNL     1     -11.390   2.095 130.810  0.00  0.00    +0.000 HD
ENDBRANCH   6  17
TORSDOF 4
ENDMDL
MODEL 9
REMARK VINA RESULT:      -5.9      3.844      5.959
REMARK  Name = Phenylethyl resorcinol
REMARK  5 active torsions:
REMARK  status: ('A' for Active; 'I' for Inactive)
REMARK    1  A    between atoms: C_1  and  C_2
REMARK    2  A    between atoms: C_2  and  C_3
REMARK    3  A    between atoms: C_2  and  C_9
REMARK    4  A    between atoms: C_12  and  O_13
REMARK    5  A    between atoms: C_15  and  O_16
REMARK                            x       y       z     vdW  Elec       q    Type
REMARK                         _______ _______ _______ _____ _____    ______ ____
ROOT
ATOM      1  C   UNL     1      -7.836  -2.798 126.395  0.00  0.00    +0.000 A 
ATOM      2  C   UNL     1      -8.765  -3.589 127.085  0.00  0.00    +0.000 A 
ATOM      3  C   UNL     1      -8.802  -3.656 128.468  0.00  0.00    +0.000 A 
ATOM      4  C   UNL     1      -7.721  -3.176 129.171  0.00  0.00    +0.000 A 
ATOM      5  C   UNL     1      -6.658  -2.563 128.512  0.00  0.00    +0.000 A 
ATOM      6  C   UNL     1      -6.734  -2.353 127.129  0.00  0.00    +0.000 A 
ENDROOT
BRANCH   1   8
ATOM      7  C   UNL     1      -8.608  -3.675 124.166  0.00  0.00    +0.000 C 
ATOM      8  C   UNL     1      -8.006  -2.476 124.909  0.00  0.00    +0.000 C 
BRANCH   8   9
ATOM      9  C   UNL     1      -8.823  -1.213 124.569  0.00  0.00    +0.000 A 
ATOM     10  C   UNL     1      -9.144  -0.839 123.255  0.00  0.00    +0.000 A 
ATOM     11  C   UNL     1      -9.654   0.402 122.916  0.00  0.00    +0.000 A 
ATOM     12  C   UNL     1      -9.938   1.310 123.919  0.00  0.00    +0.000 A 
ATOM     13  C   UNL     1      -9.708   0.954 125.247  0.00  0.00    +0.000 A 
ATOM     14  C   UNL     1      -9.149  -0.288 125.576  0.00  0.00    +0.000 A 
ENDBRANCH   8   9
ENDBRANCH   1   8
BRANCH   4  15
ATOM     15  O   UNL     1      -7.649  -3.369 130.517  0.00  0.00    +0.000 OA
ATOM     16  H   UNL     1      -6.706  -3.397 130.759  0.00  0.00    +0.000 HD
ENDBRANCH   4  15
BRANCH   6  17
ATOM     17  O   UNL     1      -5.695  -1.759 126.468  0.00  0.00    +0.000 OA
ATOM     18  H   UNL     1      -5.405  -0.982 126.972  0.00  0.00    +0.000 HD
ENDBRANCH   6  17
TORSDOF 4
ENDMDL
