MODEL 1
REMARK VINA RESULT:      -6.2      0.000      0.000
REMARK  Name = Phenacemide
REMARK  2 active torsions:
REMARK  status: ('A' for Active; 'I' for Inactive)
REMARK    1  A    between atoms: C_5  and  C_7
REMARK    2  A    between atoms: C_7  and  C_8
REMARK                            x       y       z     vdW  Elec       q    Type
REMARK                         _______ _______ _______ _____ _____    ______ ____
ROOT
ATOM      1  N   UNL     1      -9.044   4.203 134.092  0.00  0.00    +0.000 N 
ATOM      2  C   UNL     1      -9.228   5.162 133.155  0.00  0.00    +0.000 C 
ATOM      3  O   UNL     1      -8.211   5.626 132.642  0.00  0.00    +0.000 OA
ATOM      4  N   UNL     1     -10.525   5.517 132.900  0.00  0.00    +0.000 N 
ATOM      5  C   UNL     1     -10.815   6.442 131.913  0.00  0.00    +0.000 C 
ATOM      6  O   UNL     1      -9.938   6.932 131.202  0.00  0.00    +0.000 OA
ATOM      7  H   UNL     1      -8.068   3.967 134.246  0.00  0.00    +0.000 HD
ATOM      8  H   UNL     1      -9.744   3.710 134.618  0.00  0.00    +0.000 HD
ATOM      9  H   UNL     1     -11.261   5.065 133.418  0.00  0.00    +0.000 HD
ENDROOT
BRANCH   5  10
ATOM     10  C   UNL     1     -12.291   6.832 131.717  0.00  0.00    +0.000 C 
BRANCH  10  11
ATOM     11  C   UNL     1     -12.605   7.344 130.309  0.00  0.00    +0.000 A 
ATOM     12  C   UNL     1     -12.748   6.447 129.232  0.00  0.00    +0.000 A 
ATOM     13  C   UNL     1     -12.993   6.894 127.934  0.00  0.00    +0.000 A 
ATOM     14  C   UNL     1     -13.127   8.253 127.686  0.00  0.00    +0.000 A 
ATOM     15  C   UNL     1     -12.978   9.164 128.732  0.00  0.00    +0.000 A 
ATOM     16  C   UNL     1     -12.710   8.715 130.034  0.00  0.00    +0.000 A 
ENDBRANCH  10  11
ENDBRANCH   5  10
TORSDOF 2
ENDMDL
MODEL 2
REMARK VINA RESULT:      -6.1      3.067      5.550
REMARK  Name = Phenacemide
REMARK  2 active torsions:
REMARK  status: ('A' for Active; 'I' for Inactive)
REMARK    1  A    between atoms: C_5  and  C_7
REMARK    2  A    between atoms: C_7  and  C_8
REMARK                            x       y       z     vdW  Elec       q    Type
REMARK                         _______ _______ _______ _____ _____    ______ ____
ROOT
ATOM      1  N   UNL     1     -13.182  10.141 128.857  0.00  0.00    +0.000 N 
ATOM      2  C   UNL     1     -12.984   8.802 128.854  0.00  0.00    +0.000 C 
ATOM      3  O   UNL     1     -13.259   8.213 127.810  0.00  0.00    +0.000 OA
ATOM      4  N   UNL     1     -12.518   8.257 130.020  0.00  0.00    +0.000 N 
ATOM      5  C   UNL     1     -12.225   6.907 130.091  0.00  0.00    +0.000 C 
ATOM      6  O   UNL     1     -12.319   6.167 129.111  0.00  0.00    +0.000 OA
ATOM      7  H   UNL     1     -13.522  10.504 127.973  0.00  0.00    +0.000 HD
ATOM      8  H   UNL     1     -13.017  10.788 129.609  0.00  0.00    +0.000 HD
ATOM      9  H   UNL     1     -12.358   8.863 130.808  0.00  0.00    +0.000 HD
ENDROOT
BRANCH   5  10
ATOM     10  C   UNL     1     -11.755   6.352 131.448  0.00  0.00    +0.000 C 
BRANCH  10  11
ATOM     11  C   UNL     1     -10.232   6.341 131.609  0.00  0.00    +0.000 A 
ATOM     12  C   UNL     1      -9.633   5.779 132.752  0.00  0.00    +0.000 A 
ATOM     13  C   UNL     1      -8.252   5.795 132.939  0.00  0.00    +0.000 A 
ATOM     14  C   UNL     1      -7.431   6.354 131.969  0.00  0.00    +0.000 A 
ATOM     15  C   UNL     1      -8.000   6.929 130.831  0.00  0.00    +0.000 A 
ATOM     16  C   UNL     1      -9.391   6.932 130.654  0.00  0.00    +0.000 A 
ENDBRANCH  10  11
ENDBRANCH   5  10
TORSDOF 2
ENDMDL
MODEL 3
REMARK VINA RESULT:      -5.9     10.602     11.749
REMARK  Name = Phenacemide
REMARK  2 active torsions:
REMARK  status: ('A' for Active; 'I' for Inactive)
REMARK    1  A    between atoms: C_5  and  C_7
REMARK    2  A    between atoms: C_7  and  C_8
REMARK                            x       y       z     vdW  Elec       q    Type
REMARK                         _______ _______ _______ _____ _____    ______ ____
ROOT
ATOM      1  N   UNL     1      -7.854   3.632 123.608  0.00  0.00    +0.000 N 
ATOM      2  C   UNL     1      -8.616   2.602 124.044  0.00  0.00    +0.000 C 
ATOM      3  O   UNL     1      -9.257   2.796 125.075  0.00  0.00    +0.000 OA
ATOM      4  N   UNL     1      -8.571   1.457 123.294  0.00  0.00    +0.000 N 
ATOM      5  C   UNL     1      -9.366   0.374 123.625  0.00  0.00    +0.000 C 
ATOM      6  O   UNL     1     -10.169   0.417 124.557  0.00  0.00    +0.000 OA
ATOM      7  H   UNL     1      -7.921   4.461 124.189  0.00  0.00    +0.000 HD
ATOM      8  H   UNL     1      -7.266   3.664 122.793  0.00  0.00    +0.000 HD
ATOM      9  H   UNL     1      -7.980   1.435 122.480  0.00  0.00    +0.000 HD
ENDROOT
BRANCH   5  10
ATOM     10  C   UNL     1      -9.226  -0.898 122.769  0.00  0.00    +0.000 C 
BRANCH  10  11
ATOM     11  C   UNL     1      -8.112  -1.834 123.245  0.00  0.00    +0.000 A 
ATOM     12  C   UNL     1      -6.778  -1.628 122.845  0.00  0.00    +0.000 A 
ATOM     13  C   UNL     1      -5.755  -2.492 123.232  0.00  0.00    +0.000 A 
ATOM     14  C   UNL     1      -6.039  -3.573 124.054  0.00  0.00    +0.000 A 
ATOM     15  C   UNL     1      -7.355  -3.808 124.456  0.00  0.00    +0.000 A 
ATOM     16  C   UNL     1      -8.388  -2.951 124.048  0.00  0.00    +0.000 A 
ENDBRANCH  10  11
ENDBRANCH   5  10
TORSDOF 2
ENDMDL
MODEL 4
REMARK VINA RESULT:      -5.9     11.787     12.885
REMARK  Name = Phenacemide
REMARK  2 active torsions:
REMARK  status: ('A' for Active; 'I' for Inactive)
REMARK    1  A    between atoms: C_5  and  C_7
REMARK    2  A    between atoms: C_7  and  C_8
REMARK                            x       y       z     vdW  Elec       q    Type
REMARK                         _______ _______ _______ _____ _____    ______ ____
ROOT
ATOM      1  N   UNL     1      -4.208  -5.394 123.328  0.00  0.00    +0.000 N 
ATOM      2  C   UNL     1      -4.633  -4.130 123.558  0.00  0.00    +0.000 C 
ATOM      3  O   UNL     1      -3.826  -3.232 123.325  0.00  0.00    +0.000 OA
ATOM      4  N   UNL     1      -5.907  -3.999 124.041  0.00  0.00    +0.000 N 
ATOM      5  C   UNL     1      -6.451  -2.744 124.246  0.00  0.00    +0.000 C 
ATOM      6  O   UNL     1      -5.841  -1.714 123.955  0.00  0.00    +0.000 OA
ATOM      7  H   UNL     1      -3.261  -5.445 122.966  0.00  0.00    +0.000 HD
ATOM      8  H   UNL     1      -4.718  -6.251 123.458  0.00  0.00    +0.000 HD
ATOM      9  H   UNL     1      -6.450  -4.831 124.208  0.00  0.00    +0.000 HD
ENDROOT
BRANCH   5  10
ATOM     10  C   UNL     1      -7.869  -2.672 124.840  0.00  0.00    +0.000 C 
BRANCH  10  11
ATOM     11  C   UNL     1      -7.909  -2.889 126.354  0.00  0.00    +0.000 A 
ATOM     12  C   UNL     1      -8.906  -3.692 126.941  0.00  0.00    +0.000 A 
ATOM     13  C   UNL     1      -8.986  -3.870 128.321  0.00  0.00    +0.000 A 
ATOM     14  C   UNL     1      -8.050  -3.267 129.150  0.00  0.00    +0.000 A 
ATOM     15  C   UNL     1      -7.058  -2.456 128.596  0.00  0.00    +0.000 A 
ATOM     16  C   UNL     1      -6.991  -2.260 127.209  0.00  0.00    +0.000 A 
ENDBRANCH  10  11
ENDBRANCH   5  10
TORSDOF 2
ENDMDL
MODEL 5
REMARK VINA RESULT:      -5.6      1.876      2.123
REMARK  Name = Phenacemide
REMARK  2 active torsions:
REMARK  status: ('A' for Active; 'I' for Inactive)
REMARK    1  A    between atoms: C_5  and  C_7
REMARK    2  A    between atoms: C_7  and  C_8
REMARK                            x       y       z     vdW  Elec       q    Type
REMARK                         _______ _______ _______ _____ _____    ______ ____
ROOT
ATOM      1  N   UNL     1      -9.683   3.879 134.017  0.00  0.00    +0.000 N 
ATOM      2  C   UNL     1      -9.338   4.062 132.721  0.00  0.00    +0.000 C 
ATOM      3  O   UNL     1      -9.002   3.057 132.099  0.00  0.00    +0.000 OA
ATOM      4  N   UNL     1      -9.385   5.350 132.260  0.00  0.00    +0.000 N 
ATOM      5  C   UNL     1      -9.111   5.627 130.932  0.00  0.00    +0.000 C 
ATOM      6  O   UNL     1      -8.872   4.735 130.117  0.00  0.00    +0.000 OA
ATOM      7  H   UNL     1      -9.640   2.910 134.316  0.00  0.00    +0.000 HD
ATOM      8  H   UNL     1      -9.982   4.572 134.681  0.00  0.00    +0.000 HD
ATOM      9  H   UNL     1      -9.658   6.082 132.895  0.00  0.00    +0.000 HD
ENDROOT
BRANCH   5  10
ATOM     10  C   UNL     1      -9.132   7.103 130.495  0.00  0.00    +0.000 C 
BRANCH  10  11
ATOM     11  C   UNL     1     -10.417   7.506 129.768  0.00  0.00    +0.000 A 
ATOM     12  C   UNL     1     -11.676   7.292 130.360  0.00  0.00    +0.000 A 
ATOM     13  C   UNL     1     -12.861   7.613 129.699  0.00  0.00    +0.000 A 
ATOM     14  C   UNL     1     -12.812   8.184 128.435  0.00  0.00    +0.000 A 
ATOM     15  C   UNL     1     -11.578   8.397 127.820  0.00  0.00    +0.000 A 
ATOM     16  C   UNL     1     -10.387   8.053 128.476  0.00  0.00    +0.000 A 
ENDBRANCH  10  11
ENDBRANCH   5  10
TORSDOF 2
ENDMDL
MODEL 6
REMARK VINA RESULT:      -5.6     10.156     11.531
REMARK  Name = Phenacemide
REMARK  2 active torsions:
REMARK  status: ('A' for Active; 'I' for Inactive)
REMARK    1  A    between atoms: C_5  and  C_7
REMARK    2  A    between atoms: C_7  and  C_8
REMARK                            x       y       z     vdW  Elec       q    Type
REMARK                         _______ _______ _______ _____ _____    ______ ____
ROOT
ATOM      1  N   UNL     1      -9.516   2.190 123.936  0.00  0.00    +0.000 N 
ATOM      2  C   UNL     1      -9.668   0.859 123.746  0.00  0.00    +0.000 C 
ATOM      3  O   UNL     1     -10.696   0.503 123.173  0.00  0.00    +0.000 OA
ATOM      4  N   UNL     1      -8.667   0.061 124.232  0.00  0.00    +0.000 N 
ATOM      5  C   UNL     1      -8.703  -1.307 124.029  0.00  0.00    +0.000 C 
ATOM      6  O   UNL     1      -9.593  -1.844 123.368  0.00  0.00    +0.000 OA
ATOM      7  H   UNL     1     -10.277   2.744 123.556  0.00  0.00    +0.000 HD
ATOM      8  H   UNL     1      -8.751   2.668 124.380  0.00  0.00    +0.000 HD
ATOM      9  H   UNL     1      -7.890   0.493 124.705  0.00  0.00    +0.000 HD
ENDROOT
BRANCH   5  10
ATOM     10  C   UNL     1      -7.572  -2.148 124.648  0.00  0.00    +0.000 C 
BRANCH  10  11
ATOM     11  C   UNL     1      -7.840  -2.559 126.098  0.00  0.00    +0.000 A 
ATOM     12  C   UNL     1      -8.783  -3.560 126.400  0.00  0.00    +0.000 A 
ATOM     13  C   UNL     1      -9.073  -3.921 127.715  0.00  0.00    +0.000 A 
ATOM     14  C   UNL     1      -8.403  -3.304 128.763  0.00  0.00    +0.000 A 
ATOM     15  C   UNL     1      -7.472  -2.301 128.492  0.00  0.00    +0.000 A 
ATOM     16  C   UNL     1      -7.197  -1.923 127.170  0.00  0.00    +0.000 A 
ENDBRANCH  10  11
ENDBRANCH   5  10
TORSDOF 2
ENDMDL
MODEL 7
REMARK VINA RESULT:      -5.3      9.152     10.395
REMARK  Name = Phenacemide
REMARK  2 active torsions:
REMARK  status: ('A' for Active; 'I' for Inactive)
REMARK    1  A    between atoms: C_5  and  C_7
REMARK    2  A    between atoms: C_7  and  C_8
REMARK                            x       y       z     vdW  Elec       q    Type
REMARK                         _______ _______ _______ _____ _____    ______ ____
ROOT
ATOM      1  N   UNL     1      -1.774   2.731 126.513  0.00  0.00    +0.000 N 
ATOM      2  C   UNL     1      -2.617   3.773 126.701  0.00  0.00    +0.000 C 
ATOM      3  O   UNL     1      -3.600   3.819 125.964  0.00  0.00    +0.000 OA
ATOM      4  N   UNL     1      -2.267   4.665 127.679  0.00  0.00    +0.000 N 
ATOM      5  C   UNL     1      -3.100   5.726 127.986  0.00  0.00    +0.000 C 
ATOM      6  O   UNL     1      -4.194   5.876 127.440  0.00  0.00    +0.000 OA
ATOM      7  H   UNL     1      -2.074   2.092 125.784  0.00  0.00    +0.000 HD
ATOM      8  H   UNL     1      -0.926   2.525 127.012  0.00  0.00    +0.000 HD
ATOM      9  H   UNL     1      -1.415   4.512 128.191  0.00  0.00    +0.000 HD
ENDROOT
BRANCH   5  10
ATOM     10  C   UNL     1      -2.619   6.719 129.060  0.00  0.00    +0.000 C 
BRANCH  10  11
ATOM     11  C   UNL     1      -2.260   6.054 130.391  0.00  0.00    +0.000 A 
ATOM     12  C   UNL     1      -3.003   4.958 130.871  0.00  0.00    +0.000 A 
ATOM     13  C   UNL     1      -2.721   4.363 132.099  0.00  0.00    +0.000 A 
ATOM     14  C   UNL     1      -1.666   4.836 132.869  0.00  0.00    +0.000 A 
ATOM     15  C   UNL     1      -0.921   5.928 132.422  0.00  0.00    +0.000 A 
ATOM     16  C   UNL     1      -1.220   6.540 131.196  0.00  0.00    +0.000 A 
ENDBRANCH  10  11
ENDBRANCH   5  10
TORSDOF 2
ENDMDL
MODEL 8
REMARK VINA RESULT:      -5.3     10.049     11.169
REMARK  Name = Phenacemide
REMARK  2 active torsions:
REMARK  status: ('A' for Active; 'I' for Inactive)
REMARK    1  A    between atoms: C_5  and  C_7
REMARK    2  A    between atoms: C_7  and  C_8
REMARK                            x       y       z     vdW  Elec       q    Type
REMARK                         _______ _______ _______ _____ _____    ______ ____
ROOT
ATOM      1  N   UNL     1      -8.597   3.719 121.308  0.00  0.00    +0.000 N 
ATOM      2  C   UNL     1      -8.017   3.013 122.307  0.00  0.00    +0.000 C 
ATOM      3  O   UNL     1      -6.799   3.136 122.427  0.00  0.00    +0.000 OA
ATOM      4  N   UNL     1      -8.852   2.228 123.056  0.00  0.00    +0.000 N 
ATOM      5  C   UNL     1      -8.361   1.521 124.139  0.00  0.00    +0.000 C 
ATOM      6  O   UNL     1      -7.186   1.610 124.496  0.00  0.00    +0.000 OA
ATOM      7  H   UNL     1      -7.943   4.290 120.782  0.00  0.00    +0.000 HD
ATOM      8  H   UNL     1      -9.569   3.748 121.056  0.00  0.00    +0.000 HD
ATOM      9  H   UNL     1      -9.832   2.208 122.827  0.00  0.00    +0.000 HD
ENDROOT
BRANCH   5  10
ATOM     10  C   UNL     1      -9.345   0.619 124.904  0.00  0.00    +0.000 C 
BRANCH  10  11
ATOM     11  C   UNL     1      -9.048  -0.875 124.754  0.00  0.00    +0.000 A 
ATOM     12  C   UNL     1      -9.068  -1.489 123.487  0.00  0.00    +0.000 A 
ATOM     13  C   UNL     1      -8.842  -2.856 123.331  0.00  0.00    +0.000 A 
ATOM     14  C   UNL     1      -8.563  -3.640 124.442  0.00  0.00    +0.000 A 
ATOM     15  C   UNL     1      -8.549  -3.060 125.711  0.00  0.00    +0.000 A 
ATOM     16  C   UNL     1      -8.799  -1.688 125.870  0.00  0.00    +0.000 A 
ENDBRANCH  10  11
ENDBRANCH   5  10
TORSDOF 2
ENDMDL
MODEL 9
REMARK VINA RESULT:      -5.2     10.067     10.951
REMARK  Name = Phenacemide
REMARK  2 active torsions:
REMARK  status: ('A' for Active; 'I' for Inactive)
REMARK    1  A    between atoms: C_5  and  C_7
REMARK    2  A    between atoms: C_7  and  C_8
REMARK                            x       y       z     vdW  Elec       q    Type
REMARK                         _______ _______ _______ _____ _____    ______ ____
ROOT
ATOM      1  N   UNL     1      -2.578  -2.353 129.666  0.00  0.00    +0.000 N 
ATOM      2  C   UNL     1      -3.634  -2.744 130.416  0.00  0.00    +0.000 C 
ATOM      3  O   UNL     1      -3.409  -3.595 131.275  0.00  0.00    +0.000 OA
ATOM      4  N   UNL     1      -4.836  -2.158 130.120  0.00  0.00    +0.000 N 
ATOM      5  C   UNL     1      -5.959  -2.447 130.874  0.00  0.00    +0.000 C 
ATOM      6  O   UNL     1      -5.910  -3.186 131.858  0.00  0.00    +0.000 OA
ATOM      7  H   UNL     1      -1.707  -2.808 129.923  0.00  0.00    +0.000 HD
ATOM      8  H   UNL     1      -2.564  -1.676 128.924  0.00  0.00    +0.000 HD
ATOM      9  H   UNL     1      -4.876  -1.489 129.369  0.00  0.00    +0.000 HD
ENDROOT
BRANCH   5  10
ATOM     10  C   UNL     1      -7.287  -1.793 130.452  0.00  0.00    +0.000 C 
BRANCH  10  11
ATOM     11  C   UNL     1      -7.826  -2.312 129.116  0.00  0.00    +0.000 A 
ATOM     12  C   UNL     1      -7.728  -1.531 127.948  0.00  0.00    +0.000 A 
ATOM     13  C   UNL     1      -8.249  -1.966 126.731  0.00  0.00    +0.000 A 
ATOM     14  C   UNL     1      -8.860  -3.210 126.647  0.00  0.00    +0.000 A 
ATOM     15  C   UNL     1      -8.981  -3.999 127.791  0.00  0.00    +0.000 A 
ATOM     16  C   UNL     1      -8.475  -3.551 129.021  0.00  0.00    +0.000 A 
ENDBRANCH  10  11
ENDBRANCH   5  10
TORSDOF 2
ENDMDL
