MODEL 1
REMARK VINA RESULT:      -7.8      0.000      0.000
REMARK  Name = Phenindione
REMARK  1 active torsions:
REMARK  status: ('A' for Active; 'I' for Inactive)
REMARK    1  A    between atoms: C_3  and  C_12
REMARK                            x       y       z     vdW  Elec       q    Type
REMARK                         _______ _______ _______ _____ _____    ______ ____
ROOT
ATOM      1  O   UNL     1     -12.434   6.430 132.179  0.00  0.00    +0.000 OA
ATOM      2  C   UNL     1     -11.505   6.695 131.441  0.00  0.00    +0.000 C 
ATOM      3  C   UNL     1     -10.027   6.404 131.651  0.00  0.00    +0.000 C 
ATOM      4  C   UNL     1      -9.396   6.858 130.337  0.00  0.00    +0.000 C 
ATOM      5  O   UNL     1      -8.239   6.748 129.979  0.00  0.00    +0.000 OA
ATOM      6  C   UNL     1     -10.439   7.454 129.504  0.00  0.00    +0.000 A 
ATOM      7  C   UNL     1     -10.318   8.019 128.248  0.00  0.00    +0.000 A 
ATOM      8  C   UNL     1     -11.481   8.504 127.645  0.00  0.00    +0.000 A 
ATOM      9  C   UNL     1     -12.725   8.415 128.301  0.00  0.00    +0.000 A 
ATOM     10  C   UNL     1     -12.826   7.838 129.570  0.00  0.00    +0.000 A 
ATOM     11  C   UNL     1     -11.665   7.363 130.149  0.00  0.00    +0.000 A 
ENDROOT
BRANCH   3  12
ATOM     12  C   UNL     1      -9.743   4.954 131.945  0.00  0.00    +0.000 A 
ATOM     13  C   UNL     1     -10.059   3.962 131.008  0.00  0.00    +0.000 A 
ATOM     14  C   UNL     1      -9.943   2.615 131.352  0.00  0.00    +0.000 A 
ATOM     15  C   UNL     1      -9.427   2.252 132.595  0.00  0.00    +0.000 A 
ATOM     16  C   UNL     1      -9.061   3.232 133.514  0.00  0.00    +0.000 A 
ATOM     17  C   UNL     1      -9.222   4.576 133.192  0.00  0.00    +0.000 A 
ENDBRANCH   3  12
TORSDOF 1
ENDMDL
MODEL 2
REMARK VINA RESULT:      -7.6      1.938      5.295
REMARK  Name = Phenindione
REMARK  1 active torsions:
REMARK  status: ('A' for Active; 'I' for Inactive)
REMARK    1  A    between atoms: C_3  and  C_12
REMARK                            x       y       z     vdW  Elec       q    Type
REMARK                         _______ _______ _______ _____ _____    ______ ____
ROOT
ATOM      1  O   UNL     1     -12.119   6.147 132.120  0.00  0.00    +0.000 OA
ATOM      2  C   UNL     1     -11.214   6.038 131.316  0.00  0.00    +0.000 C 
ATOM      3  C   UNL     1     -11.311   5.945 129.801  0.00  0.00    +0.000 C 
ATOM      4  C   UNL     1      -9.849   5.954 129.360  0.00  0.00    +0.000 C 
ATOM      5  O   UNL     1      -9.403   5.987 128.230  0.00  0.00    +0.000 OA
ATOM      6  C   UNL     1      -9.006   5.945 130.555  0.00  0.00    +0.000 A 
ATOM      7  C   UNL     1      -7.625   5.923 130.632  0.00  0.00    +0.000 A 
ATOM      8  C   UNL     1      -7.051   5.943 131.906  0.00  0.00    +0.000 A 
ATOM      9  C   UNL     1      -7.858   5.984 133.060  0.00  0.00    +0.000 A 
ATOM     10  C   UNL     1      -9.253   6.009 132.960  0.00  0.00    +0.000 A 
ATOM     11  C   UNL     1      -9.801   5.990 131.692  0.00  0.00    +0.000 A 
ENDROOT
BRANCH   3  12
ATOM     12  C   UNL     1     -12.095   7.075 129.185  0.00  0.00    +0.000 A 
ATOM     13  C   UNL     1     -11.904   8.394 129.619  0.00  0.00    +0.000 A 
ATOM     14  C   UNL     1     -12.745   9.407 129.161  0.00  0.00    +0.000 A 
ATOM     15  C   UNL     1     -13.719   9.129 128.202  0.00  0.00    +0.000 A 
ATOM     16  C   UNL     1     -13.881   7.831 127.727  0.00  0.00    +0.000 A 
ATOM     17  C   UNL     1     -13.076   6.809 128.218  0.00  0.00    +0.000 A 
ENDBRANCH   3  12
TORSDOF 1
ENDMDL
MODEL 3
REMARK VINA RESULT:      -7.3      1.318      5.343
REMARK  Name = Phenindione
REMARK  1 active torsions:
REMARK  status: ('A' for Active; 'I' for Inactive)
REMARK    1  A    between atoms: C_3  and  C_12
REMARK                            x       y       z     vdW  Elec       q    Type
REMARK                         _______ _______ _______ _____ _____    ______ ____
ROOT
ATOM      1  O   UNL     1     -11.000   3.900 130.245  0.00  0.00    +0.000 OA
ATOM      2  C   UNL     1     -10.101   4.654 130.561  0.00  0.00    +0.000 C 
ATOM      3  C   UNL     1      -9.526   5.814 129.764  0.00  0.00    +0.000 C 
ATOM      4  C   UNL     1      -8.528   6.440 130.735  0.00  0.00    +0.000 C 
ATOM      5  O   UNL     1      -7.875   7.456 130.595  0.00  0.00    +0.000 OA
ATOM      6  C   UNL     1      -8.481   5.618 131.943  0.00  0.00    +0.000 A 
ATOM      7  C   UNL     1      -7.700   5.791 133.071  0.00  0.00    +0.000 A 
ATOM      8  C   UNL     1      -7.858   4.871 134.111  0.00  0.00    +0.000 A 
ATOM      9  C   UNL     1      -8.781   3.812 134.004  0.00  0.00    +0.000 A 
ATOM     10  C   UNL     1      -9.563   3.657 132.856  0.00  0.00    +0.000 A 
ATOM     11  C   UNL     1      -9.393   4.577 131.839  0.00  0.00    +0.000 A 
ENDROOT
BRANCH   3  12
ATOM     12  C   UNL     1     -10.571   6.801 129.312  0.00  0.00    +0.000 A 
ATOM     13  C   UNL     1     -10.581   7.274 127.993  0.00  0.00    +0.000 A 
ATOM     14  C   UNL     1     -11.446   8.305 127.628  0.00  0.00    +0.000 A 
ATOM     15  C   UNL     1     -12.365   8.806 128.549  0.00  0.00    +0.000 A 
ATOM     16  C   UNL     1     -12.398   8.307 129.847  0.00  0.00    +0.000 A 
ATOM     17  C   UNL     1     -11.503   7.313 130.229  0.00  0.00    +0.000 A 
ENDBRANCH   3  12
TORSDOF 1
ENDMDL
MODEL 4
REMARK VINA RESULT:      -7.1      1.276      5.602
REMARK  Name = Phenindione
REMARK  1 active torsions:
REMARK  status: ('A' for Active; 'I' for Inactive)
REMARK    1  A    between atoms: C_3  and  C_12
REMARK                            x       y       z     vdW  Elec       q    Type
REMARK                         _______ _______ _______ _____ _____    ______ ____
ROOT
ATOM      1  O   UNL     1      -8.766   5.013 128.470  0.00  0.00    +0.000 OA
ATOM      2  C   UNL     1      -9.050   5.172 129.641  0.00  0.00    +0.000 C 
ATOM      3  C   UNL     1      -9.595   6.422 130.314  0.00  0.00    +0.000 C 
ATOM      4  C   UNL     1      -9.862   5.957 131.743  0.00  0.00    +0.000 C 
ATOM      5  O   UNL     1     -10.388   6.572 132.650  0.00  0.00    +0.000 OA
ATOM      6  C   UNL     1      -9.398   4.576 131.875  0.00  0.00    +0.000 A 
ATOM      7  C   UNL     1      -9.417   3.766 132.995  0.00  0.00    +0.000 A 
ATOM      8  C   UNL     1      -8.932   2.463 132.856  0.00  0.00    +0.000 A 
ATOM      9  C   UNL     1      -8.445   2.003 131.617  0.00  0.00    +0.000 A 
ATOM     10  C   UNL     1      -8.437   2.838 130.495  0.00  0.00    +0.000 A 
ATOM     11  C   UNL     1      -8.922   4.122 130.653  0.00  0.00    +0.000 A 
ENDROOT
BRANCH   3  12
ATOM     12  C   UNL     1     -10.836   6.960 129.652  0.00  0.00    +0.000 A 
ATOM     13  C   UNL     1     -12.018   6.207 129.633  0.00  0.00    +0.000 A 
ATOM     14  C   UNL     1     -13.110   6.640 128.882  0.00  0.00    +0.000 A 
ATOM     15  C   UNL     1     -13.062   7.866 128.220  0.00  0.00    +0.000 A 
ATOM     16  C   UNL     1     -11.911   8.646 128.275  0.00  0.00    +0.000 A 
ATOM     17  C   UNL     1     -10.802   8.194 128.983  0.00  0.00    +0.000 A 
ENDBRANCH   3  12
TORSDOF 1
ENDMDL
MODEL 5
REMARK VINA RESULT:      -7.1      1.904      3.153
REMARK  Name = Phenindione
REMARK  1 active torsions:
REMARK  status: ('A' for Active; 'I' for Inactive)
REMARK    1  A    between atoms: C_3  and  C_12
REMARK                            x       y       z     vdW  Elec       q    Type
REMARK                         _______ _______ _______ _____ _____    ______ ____
ROOT
ATOM      1  O   UNL     1      -9.060   5.559 128.270  0.00  0.00    +0.000 OA
ATOM      2  C   UNL     1      -9.751   5.947 129.192  0.00  0.00    +0.000 C 
ATOM      3  C   UNL     1      -9.678   5.540 130.655  0.00  0.00    +0.000 C 
ATOM      4  C   UNL     1     -10.703   6.455 131.320  0.00  0.00    +0.000 C 
ATOM      5  O   UNL     1     -10.951   6.576 132.504  0.00  0.00    +0.000 OA
ATOM      6  C   UNL     1     -11.369   7.237 130.279  0.00  0.00    +0.000 A 
ATOM      7  C   UNL     1     -12.380   8.171 130.418  0.00  0.00    +0.000 A 
ATOM      8  C   UNL     1     -12.835   8.804 129.259  0.00  0.00    +0.000 A 
ATOM      9  C   UNL     1     -12.278   8.497 128.002  0.00  0.00    +0.000 A 
ATOM     10  C   UNL     1     -11.254   7.552 127.883  0.00  0.00    +0.000 A 
ATOM     11  C   UNL     1     -10.817   6.938 129.041  0.00  0.00    +0.000 A 
ENDROOT
BRANCH   3  12
ATOM     12  C   UNL     1      -8.304   5.704 131.251  0.00  0.00    +0.000 A 
ATOM     13  C   UNL     1      -7.539   6.845 130.975  0.00  0.00    +0.000 A 
ATOM     14  C   UNL     1      -6.211   6.914 131.395  0.00  0.00    +0.000 A 
ATOM     15  C   UNL     1      -5.668   5.888 132.167  0.00  0.00    +0.000 A 
ATOM     16  C   UNL     1      -6.436   4.773 132.490  0.00  0.00    +0.000 A 
ATOM     17  C   UNL     1      -7.745   4.679 132.031  0.00  0.00    +0.000 A 
ENDBRANCH   3  12
TORSDOF 1
ENDMDL
MODEL 6
REMARK VINA RESULT:      -7.0      8.796      9.475
REMARK  Name = Phenindione
REMARK  1 active torsions:
REMARK  status: ('A' for Active; 'I' for Inactive)
REMARK    1  A    between atoms: C_3  and  C_12
REMARK                            x       y       z     vdW  Elec       q    Type
REMARK                         _______ _______ _______ _____ _____    ______ ____
ROOT
ATOM      1  O   UNL     1     -10.771   1.085 123.053  0.00  0.00    +0.000 OA
ATOM      2  C   UNL     1      -9.613   1.288 123.362  0.00  0.00    +0.000 C 
ATOM      3  C   UNL     1      -8.828   0.679 124.513  0.00  0.00    +0.000 C 
ATOM      4  C   UNL     1      -7.419   1.225 124.298  0.00  0.00    +0.000 C 
ATOM      5  O   UNL     1      -6.403   0.954 124.910  0.00  0.00    +0.000 OA
ATOM      6  C   UNL     1      -7.450   2.154 123.169  0.00  0.00    +0.000 A 
ATOM      7  C   UNL     1      -6.412   2.899 122.639  0.00  0.00    +0.000 A 
ATOM      8  C   UNL     1      -6.696   3.703 121.533  0.00  0.00    +0.000 A 
ATOM      9  C   UNL     1      -7.994   3.746 120.986  0.00  0.00    +0.000 A 
ATOM     10  C   UNL     1      -9.029   2.984 121.536  0.00  0.00    +0.000 A 
ATOM     11  C   UNL     1      -8.728   2.193 122.628  0.00  0.00    +0.000 A 
ENDROOT
BRANCH   3  12
ATOM     12  C   UNL     1      -8.856  -0.827 124.520  0.00  0.00    +0.000 A 
ATOM     13  C   UNL     1      -8.728  -1.548 123.326  0.00  0.00    +0.000 A 
ATOM     14  C   UNL     1      -8.917  -2.930 123.320  0.00  0.00    +0.000 A 
ATOM     15  C   UNL     1      -9.145  -3.609 124.516  0.00  0.00    +0.000 A 
ATOM     16  C   UNL     1      -9.223  -2.908 125.715  0.00  0.00    +0.000 A 
ATOM     17  C   UNL     1      -9.084  -1.524 125.717  0.00  0.00    +0.000 A 
ENDBRANCH   3  12
TORSDOF 1
ENDMDL
MODEL 7
REMARK VINA RESULT:      -6.9      7.530      9.757
REMARK  Name = Phenindione
REMARK  1 active torsions:
REMARK  status: ('A' for Active; 'I' for Inactive)
REMARK    1  A    between atoms: C_3  and  C_12
REMARK                            x       y       z     vdW  Elec       q    Type
REMARK                         _______ _______ _______ _____ _____    ______ ____
ROOT
ATOM      1  O   UNL     1      -8.687   4.045 125.274  0.00  0.00    +0.000 OA
ATOM      2  C   UNL     1      -8.766   2.897 124.883  0.00  0.00    +0.000 C 
ATOM      3  C   UNL     1      -9.076   2.402 123.479  0.00  0.00    +0.000 C 
ATOM      4  C   UNL     1      -8.906   0.890 123.600  0.00  0.00    +0.000 C 
ATOM      5  O   UNL     1      -8.959   0.053 122.720  0.00  0.00    +0.000 OA
ATOM      6  C   UNL     1      -8.625   0.567 124.998  0.00  0.00    +0.000 A 
ATOM      7  C   UNL     1      -8.427  -0.677 125.570  0.00  0.00    +0.000 A 
ATOM      8  C   UNL     1      -8.148  -0.720 126.938  0.00  0.00    +0.000 A 
ATOM      9  C   UNL     1      -8.074   0.465 127.697  0.00  0.00    +0.000 A 
ATOM     10  C   UNL     1      -8.275   1.713 127.099  0.00  0.00    +0.000 A 
ATOM     11  C   UNL     1      -8.548   1.734 125.745  0.00  0.00    +0.000 A 
ENDROOT
BRANCH   3  12
ATOM     12  C   UNL     1      -8.172   2.992 122.428  0.00  0.00    +0.000 A 
ATOM     13  C   UNL     1      -8.709   3.561 121.265  0.00  0.00    +0.000 A 
ATOM     14  C   UNL     1      -7.864   3.955 120.228  0.00  0.00    +0.000 A 
ATOM     15  C   UNL     1      -6.481   3.869 120.380  0.00  0.00    +0.000 A 
ATOM     16  C   UNL     1      -5.937   3.354 121.553  0.00  0.00    +0.000 A 
ATOM     17  C   UNL     1      -6.778   2.913 122.570  0.00  0.00    +0.000 A 
ENDBRANCH   3  12
TORSDOF 1
ENDMDL
MODEL 8
REMARK VINA RESULT:      -6.8      9.330     10.293
REMARK  Name = Phenindione
REMARK  1 active torsions:
REMARK  status: ('A' for Active; 'I' for Inactive)
REMARK    1  A    between atoms: C_3  and  C_12
REMARK                            x       y       z     vdW  Elec       q    Type
REMARK                         _______ _______ _______ _____ _____    ______ ____
ROOT
ATOM      1  O   UNL     1      -9.423  -4.149 128.281  0.00  0.00    +0.000 OA
ATOM      2  C   UNL     1      -8.535  -3.363 128.014  0.00  0.00    +0.000 C 
ATOM      3  C   UNL     1      -7.771  -2.451 128.961  0.00  0.00    +0.000 C 
ATOM      4  C   UNL     1      -6.718  -1.816 128.056  0.00  0.00    +0.000 C 
ATOM      5  O   UNL     1      -5.804  -1.077 128.366  0.00  0.00    +0.000 OA
ATOM      6  C   UNL     1      -6.954  -2.267 126.685  0.00  0.00    +0.000 A 
ATOM      7  C   UNL     1      -6.263  -1.926 125.537  0.00  0.00    +0.000 A 
ATOM      8  C   UNL     1      -6.674  -2.516 124.339  0.00  0.00    +0.000 A 
ATOM      9  C   UNL     1      -7.752  -3.423 124.314  0.00  0.00    +0.000 A 
ATOM     10  C   UNL     1      -8.436  -3.756 125.487  0.00  0.00    +0.000 A 
ATOM     11  C   UNL     1      -8.014  -3.163 126.661  0.00  0.00    +0.000 A 
ENDROOT
BRANCH   3  12
ATOM     12  C   UNL     1      -7.151  -3.185 130.122  0.00  0.00    +0.000 A 
ATOM     13  C   UNL     1      -7.429  -2.798 131.440  0.00  0.00    +0.000 A 
ATOM     14  C   UNL     1      -6.729  -3.374 132.499  0.00  0.00    +0.000 A 
ATOM     15  C   UNL     1      -5.816  -4.400 132.258  0.00  0.00    +0.000 A 
ATOM     16  C   UNL     1      -5.571  -4.828 130.957  0.00  0.00    +0.000 A 
ATOM     17  C   UNL     1      -6.232  -4.221 129.894  0.00  0.00    +0.000 A 
ENDBRANCH   3  12
TORSDOF 1
ENDMDL
MODEL 9
REMARK VINA RESULT:      -6.7      9.287     11.365
REMARK  Name = Phenindione
REMARK  1 active torsions:
REMARK  status: ('A' for Active; 'I' for Inactive)
REMARK    1  A    between atoms: C_3  and  C_12
REMARK                            x       y       z     vdW  Elec       q    Type
REMARK                         _______ _______ _______ _____ _____    ______ ____
ROOT
ATOM      1  O   UNL     1      -5.345  -1.074 126.818  0.00  0.00    +0.000 OA
ATOM      2  C   UNL     1      -6.047  -1.733 127.560  0.00  0.00    +0.000 C 
ATOM      3  C   UNL     1      -7.563  -1.841 127.568  0.00  0.00    +0.000 C 
ATOM      4  C   UNL     1      -7.829  -2.903 128.632  0.00  0.00    +0.000 C 
ATOM      5  O   UNL     1      -8.890  -3.408 128.946  0.00  0.00    +0.000 OA
ATOM      6  C   UNL     1      -6.553  -3.277 129.241  0.00  0.00    +0.000 A 
ATOM      7  C   UNL     1      -6.319  -4.180 130.262  0.00  0.00    +0.000 A 
ATOM      8  C   UNL     1      -4.993  -4.379 130.654  0.00  0.00    +0.000 A 
ATOM      9  C   UNL     1      -3.942  -3.681 130.027  0.00  0.00    +0.000 A 
ATOM     10  C   UNL     1      -4.200  -2.774 128.995  0.00  0.00    +0.000 A 
ATOM     11  C   UNL     1      -5.517  -2.592 128.620  0.00  0.00    +0.000 A 
ENDROOT
BRANCH   3  12
ATOM     12  C   UNL     1      -8.139  -2.224 126.229  0.00  0.00    +0.000 A 
ATOM     13  C   UNL     1      -8.075  -3.550 125.779  0.00  0.00    +0.000 A 
ATOM     14  C   UNL     1      -8.462  -3.865 124.477  0.00  0.00    +0.000 A 
ATOM     15  C   UNL     1      -8.997  -2.879 123.649  0.00  0.00    +0.000 A 
ATOM     16  C   UNL     1      -9.113  -1.569 124.105  0.00  0.00    +0.000 A 
ATOM     17  C   UNL     1      -8.682  -1.243 125.386  0.00  0.00    +0.000 A 
ENDBRANCH   3  12
TORSDOF 1
ENDMDL
