MODEL 1
REMARK VINA RESULT:      -7.7      0.000      0.000
REMARK  Name = Phenytoin
REMARK  2 active torsions:
REMARK  status: ('A' for Active; 'I' for Inactive)
REMARK    1  A    between atoms: C_6  and  C_8
REMARK    2  A    between atoms: C_6  and  C_14
REMARK                            x       y       z     vdW  Elec       q    Type
REMARK                         _______ _______ _______ _____ _____    ______ ____
ROOT
ATOM      1  O   UNL     1      -8.241   1.120 123.455  0.00  0.00    +0.000 OA
ATOM      2  C   UNL     1      -8.302  -0.061 123.769  0.00  0.00    +0.000 C 
ATOM      3  N   UNL     1      -9.267  -0.926 123.404  0.00  0.00    +0.000 N 
ATOM      4  C   UNL     1      -9.006  -2.173 123.891  0.00  0.00    +0.000 C 
ATOM      5  O   UNL     1      -9.732  -3.139 123.695  0.00  0.00    +0.000 OA
ATOM      6  C   UNL     1      -7.689  -2.119 124.728  0.00  0.00    +0.000 C 
ATOM      7  N   UNL     1      -7.394  -0.707 124.561  0.00  0.00    +0.000 N 
ATOM      8  H   UNL     1     -10.068  -0.687 122.846  0.00  0.00    +0.000 HD
ATOM      9  H   UNL     1      -6.572  -0.241 124.917  0.00  0.00    +0.000 HD
ENDROOT
BRANCH   6  10
ATOM     10  C   UNL     1      -6.539  -2.947 124.156  0.00  0.00    +0.000 A 
ATOM     11  C   UNL     1      -6.419  -4.331 124.349  0.00  0.00    +0.000 A 
ATOM     12  C   UNL     1      -5.216  -4.974 124.058  0.00  0.00    +0.000 A 
ATOM     13  C   UNL     1      -4.145  -4.259 123.525  0.00  0.00    +0.000 A 
ATOM     14  C   UNL     1      -4.252  -2.890 123.308  0.00  0.00    +0.000 A 
ATOM     15  C   UNL     1      -5.449  -2.246 123.591  0.00  0.00    +0.000 A 
ENDBRANCH   6  10
BRANCH   6  16
ATOM     16  C   UNL     1      -8.003  -2.473 126.194  0.00  0.00    +0.000 A 
ATOM     17  C   UNL     1      -7.239  -1.966 127.269  0.00  0.00    +0.000 A 
ATOM     18  C   UNL     1      -7.382  -2.447 128.562  0.00  0.00    +0.000 A 
ATOM     19  C   UNL     1      -8.344  -3.408 128.826  0.00  0.00    +0.000 A 
ATOM     20  C   UNL     1      -9.154  -3.886 127.796  0.00  0.00    +0.000 A 
ATOM     21  C   UNL     1      -8.995  -3.419 126.493  0.00  0.00    +0.000 A 
ENDBRANCH   6  16
TORSDOF 2
ENDMDL
MODEL 2
REMARK VINA RESULT:      -7.6      1.617      4.577
REMARK  Name = Phenytoin
REMARK  2 active torsions:
REMARK  status: ('A' for Active; 'I' for Inactive)
REMARK    1  A    between atoms: C_6  and  C_8
REMARK    2  A    between atoms: C_6  and  C_14
REMARK                            x       y       z     vdW  Elec       q    Type
REMARK                         _______ _______ _______ _____ _____    ______ ____
ROOT
ATOM      1  O   UNL     1     -10.371   0.887 123.933  0.00  0.00    +0.000 OA
ATOM      2  C   UNL     1      -9.376   0.491 124.525  0.00  0.00    +0.000 C 
ATOM      3  N   UNL     1      -8.430   1.268 125.085  0.00  0.00    +0.000 N 
ATOM      4  C   UNL     1      -7.482   0.506 125.702  0.00  0.00    +0.000 C 
ATOM      5  O   UNL     1      -6.516   0.975 126.289  0.00  0.00    +0.000 OA
ATOM      6  C   UNL     1      -7.837  -1.001 125.492  0.00  0.00    +0.000 C 
ATOM      7  N   UNL     1      -9.048  -0.823 124.711  0.00  0.00    +0.000 N 
ATOM      8  H   UNL     1      -8.424   2.273 125.057  0.00  0.00    +0.000 HD
ATOM      9  H   UNL     1      -9.646  -1.571 124.392  0.00  0.00    +0.000 HD
ENDROOT
BRANCH   6  10
ATOM     10  C   UNL     1      -8.170  -1.759 126.778  0.00  0.00    +0.000 A 
ATOM     11  C   UNL     1      -7.660  -1.401 128.034  0.00  0.00    +0.000 A 
ATOM     12  C   UNL     1      -7.761  -2.288 129.106  0.00  0.00    +0.000 A 
ATOM     13  C   UNL     1      -8.413  -3.511 128.951  0.00  0.00    +0.000 A 
ATOM     14  C   UNL     1      -8.941  -3.873 127.717  0.00  0.00    +0.000 A 
ATOM     15  C   UNL     1      -8.849  -2.992 126.649  0.00  0.00    +0.000 A 
ENDBRANCH   6  10
BRANCH   6  16
ATOM     16  C   UNL     1      -6.719  -1.678 124.677  0.00  0.00    +0.000 A 
ATOM     17  C   UNL     1      -6.678  -1.617 123.266  0.00  0.00    +0.000 A 
ATOM     18  C   UNL     1      -5.803  -2.397 122.523  0.00  0.00    +0.000 A 
ATOM     19  C   UNL     1      -4.898  -3.214 123.180  0.00  0.00    +0.000 A 
ATOM     20  C   UNL     1      -4.876  -3.252 124.574  0.00  0.00    +0.000 A 
ATOM     21  C   UNL     1      -5.769  -2.485 125.320  0.00  0.00    +0.000 A 
ENDBRANCH   6  16
TORSDOF 2
ENDMDL
MODEL 3
REMARK VINA RESULT:      -7.5      1.831      2.295
REMARK  Name = Phenytoin
REMARK  2 active torsions:
REMARK  status: ('A' for Active; 'I' for Inactive)
REMARK    1  A    between atoms: C_6  and  C_8
REMARK    2  A    between atoms: C_6  and  C_14
REMARK                            x       y       z     vdW  Elec       q    Type
REMARK                         _______ _______ _______ _____ _____    ______ ____
ROOT
ATOM      1  O   UNL     1      -7.021   2.794 126.619  0.00  0.00    +0.000 OA
ATOM      2  C   UNL     1      -7.450   1.713 126.239  0.00  0.00    +0.000 C 
ATOM      3  N   UNL     1      -8.607   1.510 125.582  0.00  0.00    +0.000 N 
ATOM      4  C   UNL     1      -8.759   0.192 125.269  0.00  0.00    +0.000 C 
ATOM      5  O   UNL     1      -9.728  -0.251 124.667  0.00  0.00    +0.000 OA
ATOM      6  C   UNL     1      -7.536  -0.600 125.831  0.00  0.00    +0.000 C 
ATOM      7  N   UNL     1      -6.823   0.514 126.430  0.00  0.00    +0.000 N 
ATOM      8  H   UNL     1      -9.267   2.232 125.349  0.00  0.00    +0.000 HD
ATOM      9  H   UNL     1      -5.922   0.450 126.879  0.00  0.00    +0.000 HD
ENDROOT
BRANCH   6  10
ATOM     10  C   UNL     1      -6.656  -1.249 124.762  0.00  0.00    +0.000 A 
ATOM     11  C   UNL     1      -6.911  -1.140 123.388  0.00  0.00    +0.000 A 
ATOM     12  C   UNL     1      -6.256  -1.981 122.488  0.00  0.00    +0.000 A 
ATOM     13  C   UNL     1      -5.307  -2.897 122.941  0.00  0.00    +0.000 A 
ATOM     14  C   UNL     1      -5.027  -3.005 124.299  0.00  0.00    +0.000 A 
ATOM     15  C   UNL     1      -5.672  -2.167 125.197  0.00  0.00    +0.000 A 
ENDBRANCH   6  10
BRANCH   6  16
ATOM     16  C   UNL     1      -8.025  -1.608 126.888  0.00  0.00    +0.000 A 
ATOM     17  C   UNL     1      -7.675  -1.493 128.252  0.00  0.00    +0.000 A 
ATOM     18  C   UNL     1      -7.933  -2.507 129.164  0.00  0.00    +0.000 A 
ATOM     19  C   UNL     1      -8.608  -3.641 128.744  0.00  0.00    +0.000 A 
ATOM     20  C   UNL     1      -9.018  -3.759 127.416  0.00  0.00    +0.000 A 
ATOM     21  C   UNL     1      -8.740  -2.750 126.495  0.00  0.00    +0.000 A 
ENDBRANCH   6  16
TORSDOF 2
ENDMDL
MODEL 4
REMARK VINA RESULT:      -7.4      3.194      5.796
REMARK  Name = Phenytoin
REMARK  2 active torsions:
REMARK  status: ('A' for Active; 'I' for Inactive)
REMARK    1  A    between atoms: C_6  and  C_8
REMARK    2  A    between atoms: C_6  and  C_14
REMARK                            x       y       z     vdW  Elec       q    Type
REMARK                         _______ _______ _______ _____ _____    ______ ____
ROOT
ATOM      1  O   UNL     1     -11.028   0.639 122.544  0.00  0.00    +0.000 OA
ATOM      2  C   UNL     1     -10.082   1.072 123.188  0.00  0.00    +0.000 C 
ATOM      3  N   UNL     1     -10.164   1.820 124.305  0.00  0.00    +0.000 N 
ATOM      4  C   UNL     1      -8.921   2.094 124.793  0.00  0.00    +0.000 C 
ATOM      5  O   UNL     1      -8.725   2.757 125.804  0.00  0.00    +0.000 OA
ATOM      6  C   UNL     1      -7.857   1.460 123.842  0.00  0.00    +0.000 C 
ATOM      7  N   UNL     1      -8.766   0.874 122.874  0.00  0.00    +0.000 N 
ATOM      8  H   UNL     1     -11.023   2.131 124.723  0.00  0.00    +0.000 HD
ATOM      9  H   UNL     1      -8.487   0.310 122.085  0.00  0.00    +0.000 HD
ENDROOT
BRANCH   6  10
ATOM     10  C   UNL     1      -7.015   0.355 124.480  0.00  0.00    +0.000 A 
ATOM     11  C   UNL     1      -6.211   0.558 125.610  0.00  0.00    +0.000 A 
ATOM     12  C   UNL     1      -5.255  -0.394 125.966  0.00  0.00    +0.000 A 
ATOM     13  C   UNL     1      -5.127  -1.573 125.234  0.00  0.00    +0.000 A 
ATOM     14  C   UNL     1      -5.929  -1.800 124.121  0.00  0.00    +0.000 A 
ATOM     15  C   UNL     1      -6.885  -0.859 123.766  0.00  0.00    +0.000 A 
ENDBRANCH   6  10
BRANCH   6  16
ATOM     16  C   UNL     1      -6.998   2.578 123.223  0.00  0.00    +0.000 A 
ATOM     17  C   UNL     1      -6.692   2.613 121.844  0.00  0.00    +0.000 A 
ATOM     18  C   UNL     1      -5.750   3.489 121.322  0.00  0.00    +0.000 A 
ATOM     19  C   UNL     1      -5.134   4.401 122.162  0.00  0.00    +0.000 A 
ATOM     20  C   UNL     1      -5.458   4.430 123.519  0.00  0.00    +0.000 A 
ATOM     21  C   UNL     1      -6.388   3.536 124.046  0.00  0.00    +0.000 A 
ENDBRANCH   6  16
TORSDOF 2
ENDMDL
MODEL 5
REMARK VINA RESULT:      -7.3      1.750      2.103
REMARK  Name = Phenytoin
REMARK  2 active torsions:
REMARK  status: ('A' for Active; 'I' for Inactive)
REMARK    1  A    between atoms: C_6  and  C_8
REMARK    2  A    between atoms: C_6  and  C_14
REMARK                            x       y       z     vdW  Elec       q    Type
REMARK                         _______ _______ _______ _____ _____    ______ ____
ROOT
ATOM      1  O   UNL     1      -6.707   2.468 126.411  0.00  0.00    +0.000 OA
ATOM      2  C   UNL     1      -7.253   1.402 126.165  0.00  0.00    +0.000 C 
ATOM      3  N   UNL     1      -8.487   1.248 125.647  0.00  0.00    +0.000 N 
ATOM      4  C   UNL     1      -8.769  -0.072 125.457  0.00  0.00    +0.000 C 
ATOM      5  O   UNL     1      -9.827  -0.476 124.994  0.00  0.00    +0.000 OA
ATOM      6  C   UNL     1      -7.554  -0.921 125.952  0.00  0.00    +0.000 C 
ATOM      7  N   UNL     1      -6.700   0.171 126.385  0.00  0.00    +0.000 N 
ATOM      8  H   UNL     1      -9.112   2.003 125.426  0.00  0.00    +0.000 HD
ATOM      9  H   UNL     1      -5.762   0.066 126.743  0.00  0.00    +0.000 HD
ENDROOT
BRANCH   6  10
ATOM     10  C   UNL     1      -6.845  -1.713 124.854  0.00  0.00    +0.000 A 
ATOM     11  C   UNL     1      -5.800  -2.613 125.109  0.00  0.00    +0.000 A 
ATOM     12  C   UNL     1      -5.009  -3.078 124.059  0.00  0.00    +0.000 A 
ATOM     13  C   UNL     1      -5.281  -2.695 122.746  0.00  0.00    +0.000 A 
ATOM     14  C   UNL     1      -6.326  -1.819 122.473  0.00  0.00    +0.000 A 
ATOM     15  C   UNL     1      -7.120  -1.358 123.513  0.00  0.00    +0.000 A 
ENDBRANCH   6  10
BRANCH   6  16
ATOM     16  C   UNL     1      -7.999  -1.807 127.130  0.00  0.00    +0.000 A 
ATOM     17  C   UNL     1      -7.600  -1.543 128.460  0.00  0.00    +0.000 A 
ATOM     18  C   UNL     1      -7.819  -2.451 129.486  0.00  0.00    +0.000 A 
ATOM     19  C   UNL     1      -8.503  -3.624 129.219  0.00  0.00    +0.000 A 
ATOM     20  C   UNL     1      -8.961  -3.888 127.927  0.00  0.00    +0.000 A 
ATOM     21  C   UNL     1      -8.722  -2.985 126.892  0.00  0.00    +0.000 A 
ENDBRANCH   6  16
TORSDOF 2
ENDMDL
MODEL 6
REMARK VINA RESULT:      -7.2      1.829      4.924
REMARK  Name = Phenytoin
REMARK  2 active torsions:
REMARK  status: ('A' for Active; 'I' for Inactive)
REMARK    1  A    between atoms: C_6  and  C_8
REMARK    2  A    between atoms: C_6  and  C_14
REMARK                            x       y       z     vdW  Elec       q    Type
REMARK                         _______ _______ _______ _____ _____    ______ ____
ROOT
ATOM      1  O   UNL     1      -5.364  -3.740 123.940  0.00  0.00    +0.000 OA
ATOM      2  C   UNL     1      -6.395  -3.207 124.326  0.00  0.00    +0.000 C 
ATOM      3  N   UNL     1      -7.646  -3.563 123.978  0.00  0.00    +0.000 N 
ATOM      4  C   UNL     1      -8.565  -2.790 124.623  0.00  0.00    +0.000 C 
ATOM      5  O   UNL     1      -9.774  -2.917 124.480  0.00  0.00    +0.000 OA
ATOM      6  C   UNL     1      -7.810  -1.746 125.506  0.00  0.00    +0.000 C 
ATOM      7  N   UNL     1      -6.451  -2.141 125.180  0.00  0.00    +0.000 N 
ATOM      8  H   UNL     1      -7.872  -4.301 123.333  0.00  0.00    +0.000 HD
ATOM      9  H   UNL     1      -5.618  -1.739 125.584  0.00  0.00    +0.000 HD
ENDROOT
BRANCH   6  10
ATOM     10  C   UNL     1      -8.036  -1.906 127.010  0.00  0.00    +0.000 A 
ATOM     11  C   UNL     1      -7.574  -0.982 127.958  0.00  0.00    +0.000 A 
ATOM     12  C   UNL     1      -7.554  -1.322 129.311  0.00  0.00    +0.000 A 
ATOM     13  C   UNL     1      -8.038  -2.559 129.735  0.00  0.00    +0.000 A 
ATOM     14  C   UNL     1      -8.517  -3.480 128.810  0.00  0.00    +0.000 A 
ATOM     15  C   UNL     1      -8.546  -3.144 127.464  0.00  0.00    +0.000 A 
ENDBRANCH   6  10
BRANCH   6  16
ATOM     16  C   UNL     1      -8.134  -0.327 125.005  0.00  0.00    +0.000 A 
ATOM     17  C   UNL     1      -9.373   0.299 125.273  0.00  0.00    +0.000 A 
ATOM     18  C   UNL     1      -9.750   1.479 124.649  0.00  0.00    +0.000 A 
ATOM     19  C   UNL     1      -8.865   2.101 123.784  0.00  0.00    +0.000 A 
ATOM     20  C   UNL     1      -7.612   1.539 123.543  0.00  0.00    +0.000 A 
ATOM     21  C   UNL     1      -7.242   0.342 124.154  0.00  0.00    +0.000 A 
ENDBRANCH   6  16
TORSDOF 2
ENDMDL
MODEL 7
REMARK VINA RESULT:      -7.1      8.961     11.113
REMARK  Name = Phenytoin
REMARK  2 active torsions:
REMARK  status: ('A' for Active; 'I' for Inactive)
REMARK    1  A    between atoms: C_6  and  C_8
REMARK    2  A    between atoms: C_6  and  C_14
REMARK                            x       y       z     vdW  Elec       q    Type
REMARK                         _______ _______ _______ _____ _____    ______ ____
ROOT
ATOM      1  O   UNL     1      -7.046   4.696 128.400  0.00  0.00    +0.000 OA
ATOM      2  C   UNL     1      -8.028   4.694 129.130  0.00  0.00    +0.000 C 
ATOM      3  N   UNL     1      -9.036   3.803 129.093  0.00  0.00    +0.000 N 
ATOM      4  C   UNL     1      -9.947   4.066 130.073  0.00  0.00    +0.000 C 
ATOM      5  O   UNL     1     -10.957   3.397 130.253  0.00  0.00    +0.000 OA
ATOM      6  C   UNL     1      -9.490   5.339 130.854  0.00  0.00    +0.000 C 
ATOM      7  N   UNL     1      -8.273   5.614 130.111  0.00  0.00    +0.000 N 
ATOM      8  H   UNL     1      -9.107   3.045 128.437  0.00  0.00    +0.000 HD
ATOM      9  H   UNL     1      -7.620   6.353 130.323  0.00  0.00    +0.000 HD
ENDROOT
BRANCH   6  10
ATOM     10  C   UNL     1      -9.141   5.091 132.322  0.00  0.00    +0.000 A 
ATOM     11  C   UNL     1      -8.558   6.062 133.147  0.00  0.00    +0.000 A 
ATOM     12  C   UNL     1      -8.002   5.694 134.373  0.00  0.00    +0.000 A 
ATOM     13  C   UNL     1      -8.067   4.370 134.808  0.00  0.00    +0.000 A 
ATOM     14  C   UNL     1      -8.659   3.398 134.011  0.00  0.00    +0.000 A 
ATOM     15  C   UNL     1      -9.219   3.760 132.794  0.00  0.00    +0.000 A 
ENDBRANCH   6  10
BRANCH   6  16
ATOM     16  C   UNL     1     -10.540   6.451 130.674  0.00  0.00    +0.000 A 
ATOM     17  C   UNL     1     -11.697   6.528 131.482  0.00  0.00    +0.000 A 
ATOM     18  C   UNL     1     -12.742   7.392 131.187  0.00  0.00    +0.000 A 
ATOM     19  C   UNL     1     -12.628   8.250 130.107  0.00  0.00    +0.000 A 
ATOM     20  C   UNL     1     -11.474   8.238 129.323  0.00  0.00    +0.000 A 
ATOM     21  C   UNL     1     -10.433   7.355 129.607  0.00  0.00    +0.000 A 
ENDBRANCH   6  16
TORSDOF 2
ENDMDL
MODEL 8
REMARK VINA RESULT:      -6.8      4.398      6.291
REMARK  Name = Phenytoin
REMARK  2 active torsions:
REMARK  status: ('A' for Active; 'I' for Inactive)
REMARK    1  A    between atoms: C_6  and  C_8
REMARK    2  A    between atoms: C_6  and  C_14
REMARK                            x       y       z     vdW  Elec       q    Type
REMARK                         _______ _______ _______ _____ _____    ______ ____
ROOT
ATOM      1  O   UNL     1      -2.575  -3.754 129.111  0.00  0.00    +0.000 OA
ATOM      2  C   UNL     1      -3.601  -3.176 129.444  0.00  0.00    +0.000 C 
ATOM      3  N   UNL     1      -3.718  -1.858 129.695  0.00  0.00    +0.000 N 
ATOM      4  C   UNL     1      -5.008  -1.538 129.998  0.00  0.00    +0.000 C 
ATOM      5  O   UNL     1      -5.377  -0.402 130.263  0.00  0.00    +0.000 OA
ATOM      6  C   UNL     1      -5.867  -2.843 129.976  0.00  0.00    +0.000 C 
ATOM      7  N   UNL     1      -4.813  -3.780 129.630  0.00  0.00    +0.000 N 
ATOM      8  H   UNL     1      -2.960  -1.199 129.659  0.00  0.00    +0.000 HD
ATOM      9  H   UNL     1      -4.947  -4.766 129.462  0.00  0.00    +0.000 HD
ENDROOT
BRANCH   6  10
ATOM     10  C   UNL     1      -6.946  -2.873 128.894  0.00  0.00    +0.000 A 
ATOM     11  C   UNL     1      -8.090  -3.680 128.973  0.00  0.00    +0.000 A 
ATOM     12  C   UNL     1      -8.880  -3.882 127.841  0.00  0.00    +0.000 A 
ATOM     13  C   UNL     1      -8.569  -3.245 126.640  0.00  0.00    +0.000 A 
ATOM     14  C   UNL     1      -7.450  -2.426 126.549  0.00  0.00    +0.000 A 
ATOM     15  C   UNL     1      -6.664  -2.217 127.674  0.00  0.00    +0.000 A 
ENDBRANCH   6  10
BRANCH   6  16
ATOM     16  C   UNL     1      -6.431  -3.104 131.385  0.00  0.00    +0.000 A 
ATOM     17  C   UNL     1      -7.357  -2.229 131.996  0.00  0.00    +0.000 A 
ATOM     18  C   UNL     1      -7.701  -2.344 133.335  0.00  0.00    +0.000 A 
ATOM     19  C   UNL     1      -7.174  -3.382 134.085  0.00  0.00    +0.000 A 
ATOM     20  C   UNL     1      -6.302  -4.297 133.494  0.00  0.00    +0.000 A 
ATOM     21  C   UNL     1      -5.940  -4.169 132.155  0.00  0.00    +0.000 A 
ENDBRANCH   6  16
TORSDOF 2
ENDMDL
MODEL 9
REMARK VINA RESULT:      -6.8      8.253     10.174
REMARK  Name = Phenytoin
REMARK  2 active torsions:
REMARK  status: ('A' for Active; 'I' for Inactive)
REMARK    1  A    between atoms: C_6  and  C_8
REMARK    2  A    between atoms: C_6  and  C_14
REMARK                            x       y       z     vdW  Elec       q    Type
REMARK                         _______ _______ _______ _____ _____    ______ ____
ROOT
ATOM      1  O   UNL     1     -12.401   6.569 131.848  0.00  0.00    +0.000 OA
ATOM      2  C   UNL     1     -11.393   6.100 131.338  0.00  0.00    +0.000 C 
ATOM      3  N   UNL     1     -11.055   6.186 130.038  0.00  0.00    +0.000 N 
ATOM      4  C   UNL     1      -9.847   5.593 129.814  0.00  0.00    +0.000 C 
ATOM      5  O   UNL     1      -9.315   5.540 128.713  0.00  0.00    +0.000 OA
ATOM      6  C   UNL     1      -9.323   4.999 131.160  0.00  0.00    +0.000 C 
ATOM      7  N   UNL     1     -10.434   5.393 132.008  0.00  0.00    +0.000 N 
ATOM      8  H   UNL     1     -11.613   6.629 129.329  0.00  0.00    +0.000 HD
ATOM      9  H   UNL     1     -10.484   5.241 133.004  0.00  0.00    +0.000 HD
ENDROOT
BRANCH   6  10
ATOM     10  C   UNL     1      -8.037   5.643 131.679  0.00  0.00    +0.000 A 
ATOM     11  C   UNL     1      -7.253   6.517 130.913  0.00  0.00    +0.000 A 
ATOM     12  C   UNL     1      -5.960   6.838 131.326  0.00  0.00    +0.000 A 
ATOM     13  C   UNL     1      -5.457   6.334 132.526  0.00  0.00    +0.000 A 
ATOM     14  C   UNL     1      -6.228   5.481 133.307  0.00  0.00    +0.000 A 
ATOM     15  C   UNL     1      -7.517   5.164 132.904  0.00  0.00    +0.000 A 
ENDBRANCH   6  10
BRANCH   6  16
ATOM     16  C   UNL     1      -9.210   3.469 131.031  0.00  0.00    +0.000 A 
ATOM     17  C   UNL     1      -9.954   2.590 131.850  0.00  0.00    +0.000 A 
ATOM     18  C   UNL     1      -9.700   1.226 131.884  0.00  0.00    +0.000 A 
ATOM     19  C   UNL     1      -8.731   0.696 131.049  0.00  0.00    +0.000 A 
ATOM     20  C   UNL     1      -8.019   1.530 130.187  0.00  0.00    +0.000 A 
ATOM     21  C   UNL     1      -8.260   2.903 130.168  0.00  0.00    +0.000 A 
ENDBRANCH   6  16
TORSDOF 2
ENDMDL
