MODEL 1
REMARK VINA RESULT:      -6.5      0.000      0.000
REMARK  Name = Phenazopyridine
REMARK  3 active torsions:
REMARK  status: ('A' for Active; 'I' for Inactive)
REMARK    1  A    between atoms: C_4  and  N_5
REMARK    2  A    between atoms: C_6  and  N_9
REMARK    3  A    between atoms: N_10  and  C_11
REMARK                            x       y       z     vdW  Elec       q    Type
REMARK                         _______ _______ _______ _____ _____    ______ ____
ROOT
ATOM      1  N   UNL     1     -13.124   9.803 128.778  0.00  0.00    +0.000 N 
ATOM      2  C   UNL     1     -12.300   8.713 129.071  0.00  0.00    +0.000 A 
ATOM      3  N   UNL     1     -12.466   8.097 130.261  0.00  0.00    +0.000 NA
ATOM      4  C   UNL     1     -11.738   6.972 130.510  0.00  0.00    +0.000 A 
ATOM      5  C   UNL     1     -10.763   6.457 129.632  0.00  0.00    +0.000 A 
ATOM      6  C   UNL     1     -10.603   7.147 128.423  0.00  0.00    +0.000 A 
ATOM      7  C   UNL     1     -11.434   8.229 128.114  0.00  0.00    +0.000 A 
ATOM      8  H   UNL     1     -13.502  10.205 129.626  0.00  0.00    +0.000 HD
ATOM      9  H   UNL     1     -12.755  10.475 128.117  0.00  0.00    +0.000 HD
ENDROOT
BRANCH   4  10
ATOM     10  N   UNL     1     -11.939   6.395 131.774  0.00  0.00    +0.000 N 
ATOM     11  H   UNL     1     -11.870   7.072 132.517  0.00  0.00    +0.000 HD
ATOM     12  H   UNL     1     -12.765   5.800 131.783  0.00  0.00    +0.000 HD
ENDBRANCH   4  10
BRANCH   5  13
ATOM     13  N   UNL     1      -9.968   5.282 129.829  0.00  0.00    +0.000 NA
ATOM     14  N   UNL     1     -10.617   4.306 130.273  0.00  0.00    +0.000 NA
BRANCH  14  15
ATOM     15  C   UNL     1      -9.871   3.114 130.373  0.00  0.00    +0.000 A 
ATOM     16  C   UNL     1      -9.994   2.357 131.548  0.00  0.00    +0.000 A 
ATOM     17  C   UNL     1      -9.380   1.107 131.667  0.00  0.00    +0.000 A 
ATOM     18  C   UNL     1      -8.497   0.675 130.681  0.00  0.00    +0.000 A 
ATOM     19  C   UNL     1      -8.267   1.474 129.562  0.00  0.00    +0.000 A 
ATOM     20  C   UNL     1      -8.985   2.663 129.389  0.00  0.00    +0.000 A 
ENDBRANCH  14  15
ENDBRANCH   5  13
TORSDOF 3
ENDMDL
MODEL 2
REMARK VINA RESULT:      -6.4      3.232      6.232
REMARK  Name = Phenazopyridine
REMARK  3 active torsions:
REMARK  status: ('A' for Active; 'I' for Inactive)
REMARK    1  A    between atoms: C_4  and  N_5
REMARK    2  A    between atoms: C_6  and  N_9
REMARK    3  A    between atoms: N_10  and  C_11
REMARK                            x       y       z     vdW  Elec       q    Type
REMARK                         _______ _______ _______ _____ _____    ______ ____
ROOT
ATOM      1  N   UNL     1      -5.809   4.929 133.709  0.00  0.00    +0.000 N 
ATOM      2  C   UNL     1      -6.819   5.434 132.886  0.00  0.00    +0.000 A 
ATOM      3  N   UNL     1      -8.100   5.199 133.242  0.00  0.00    +0.000 NA
ATOM      4  C   UNL     1      -9.089   5.775 132.502  0.00  0.00    +0.000 A 
ATOM      5  C   UNL     1      -8.858   6.536 131.338  0.00  0.00    +0.000 A 
ATOM      6  C   UNL     1      -7.515   6.726 130.989  0.00  0.00    +0.000 A 
ATOM      7  C   UNL     1      -6.496   6.239 131.815  0.00  0.00    +0.000 A 
ATOM      8  H   UNL     1      -6.154   4.166 134.275  0.00  0.00    +0.000 HD
ATOM      9  H   UNL     1      -4.916   4.756 133.263  0.00  0.00    +0.000 HD
ENDROOT
BRANCH   4  10
ATOM     10  N   UNL     1     -10.398   5.472 132.910  0.00  0.00    +0.000 N 
ATOM     11  H   UNL     1     -10.657   5.961 133.752  0.00  0.00    +0.000 HD
ATOM     12  H   UNL     1     -11.054   5.536 132.133  0.00  0.00    +0.000 HD
ENDBRANCH   4  10
BRANCH   5  13
ATOM     13  N   UNL     1      -9.848   7.169 130.518  0.00  0.00    +0.000 NA
ATOM     14  N   UNL     1     -10.770   6.400 130.163  0.00  0.00    +0.000 NA
BRANCH  14  15
ATOM     15  C   UNL     1     -11.805   7.034 129.444  0.00  0.00    +0.000 A 
ATOM     16  C   UNL     1     -11.830   8.437 129.424  0.00  0.00    +0.000 A 
ATOM     17  C   UNL     1     -12.754   9.128 128.635  0.00  0.00    +0.000 A 
ATOM     18  C   UNL     1     -13.771   8.431 127.991  0.00  0.00    +0.000 A 
ATOM     19  C   UNL     1     -13.836   7.043 128.103  0.00  0.00    +0.000 A 
ATOM     20  C   UNL     1     -12.832   6.347 128.787  0.00  0.00    +0.000 A 
ENDBRANCH  14  15
ENDBRANCH   5  13
TORSDOF 3
ENDMDL
MODEL 3
REMARK VINA RESULT:      -6.3      3.589      3.923
REMARK  Name = Phenazopyridine
REMARK  3 active torsions:
REMARK  status: ('A' for Active; 'I' for Inactive)
REMARK    1  A    between atoms: C_4  and  N_5
REMARK    2  A    between atoms: C_6  and  N_9
REMARK    3  A    between atoms: N_10  and  C_11
REMARK                            x       y       z     vdW  Elec       q    Type
REMARK                         _______ _______ _______ _____ _____    ______ ____
ROOT
ATOM      1  N   UNL     1     -13.611   8.214 128.007  0.00  0.00    +0.000 N 
ATOM      2  C   UNL     1     -12.496   7.926 128.798  0.00  0.00    +0.000 A 
ATOM      3  N   UNL     1     -12.696   7.241 129.945  0.00  0.00    +0.000 NA
ATOM      4  C   UNL     1     -11.602   6.868 130.669  0.00  0.00    +0.000 A 
ATOM      5  C   UNL     1     -10.279   7.222 130.334  0.00  0.00    +0.000 A 
ATOM      6  C   UNL     1     -10.125   7.960 129.153  0.00  0.00    +0.000 A 
ATOM      7  C   UNL     1     -11.233   8.239 128.346  0.00  0.00    +0.000 A 
ATOM      8  H   UNL     1     -14.461   8.176 128.556  0.00  0.00    +0.000 HD
ATOM      9  H   UNL     1     -13.532   9.023 127.404  0.00  0.00    +0.000 HD
ENDROOT
BRANCH   4  10
ATOM     10  N   UNL     1     -11.878   6.180 131.861  0.00  0.00    +0.000 N 
ATOM     11  H   UNL     1     -11.465   5.261 131.876  0.00  0.00    +0.000 HD
ATOM     12  H   UNL     1     -11.702   6.765 132.676  0.00  0.00    +0.000 HD
ENDBRANCH   4  10
BRANCH   5  13
ATOM     13  N   UNL     1      -9.090   6.861 131.046  0.00  0.00    +0.000 NA
ATOM     14  N   UNL     1      -8.035   7.117 130.421  0.00  0.00    +0.000 NA
BRANCH  14  15
ATOM     15  C   UNL     1      -6.855   6.865 131.151  0.00  0.00    +0.000 A 
ATOM     16  C   UNL     1      -6.970   6.189 132.376  0.00  0.00    +0.000 A 
ATOM     17  C   UNL     1      -5.835   5.801 133.093  0.00  0.00    +0.000 A 
ATOM     18  C   UNL     1      -4.577   6.231 132.680  0.00  0.00    +0.000 A 
ATOM     19  C   UNL     1      -4.456   7.010 131.531  0.00  0.00    +0.000 A 
ATOM     20  C   UNL     1      -5.584   7.286 130.748  0.00  0.00    +0.000 A 
ENDBRANCH  14  15
ENDBRANCH   5  13
TORSDOF 3
ENDMDL
MODEL 4
REMARK VINA RESULT:      -6.3      7.174      7.835
REMARK  Name = Phenazopyridine
REMARK  3 active torsions:
REMARK  status: ('A' for Active; 'I' for Inactive)
REMARK    1  A    between atoms: C_4  and  N_5
REMARK    2  A    between atoms: C_6  and  N_9
REMARK    3  A    between atoms: N_10  and  C_11
REMARK                            x       y       z     vdW  Elec       q    Type
REMARK                         _______ _______ _______ _____ _____    ______ ____
ROOT
ATOM      1  N   UNL     1      -7.723   3.890 121.083  0.00  0.00    +0.000 N 
ATOM      2  C   UNL     1      -7.845   3.088 122.221  0.00  0.00    +0.000 A 
ATOM      3  N   UNL     1      -9.089   2.789 122.653  0.00  0.00    +0.000 NA
ATOM      4  C   UNL     1      -9.214   1.924 123.699  0.00  0.00    +0.000 A 
ATOM      5  C   UNL     1      -8.123   1.385 124.410  0.00  0.00    +0.000 A 
ATOM      6  C   UNL     1      -6.852   1.750 123.945  0.00  0.00    +0.000 A 
ATOM      7  C   UNL     1      -6.720   2.538 122.797  0.00  0.00    +0.000 A 
ATOM      8  H   UNL     1      -8.568   4.424 120.927  0.00  0.00    +0.000 HD
ATOM      9  H   UNL     1      -6.865   4.420 121.001  0.00  0.00    +0.000 HD
ENDROOT
BRANCH   4  10
ATOM     10  N   UNL     1     -10.532   1.673 124.115  0.00  0.00    +0.000 N 
ATOM     11  H   UNL     1     -11.103   1.306 123.370  0.00  0.00    +0.000 HD
ATOM     12  H   UNL     1     -10.553   1.158 124.993  0.00  0.00    +0.000 HD
ENDBRANCH   4  10
BRANCH   5  13
ATOM     13  N   UNL     1      -8.185   0.473 125.512  0.00  0.00    +0.000 NA
ATOM     14  N   UNL     1      -8.525  -0.687 125.184  0.00  0.00    +0.000 NA
BRANCH  14  15
ATOM     15  C   UNL     1      -8.488  -1.621 126.240  0.00  0.00    +0.000 A 
ATOM     16  C   UNL     1      -7.717  -1.308 127.370  0.00  0.00    +0.000 A 
ATOM     17  C   UNL     1      -7.732  -2.129 128.501  0.00  0.00    +0.000 A 
ATOM     18  C   UNL     1      -8.381  -3.359 128.453  0.00  0.00    +0.000 A 
ATOM     19  C   UNL     1      -9.050  -3.742 127.291  0.00  0.00    +0.000 A 
ATOM     20  C   UNL     1      -9.140  -2.858 126.209  0.00  0.00    +0.000 A 
ENDBRANCH  14  15
ENDBRANCH   5  13
TORSDOF 3
ENDMDL
MODEL 5
REMARK VINA RESULT:      -6.3      2.023      6.442
REMARK  Name = Phenazopyridine
REMARK  3 active torsions:
REMARK  status: ('A' for Active; 'I' for Inactive)
REMARK    1  A    between atoms: C_4  and  N_5
REMARK    2  A    between atoms: C_6  and  N_9
REMARK    3  A    between atoms: N_10  and  C_11
REMARK                            x       y       z     vdW  Elec       q    Type
REMARK                         _______ _______ _______ _____ _____    ______ ____
ROOT
ATOM      1  N   UNL     1      -7.953   1.315 132.705  0.00  0.00    +0.000 N 
ATOM      2  C   UNL     1      -8.666   2.303 132.021  0.00  0.00    +0.000 A 
ATOM      3  N   UNL     1      -9.102   3.369 132.725  0.00  0.00    +0.000 NA
ATOM      4  C   UNL     1      -9.708   4.384 132.046  0.00  0.00    +0.000 A 
ATOM      5  C   UNL     1      -9.979   4.352 130.663  0.00  0.00    +0.000 A 
ATOM      6  C   UNL     1      -9.537   3.212 129.980  0.00  0.00    +0.000 A 
ATOM      7  C   UNL     1      -8.807   2.225 130.652  0.00  0.00    +0.000 A 
ATOM      8  H   UNL     1      -8.147   1.353 133.697  0.00  0.00    +0.000 HD
ATOM      9  H   UNL     1      -7.980   0.387 132.302  0.00  0.00    +0.000 HD
ENDROOT
BRANCH   4  10
ATOM     10  N   UNL     1     -10.159   5.451 132.839  0.00  0.00    +0.000 N 
ATOM     11  H   UNL     1      -9.402   6.038 133.155  0.00  0.00    +0.000 HD
ATOM     12  H   UNL     1     -10.946   5.929 132.405  0.00  0.00    +0.000 HD
ENDBRANCH   4  10
BRANCH   5  13
ATOM     13  N   UNL     1     -10.607   5.382 129.890  0.00  0.00    +0.000 NA
ATOM     14  N   UNL     1     -11.727   5.728 130.331  0.00  0.00    +0.000 NA
BRANCH  14  15
ATOM     15  C   UNL     1     -12.309   6.812 129.643  0.00  0.00    +0.000 A 
ATOM     16  C   UNL     1     -13.123   6.528 128.535  0.00  0.00    +0.000 A 
ATOM     17  C   UNL     1     -13.827   7.543 127.881  0.00  0.00    +0.000 A 
ATOM     18  C   UNL     1     -13.594   8.872 128.218  0.00  0.00    +0.000 A 
ATOM     19  C   UNL     1     -12.693   9.180 129.235  0.00  0.00    +0.000 A 
ATOM     20  C   UNL     1     -12.090   8.154 129.972  0.00  0.00    +0.000 A 
ENDBRANCH  14  15
ENDBRANCH   5  13
TORSDOF 3
ENDMDL
MODEL 6
REMARK VINA RESULT:      -6.2      8.546      9.711
REMARK  Name = Phenazopyridine
REMARK  3 active torsions:
REMARK  status: ('A' for Active; 'I' for Inactive)
REMARK    1  A    between atoms: C_4  and  N_5
REMARK    2  A    between atoms: C_6  and  N_9
REMARK    3  A    between atoms: N_10  and  C_11
REMARK                            x       y       z     vdW  Elec       q    Type
REMARK                         _______ _______ _______ _____ _____    ______ ____
ROOT
ATOM      1  N   UNL     1      -5.779   6.472 117.836  0.00  0.00    +0.000 N 
ATOM      2  C   UNL     1      -5.958   5.571 118.889  0.00  0.00    +0.000 A 
ATOM      3  N   UNL     1      -5.056   5.587 119.895  0.00  0.00    +0.000 NA
ATOM      4  C   UNL     1      -5.281   4.784 120.973  0.00  0.00    +0.000 A 
ATOM      5  C   UNL     1      -6.356   3.877 121.067  0.00  0.00    +0.000 A 
ATOM      6  C   UNL     1      -7.248   3.873 119.986  0.00  0.00    +0.000 A 
ATOM      7  C   UNL     1      -7.087   4.782 118.935  0.00  0.00    +0.000 A 
ATOM      8  H   UNL     1      -4.817   6.783 117.789  0.00  0.00    +0.000 HD
ATOM      9  H   UNL     1      -6.182   6.203 116.947  0.00  0.00    +0.000 HD
ENDROOT
BRANCH   4  10
ATOM     10  N   UNL     1      -4.295   4.830 121.971  0.00  0.00    +0.000 N 
ATOM     11  H   UNL     1      -3.547   5.464 121.738  0.00  0.00    +0.000 HD
ATOM     12  H   UNL     1      -4.707   4.942 122.896  0.00  0.00    +0.000 HD
ENDBRANCH   4  10
BRANCH   5  13
ATOM     13  N   UNL     1      -6.652   3.011 122.168  0.00  0.00    +0.000 NA
ATOM     14  N   UNL     1      -7.876   2.910 122.412  0.00  0.00    +0.000 NA
BRANCH  14  15
ATOM     15  C   UNL     1      -8.189   1.980 123.425  0.00  0.00    +0.000 A 
ATOM     16  C   UNL     1      -7.271   0.950 123.680  0.00  0.00    +0.000 A 
ATOM     17  C   UNL     1      -7.459   0.066 124.747  0.00  0.00    +0.000 A 
ATOM     18  C   UNL     1      -8.650   0.095 125.465  0.00  0.00    +0.000 A 
ATOM     19  C   UNL     1      -9.629   1.034 125.143  0.00  0.00    +0.000 A 
ATOM     20  C   UNL     1      -9.380   1.999 124.160  0.00  0.00    +0.000 A 
ENDBRANCH  14  15
ENDBRANCH   5  13
TORSDOF 3
ENDMDL
MODEL 7
REMARK VINA RESULT:      -5.9      3.081      6.670
REMARK  Name = Phenazopyridine
REMARK  3 active torsions:
REMARK  status: ('A' for Active; 'I' for Inactive)
REMARK    1  A    between atoms: C_4  and  N_5
REMARK    2  A    between atoms: C_6  and  N_9
REMARK    3  A    between atoms: N_10  and  C_11
REMARK                            x       y       z     vdW  Elec       q    Type
REMARK                         _______ _______ _______ _____ _____    ______ ____
ROOT
ATOM      1  N   UNL     1      -6.284   3.079 134.491  0.00  0.00    +0.000 N 
ATOM      2  C   UNL     1      -7.142   3.986 133.862  0.00  0.00    +0.000 A 
ATOM      3  N   UNL     1      -6.591   4.931 133.070  0.00  0.00    +0.000 NA
ATOM      4  C   UNL     1      -7.427   5.753 132.373  0.00  0.00    +0.000 A 
ATOM      5  C   UNL     1      -8.831   5.729 132.491  0.00  0.00    +0.000 A 
ATOM      6  C   UNL     1      -9.355   4.753 133.349  0.00  0.00    +0.000 A 
ATOM      7  C   UNL     1      -8.506   3.830 133.970  0.00  0.00    +0.000 A 
ATOM      8  H   UNL     1      -5.346   3.453 134.548  0.00  0.00    +0.000 HD
ATOM      9  H   UNL     1      -6.628   2.662 135.347  0.00  0.00    +0.000 HD
ENDROOT
BRANCH   4  10
ATOM     10  N   UNL     1      -6.791   6.728 131.588  0.00  0.00    +0.000 N 
ATOM     11  H   UNL     1      -6.446   7.497 132.141  0.00  0.00    +0.000 HD
ATOM     12  H   UNL     1      -6.128   6.308 130.939  0.00  0.00    +0.000 HD
ENDBRANCH   4  10
BRANCH   5  13
ATOM     13  N   UNL     1      -9.763   6.559 131.789  0.00  0.00    +0.000 NA
ATOM     14  N   UNL     1      -9.577   6.585 130.551  0.00  0.00    +0.000 NA
BRANCH  14  15
ATOM     15  C   UNL     1     -10.550   7.312 129.835  0.00  0.00    +0.000 A 
ATOM     16  C   UNL     1     -11.796   7.525 130.446  0.00  0.00    +0.000 A 
ATOM     17  C   UNL     1     -12.762   8.337 129.846  0.00  0.00    +0.000 A 
ATOM     18  C   UNL     1     -12.562   8.808 128.552  0.00  0.00    +0.000 A 
ATOM     19  C   UNL     1     -11.379   8.501 127.881  0.00  0.00    +0.000 A 
ATOM     20  C   UNL     1     -10.362   7.796 128.536  0.00  0.00    +0.000 A 
ENDBRANCH  14  15
ENDBRANCH   5  13
TORSDOF 3
ENDMDL
MODEL 8
REMARK VINA RESULT:      -5.9      3.083      3.804
REMARK  Name = Phenazopyridine
REMARK  3 active torsions:
REMARK  status: ('A' for Active; 'I' for Inactive)
REMARK    1  A    between atoms: C_4  and  N_5
REMARK    2  A    between atoms: C_6  and  N_9
REMARK    3  A    between atoms: N_10  and  C_11
REMARK                            x       y       z     vdW  Elec       q    Type
REMARK                         _______ _______ _______ _____ _____    ______ ____
ROOT
ATOM      1  N   UNL     1     -13.680   7.246 128.112  0.00  0.00    +0.000 N 
ATOM      2  C   UNL     1     -12.799   6.935 129.151  0.00  0.00    +0.000 A 
ATOM      3  N   UNL     1     -11.605   6.393 128.825  0.00  0.00    +0.000 NA
ATOM      4  C   UNL     1     -10.701   6.183 129.824  0.00  0.00    +0.000 A 
ATOM      5  C   UNL     1     -10.967   6.422 131.188  0.00  0.00    +0.000 A 
ATOM      6  C   UNL     1     -12.230   6.953 131.480  0.00  0.00    +0.000 A 
ATOM      7  C   UNL     1     -13.113   7.284 130.446  0.00  0.00    +0.000 A 
ATOM      8  H   UNL     1     -13.457   6.715 127.280  0.00  0.00    +0.000 HD
ATOM      9  H   UNL     1     -14.663   7.264 128.352  0.00  0.00    +0.000 HD
ENDROOT
BRANCH   4  10
ATOM     10  N   UNL     1      -9.490   5.596 129.423  0.00  0.00    +0.000 N 
ATOM     11  H   UNL     1      -9.227   4.824 130.015  0.00  0.00    +0.000 HD
ATOM     12  H   UNL     1      -9.478   5.418 128.421  0.00  0.00    +0.000 HD
ENDBRANCH   4  10
BRANCH   5  13
ATOM     13  N   UNL     1     -10.064   6.226 132.283  0.00  0.00    +0.000 NA
ATOM     14  N   UNL     1      -9.612   5.061 132.357  0.00  0.00    +0.000 NA
BRANCH  14  15
ATOM     15  C   UNL     1      -8.643   4.881 133.365  0.00  0.00    +0.000 A 
ATOM     16  C   UNL     1      -8.093   3.600 133.530  0.00  0.00    +0.000 A 
ATOM     17  C   UNL     1      -7.044   3.377 134.426  0.00  0.00    +0.000 A 
ATOM     18  C   UNL     1      -6.647   4.392 135.291  0.00  0.00    +0.000 A 
ATOM     19  C   UNL     1      -7.270   5.637 135.226  0.00  0.00    +0.000 A 
ATOM     20  C   UNL     1      -8.229   5.892 134.239  0.00  0.00    +0.000 A 
ENDBRANCH  14  15
ENDBRANCH   5  13
TORSDOF 3
ENDMDL
MODEL 9
REMARK VINA RESULT:      -5.8      7.240      7.718
REMARK  Name = Phenazopyridine
REMARK  3 active torsions:
REMARK  status: ('A' for Active; 'I' for Inactive)
REMARK    1  A    between atoms: C_4  and  N_5
REMARK    2  A    between atoms: C_6  and  N_9
REMARK    3  A    between atoms: N_10  and  C_11
REMARK                            x       y       z     vdW  Elec       q    Type
REMARK                         _______ _______ _______ _____ _____    ______ ____
ROOT
ATOM      1  N   UNL     1      -8.558   3.675 121.471  0.00  0.00    +0.000 N 
ATOM      2  C   UNL     1      -8.619   2.715 122.485  0.00  0.00    +0.000 A 
ATOM      3  N   UNL     1      -7.667   2.746 123.443  0.00  0.00    +0.000 NA
ATOM      4  C   UNL     1      -7.780   1.879 124.489  0.00  0.00    +0.000 A 
ATOM      5  C   UNL     1      -8.786   0.897 124.592  0.00  0.00    +0.000 A 
ATOM      6  C   UNL     1      -9.732   0.882 123.558  0.00  0.00    +0.000 A 
ATOM      7  C   UNL     1      -9.689   1.849 122.548  0.00  0.00    +0.000 A 
ATOM      8  H   UNL     1      -7.623   4.053 121.391  0.00  0.00    +0.000 HD
ATOM      9  H   UNL     1      -8.990   3.421 120.592  0.00  0.00    +0.000 HD
ENDROOT
BRANCH   4  10
ATOM     10  N   UNL     1      -6.746   1.946 125.437  0.00  0.00    +0.000 N 
ATOM     11  H   UNL     1      -6.424   1.032 125.714  0.00  0.00    +0.000 HD
ATOM     12  H   UNL     1      -6.028   2.610 125.156  0.00  0.00    +0.000 HD
ENDBRANCH   4  10
BRANCH   5  13
ATOM     13  N   UNL     1      -8.963  -0.039 125.661  0.00  0.00    +0.000 NA
ATOM     14  N   UNL     1      -8.121  -0.966 125.660  0.00  0.00    +0.000 NA
BRANCH  14  15
ATOM     15  C   UNL     1      -8.218  -1.836 126.766  0.00  0.00    +0.000 A 
ATOM     16  C   UNL     1      -7.624  -1.435 127.973  0.00  0.00    +0.000 A 
ATOM     17  C   UNL     1      -7.784  -2.191 129.138  0.00  0.00    +0.000 A 
ATOM     18  C   UNL     1      -8.394  -3.440 129.073  0.00  0.00    +0.000 A 
ATOM     19  C   UNL     1      -8.879  -3.909 127.854  0.00  0.00    +0.000 A 
ATOM     20  C   UNL     1      -8.832  -3.092 126.718  0.00  0.00    +0.000 A 
ENDBRANCH  14  15
ENDBRANCH   5  13
TORSDOF 3
ENDMDL
