MODEL 1
REMARK VINA RESULT:      -5.6      0.000      0.000
REMARK  Name = Phenylpropanolamine
REMARK  5 active torsions:
REMARK  status: ('A' for Active; 'I' for Inactive)
REMARK    1  A    between atoms: C_1  and  C_2
REMARK    2  A    between atoms: C_2  and  N_3
REMARK    3  A    between atoms: C_2  and  C_4
REMARK    4  A    between atoms: C_4  and  O_5
REMARK    5  A    between atoms: C_4  and  C_6
REMARK                            x       y       z     vdW  Elec       q    Type
REMARK                         _______ _______ _______ _____ _____    ______ ____
ROOT
ATOM      1  C   UNL     1     -11.459   8.030 128.412  0.00  0.00    +0.000 C 
ENDROOT
BRANCH   1   2
ATOM      2  C   UNL     1     -10.931   7.436 129.708  0.00  0.00    +0.000 A 
ATOM      3  C   UNL     1      -9.561   7.285 129.970  0.00  0.00    +0.000 A 
ATOM      4  C   UNL     1      -9.130   6.669 131.147  0.00  0.00    +0.000 A 
ATOM      5  C   UNL     1     -10.050   6.252 132.103  0.00  0.00    +0.000 A 
ATOM      6  C   UNL     1     -11.412   6.427 131.878  0.00  0.00    +0.000 A 
ATOM      7  C   UNL     1     -11.843   6.992 130.680  0.00  0.00    +0.000 A 
ENDBRANCH   1   2
BRANCH   1   9
ATOM      8  C   UNL     1     -13.848   7.633 127.641  0.00  0.00    +0.000 C 
ATOM      9  C   UNL     1     -12.423   7.072 127.637  0.00  0.00    +0.000 C 
BRANCH   9  10
ATOM     10  N   UNL     1     -12.034   6.834 126.238  0.00  0.00    +0.000 NA
ATOM     11  H   UNL     1     -12.498   5.997 125.889  0.00  0.00    +0.000 HD
ATOM     12  H   UNL     1     -11.032   6.670 126.167  0.00  0.00    +0.000 HD
ENDBRANCH   9  10
ENDBRANCH   1   9
BRANCH   1  13
ATOM     13  O   UNL     1     -12.107   9.286 128.652  0.00  0.00    +0.000 OA
ATOM     14  H   UNL     1     -12.164   9.742 127.796  0.00  0.00    +0.000 HD
ENDBRANCH   1  13
TORSDOF 4
ENDMDL
MODEL 2
REMARK VINA RESULT:      -5.5      2.405      4.375
REMARK  Name = Phenylpropanolamine
REMARK  5 active torsions:
REMARK  status: ('A' for Active; 'I' for Inactive)
REMARK    1  A    between atoms: C_1  and  C_2
REMARK    2  A    between atoms: C_2  and  N_3
REMARK    3  A    between atoms: C_2  and  C_4
REMARK    4  A    between atoms: C_4  and  O_5
REMARK    5  A    between atoms: C_4  and  C_6
REMARK                            x       y       z     vdW  Elec       q    Type
REMARK                         _______ _______ _______ _____ _____    ______ ____
ROOT
ATOM      1  C   UNL     1     -11.876   5.873 130.511  0.00  0.00    +0.000 C 
ENDROOT
BRANCH   1   2
ATOM      2  C   UNL     1     -12.514   6.991 129.704  0.00  0.00    +0.000 A 
ATOM      3  C   UNL     1     -13.243   6.758 128.528  0.00  0.00    +0.000 A 
ATOM      4  C   UNL     1     -13.749   7.827 127.787  0.00  0.00    +0.000 A 
ATOM      5  C   UNL     1     -13.591   9.134 128.234  0.00  0.00    +0.000 A 
ATOM      6  C   UNL     1     -12.903   9.384 129.418  0.00  0.00    +0.000 A 
ATOM      7  C   UNL     1     -12.351   8.321 130.129  0.00  0.00    +0.000 A 
ENDBRANCH   1   2
BRANCH   1   9
ATOM      8  C   UNL     1      -9.523   6.215 131.409  0.00  0.00    +0.000 C 
ATOM      9  C   UNL     1     -10.348   5.696 130.228  0.00  0.00    +0.000 C 
BRANCH   9  10
ATOM     10  N   UNL     1      -9.943   4.303 129.972  0.00  0.00    +0.000 NA
ATOM     11  H   UNL     1     -10.096   4.076 128.990  0.00  0.00    +0.000 HD
ATOM     12  H   UNL     1     -10.511   3.659 130.517  0.00  0.00    +0.000 HD
ENDBRANCH   9  10
ENDBRANCH   1   9
BRANCH   1  13
ATOM     13  O   UNL     1     -12.093   6.066 131.915  0.00  0.00    +0.000 OA
ATOM     14  H   UNL     1     -11.976   7.015 132.091  0.00  0.00    +0.000 HD
ENDBRANCH   1  13
TORSDOF 4
ENDMDL
MODEL 3
REMARK VINA RESULT:      -5.2      1.836      2.076
REMARK  Name = Phenylpropanolamine
REMARK  5 active torsions:
REMARK  status: ('A' for Active; 'I' for Inactive)
REMARK    1  A    between atoms: C_1  and  C_2
REMARK    2  A    between atoms: C_2  and  N_3
REMARK    3  A    between atoms: C_2  and  C_4
REMARK    4  A    between atoms: C_4  and  O_5
REMARK    5  A    between atoms: C_4  and  C_6
REMARK                            x       y       z     vdW  Elec       q    Type
REMARK                         _______ _______ _______ _____ _____    ______ ____
ROOT
ATOM      1  C   UNL     1     -11.759   7.243 129.631  0.00  0.00    +0.000 C 
ENDROOT
BRANCH   1   2
ATOM      2  C   UNL     1     -10.597   6.894 130.546  0.00  0.00    +0.000 A 
ATOM      3  C   UNL     1      -9.263   7.181 130.221  0.00  0.00    +0.000 A 
ATOM      4  C   UNL     1      -8.227   6.775 131.065  0.00  0.00    +0.000 A 
ATOM      5  C   UNL     1      -8.506   6.136 132.268  0.00  0.00    +0.000 A 
ATOM      6  C   UNL     1      -9.826   5.876 132.626  0.00  0.00    +0.000 A 
ATOM      7  C   UNL     1     -10.855   6.232 131.758  0.00  0.00    +0.000 A 
ENDBRANCH   1   2
BRANCH   1   9
ATOM      8  C   UNL     1     -11.229   8.040 127.276  0.00  0.00    +0.000 C 
ATOM      9  C   UNL     1     -11.483   8.484 128.720  0.00  0.00    +0.000 C 
BRANCH   9  10
ATOM     10  N   UNL     1     -12.575   9.471 128.704  0.00  0.00    +0.000 NA
ATOM     11  H   UNL     1     -12.189  10.408 128.587  0.00  0.00    +0.000 HD
ATOM     12  H   UNL     1     -13.076   9.465 129.589  0.00  0.00    +0.000 HD
ENDBRANCH   9  10
ENDBRANCH   1   9
BRANCH   1  13
ATOM     13  O   UNL     1     -12.131   6.118 128.824  0.00  0.00    +0.000 OA
ATOM     14  H   UNL     1     -11.984   6.373 127.898  0.00  0.00    +0.000 HD
ENDBRANCH   1  13
TORSDOF 4
ENDMDL
MODEL 4
REMARK VINA RESULT:      -5.2      2.278      4.407
REMARK  Name = Phenylpropanolamine
REMARK  5 active torsions:
REMARK  status: ('A' for Active; 'I' for Inactive)
REMARK    1  A    between atoms: C_1  and  C_2
REMARK    2  A    between atoms: C_2  and  N_3
REMARK    3  A    between atoms: C_2  and  C_4
REMARK    4  A    between atoms: C_4  and  O_5
REMARK    5  A    between atoms: C_4  and  C_6
REMARK                            x       y       z     vdW  Elec       q    Type
REMARK                         _______ _______ _______ _____ _____    ______ ____
ROOT
ATOM      1  C   UNL     1     -10.434   7.237 130.207  0.00  0.00    +0.000 C 
ENDROOT
BRANCH   1   2
ATOM      2  C   UNL     1     -11.626   7.636 129.352  0.00  0.00    +0.000 A 
ATOM      3  C   UNL     1     -12.155   8.935 129.346  0.00  0.00    +0.000 A 
ATOM      4  C   UNL     1     -13.294   9.231 128.595  0.00  0.00    +0.000 A 
ATOM      5  C   UNL     1     -13.885   8.258 127.797  0.00  0.00    +0.000 A 
ATOM      6  C   UNL     1     -13.353   6.973 127.760  0.00  0.00    +0.000 A 
ATOM      7  C   UNL     1     -12.250   6.664 128.552  0.00  0.00    +0.000 A 
ENDBRANCH   1   2
BRANCH   1   9
ATOM      8  C   UNL     1      -9.631   5.934 132.236  0.00  0.00    +0.000 C 
ATOM      9  C   UNL     1     -10.738   6.055 131.185  0.00  0.00    +0.000 C 
BRANCH   9  10
ATOM     10  N   UNL     1     -12.023   6.179 131.895  0.00  0.00    +0.000 NA
ATOM     11  H   UNL     1     -11.963   5.711 132.798  0.00  0.00    +0.000 HD
ATOM     12  H   UNL     1     -12.766   5.722 131.372  0.00  0.00    +0.000 HD
ENDBRANCH   9  10
ENDBRANCH   1   9
BRANCH   1  13
ATOM     13  O   UNL     1      -9.302   6.915 129.389  0.00  0.00    +0.000 OA
ATOM     14  H   UNL     1      -9.477   7.283 128.507  0.00  0.00    +0.000 HD
ENDBRANCH   1  13
TORSDOF 4
ENDMDL
MODEL 5
REMARK VINA RESULT:      -5.1      2.608      4.444
REMARK  Name = Phenylpropanolamine
REMARK  5 active torsions:
REMARK  status: ('A' for Active; 'I' for Inactive)
REMARK    1  A    between atoms: C_1  and  C_2
REMARK    2  A    between atoms: C_2  and  N_3
REMARK    3  A    between atoms: C_2  and  C_4
REMARK    4  A    between atoms: C_4  and  O_5
REMARK    5  A    between atoms: C_4  and  C_6
REMARK                            x       y       z     vdW  Elec       q    Type
REMARK                         _______ _______ _______ _____ _____    ______ ____
ROOT
ATOM      1  C   UNL     1     -11.073   5.904 131.627  0.00  0.00    +0.000 C 
ENDROOT
BRANCH   1   2
ATOM      2  C   UNL     1     -11.366   6.974 130.588  0.00  0.00    +0.000 A 
ATOM      3  C   UNL     1     -12.577   7.682 130.549  0.00  0.00    +0.000 A 
ATOM      4  C   UNL     1     -12.823   8.605 129.530  0.00  0.00    +0.000 A 
ATOM      5  C   UNL     1     -11.850   8.880 128.576  0.00  0.00    +0.000 A 
ATOM      6  C   UNL     1     -10.628   8.215 128.620  0.00  0.00    +0.000 A 
ATOM      7  C   UNL     1     -10.404   7.254 129.603  0.00  0.00    +0.000 A 
ENDBRANCH   1   2
BRANCH   1   9
ATOM      8  C   UNL     1      -9.456   4.017 132.161  0.00  0.00    +0.000 C 
ATOM      9  C   UNL     1     -10.280   4.683 131.055  0.00  0.00    +0.000 C 
BRANCH   9  10
ATOM     10  N   UNL     1     -11.130   3.650 130.440  0.00  0.00    +0.000 NA
ATOM     11  H   UNL     1     -11.311   2.908 131.115  0.00  0.00    +0.000 HD
ATOM     12  H   UNL     1     -10.658   3.223 129.647  0.00  0.00    +0.000 HD
ENDBRANCH   9  10
ENDBRANCH   1   9
BRANCH   1  13
ATOM     13  O   UNL     1     -10.373   6.459 132.749  0.00  0.00    +0.000 OA
ATOM     14  H   UNL     1     -10.129   7.367 132.508  0.00  0.00    +0.000 HD
ENDBRANCH   1  13
TORSDOF 4
ENDMDL
MODEL 6
REMARK VINA RESULT:      -5.0      8.915     10.238
REMARK  Name = Phenylpropanolamine
REMARK  5 active torsions:
REMARK  status: ('A' for Active; 'I' for Inactive)
REMARK    1  A    between atoms: C_1  and  C_2
REMARK    2  A    between atoms: C_2  and  N_3
REMARK    3  A    between atoms: C_2  and  C_4
REMARK    4  A    between atoms: C_4  and  O_5
REMARK    5  A    between atoms: C_4  and  C_6
REMARK                            x       y       z     vdW  Elec       q    Type
REMARK                         _______ _______ _______ _____ _____    ______ ____
ROOT
ATOM      1  C   UNL     1      -7.543   2.538 123.168  0.00  0.00    +0.000 C 
ENDROOT
BRANCH   1   2
ATOM      2  C   UNL     1      -7.208   3.287 121.889  0.00  0.00    +0.000 A 
ATOM      3  C   UNL     1      -8.172   3.603 120.919  0.00  0.00    +0.000 A 
ATOM      4  C   UNL     1      -7.798   4.230 119.729  0.00  0.00    +0.000 A 
ATOM      5  C   UNL     1      -6.477   4.606 119.514  0.00  0.00    +0.000 A 
ATOM      6  C   UNL     1      -5.512   4.335 120.480  0.00  0.00    +0.000 A 
ATOM      7  C   UNL     1      -5.876   3.660 121.643  0.00  0.00    +0.000 A 
ENDBRANCH   1   2
BRANCH   1   9
ATOM      8  C   UNL     1      -9.587   1.034 123.035  0.00  0.00    +0.000 C 
ATOM      9  C   UNL     1      -9.080   2.422 123.436  0.00  0.00    +0.000 C 
BRANCH   9  10
ATOM     10  N   UNL     1      -9.463   2.656 124.838  0.00  0.00    +0.000 NA
ATOM     11  H   UNL     1     -10.182   3.376 124.883  0.00  0.00    +0.000 HD
ATOM     12  H   UNL     1      -8.669   2.996 125.375  0.00  0.00    +0.000 HD
ENDBRANCH   9  10
ENDBRANCH   1   9
BRANCH   1  13
ATOM     13  O   UNL     1      -6.947   1.235 123.169  0.00  0.00    +0.000 OA
ATOM     14  H   UNL     1      -6.762   1.010 124.096  0.00  0.00    +0.000 HD
ENDBRANCH   1  13
TORSDOF 4
ENDMDL
MODEL 7
REMARK VINA RESULT:      -4.9     10.756     11.077
REMARK  Name = Phenylpropanolamine
REMARK  5 active torsions:
REMARK  status: ('A' for Active; 'I' for Inactive)
REMARK    1  A    between atoms: C_1  and  C_2
REMARK    2  A    between atoms: C_2  and  N_3
REMARK    3  A    between atoms: C_2  and  C_4
REMARK    4  A    between atoms: C_4  and  O_5
REMARK    5  A    between atoms: C_4  and  C_6
REMARK                            x       y       z     vdW  Elec       q    Type
REMARK                         _______ _______ _______ _____ _____    ______ ____
ROOT
ATOM      1  C   UNL     1      -8.912  -2.153 124.975  0.00  0.00    +0.000 C 
ENDROOT
BRANCH   1   2
ATOM      2  C   UNL     1      -8.632  -2.417 126.445  0.00  0.00    +0.000 A 
ATOM      3  C   UNL     1      -7.903  -1.529 127.251  0.00  0.00    +0.000 A 
ATOM      4  C   UNL     1      -7.614  -1.853 128.578  0.00  0.00    +0.000 A 
ATOM      5  C   UNL     1      -8.095  -3.031 129.138  0.00  0.00    +0.000 A 
ATOM      6  C   UNL     1      -8.852  -3.907 128.366  0.00  0.00    +0.000 A 
ATOM      7  C   UNL     1      -9.093  -3.610 127.027  0.00  0.00    +0.000 A 
ENDBRANCH   1   2
BRANCH   1   9
ATOM      8  C   UNL     1      -6.866  -3.476 124.251  0.00  0.00    +0.000 C 
ATOM      9  C   UNL     1      -7.624  -2.156 124.087  0.00  0.00    +0.000 C 
BRANCH   9  10
ATOM     10  N   UNL     1      -7.887  -1.961 122.651  0.00  0.00    +0.000 NA
ATOM     11  H   UNL     1      -7.839  -0.968 122.425  0.00  0.00    +0.000 HD
ATOM     12  H   UNL     1      -8.824  -2.275 122.412  0.00  0.00    +0.000 HD
ENDBRANCH   9  10
ENDBRANCH   1   9
BRANCH   1  13
ATOM     13  O   UNL     1      -9.863  -3.092 124.459  0.00  0.00    +0.000 OA
ATOM     14  H   UNL     1     -10.282  -2.675 123.688  0.00  0.00    +0.000 HD
ENDBRANCH   1  13
TORSDOF 4
ENDMDL
MODEL 8
REMARK VINA RESULT:      -4.9     10.494     10.838
REMARK  Name = Phenylpropanolamine
REMARK  5 active torsions:
REMARK  status: ('A' for Active; 'I' for Inactive)
REMARK    1  A    between atoms: C_1  and  C_2
REMARK    2  A    between atoms: C_2  and  N_3
REMARK    3  A    between atoms: C_2  and  C_4
REMARK    4  A    between atoms: C_4  and  O_5
REMARK    5  A    between atoms: C_4  and  C_6
REMARK                            x       y       z     vdW  Elec       q    Type
REMARK                         _______ _______ _______ _____ _____    ______ ____
ROOT
ATOM      1  C   UNL     1      -8.410  -1.641 125.170  0.00  0.00    +0.000 C 
ENDROOT
BRANCH   1   2
ATOM      2  C   UNL     1      -8.371  -2.270 126.553  0.00  0.00    +0.000 A 
ATOM      3  C   UNL     1      -8.954  -3.514 126.838  0.00  0.00    +0.000 A 
ATOM      4  C   UNL     1      -8.952  -4.014 128.141  0.00  0.00    +0.000 A 
ATOM      5  C   UNL     1      -8.319  -3.316 129.164  0.00  0.00    +0.000 A 
ATOM      6  C   UNL     1      -7.703  -2.098 128.895  0.00  0.00    +0.000 A 
ATOM      7  C   UNL     1      -7.753  -1.573 127.605  0.00  0.00    +0.000 A 
ENDBRANCH   1   2
BRANCH   1   9
ATOM      8  C   UNL     1      -9.385  -3.079 123.315  0.00  0.00    +0.000 C 
ATOM      9  C   UNL     1      -8.094  -2.651 124.019  0.00  0.00    +0.000 C 
BRANCH   9  10
ATOM     10  N   UNL     1      -7.174  -2.125 122.996  0.00  0.00    +0.000 NA
ATOM     11  H   UNL     1      -6.288  -1.868 123.429  0.00  0.00    +0.000 HD
ATOM     12  H   UNL     1      -7.554  -1.282 122.573  0.00  0.00    +0.000 HD
ENDBRANCH   9  10
ENDBRANCH   1   9
BRANCH   1  13
ATOM     13  O   UNL     1      -9.673  -1.008 124.931  0.00  0.00    +0.000 OA
ATOM     14  H   UNL     1     -10.356  -1.689 125.043  0.00  0.00    +0.000 HD
ENDBRANCH   1  13
TORSDOF 4
ENDMDL
MODEL 9
REMARK VINA RESULT:      -4.8      9.370     10.723
REMARK  Name = Phenylpropanolamine
REMARK  5 active torsions:
REMARK  status: ('A' for Active; 'I' for Inactive)
REMARK    1  A    between atoms: C_1  and  C_2
REMARK    2  A    between atoms: C_2  and  N_3
REMARK    3  A    between atoms: C_2  and  C_4
REMARK    4  A    between atoms: C_4  and  O_5
REMARK    5  A    between atoms: C_4  and  C_6
REMARK                            x       y       z     vdW  Elec       q    Type
REMARK                         _______ _______ _______ _____ _____    ______ ____
ROOT
ATOM      1  C   UNL     1      -6.357   3.137 122.566  0.00  0.00    +0.000 C 
ENDROOT
BRANCH   1   2
ATOM      2  C   UNL     1      -6.378   3.888 121.244  0.00  0.00    +0.000 A 
ATOM      3  C   UNL     1      -7.457   3.820 120.350  0.00  0.00    +0.000 A 
ATOM      4  C   UNL     1      -7.395   4.473 119.117  0.00  0.00    +0.000 A 
ATOM      5  C   UNL     1      -6.291   5.250 118.784  0.00  0.00    +0.000 A 
ATOM      6  C   UNL     1      -5.227   5.360 119.674  0.00  0.00    +0.000 A 
ATOM      7  C   UNL     1      -5.265   4.664 120.880  0.00  0.00    +0.000 A 
ENDBRANCH   1   2
BRANCH   1   9
ATOM      8  C   UNL     1      -7.596   3.715 124.708  0.00  0.00    +0.000 C 
ATOM      9  C   UNL     1      -6.405   4.077 123.815  0.00  0.00    +0.000 C 
BRANCH   9  10
ATOM     10  N   UNL     1      -5.189   4.035 124.644  0.00  0.00    +0.000 NA
ATOM     11  H   UNL     1      -4.792   3.096 124.625  0.00  0.00    +0.000 HD
ATOM     12  H   UNL     1      -5.410   4.243 125.615  0.00  0.00    +0.000 HD
ENDBRANCH   9  10
ENDBRANCH   1   9
BRANCH   1  13
ATOM     13  O   UNL     1      -7.425   2.184 122.630  0.00  0.00    +0.000 OA
ATOM     14  H   UNL     1      -7.762   2.076 121.725  0.00  0.00    +0.000 HD
ENDBRANCH   1  13
TORSDOF 4
ENDMDL
