MODEL 1
REMARK VINA RESULT:      -8.6      0.000      0.000
REMARK  Name = Phenolphthalein
REMARK  4 active torsions:
REMARK  status: ('A' for Active; 'I' for Inactive)
REMARK    1  A    between atoms: O_1  and  C_2
REMARK    2  A    between atoms: C_5  and  C_8
REMARK    3  A    between atoms: C_8  and  C_18
REMARK    4  A    between atoms: C_21  and  O_22
REMARK                            x       y       z     vdW  Elec       q    Type
REMARK                         _______ _______ _______ _____ _____    ______ ____
ROOT
ATOM      1  C   UNL     1      -7.494   1.771 123.743  0.00  0.00    +0.000 C 
ATOM      2  O   UNL     1      -8.791   2.033 124.350  0.00  0.00    +0.000 OA
ATOM      3  C   UNL     1      -9.618   0.949 124.300  0.00  0.00    +0.000 C 
ATOM      4  O   UNL     1     -10.758   0.886 124.729  0.00  0.00    +0.000 OA
ATOM      5  C   UNL     1      -8.872  -0.137 123.680  0.00  0.00    +0.000 A 
ATOM      6  C   UNL     1      -9.263  -1.439 123.414  0.00  0.00    +0.000 A 
ATOM      7  C   UNL     1      -8.326  -2.292 122.823  0.00  0.00    +0.000 A 
ATOM      8  C   UNL     1      -7.028  -1.843 122.533  0.00  0.00    +0.000 A 
ATOM      9  C   UNL     1      -6.654  -0.536 122.836  0.00  0.00    +0.000 A 
ATOM     10  C   UNL     1      -7.605   0.318 123.388  0.00  0.00    +0.000 A 
ENDROOT
BRANCH   1  14
ATOM     11  C   UNL     1      -4.323   2.393 126.650  0.00  0.00    +0.000 A 
ATOM     12  C   UNL     1      -4.743   3.453 125.869  0.00  0.00    +0.000 A 
ATOM     13  C   UNL     1      -5.737   3.236 124.929  0.00  0.00    +0.000 A 
ATOM     14  C   UNL     1      -6.386   1.992 124.791  0.00  0.00    +0.000 A 
ATOM     15  C   UNL     1      -5.951   0.940 125.617  0.00  0.00    +0.000 A 
ATOM     16  C   UNL     1      -4.911   1.140 126.530  0.00  0.00    +0.000 A 
BRANCH  11  17
ATOM     17  O   UNL     1      -3.309   2.562 127.542  0.00  0.00    +0.000 OA
ATOM     18  H   UNL     1      -3.582   2.151 128.380  0.00  0.00    +0.000 HD
ENDBRANCH  11  17
ENDBRANCH   1  14
BRANCH   1  19
ATOM     19  C   UNL     1      -7.366   2.703 122.519  0.00  0.00    +0.000 A 
ATOM     20  C   UNL     1      -6.106   2.914 121.910  0.00  0.00    +0.000 A 
ATOM     21  C   UNL     1      -6.008   3.523 120.655  0.00  0.00    +0.000 A 
ATOM     22  C   UNL     1      -7.158   4.000 120.038  0.00  0.00    +0.000 A 
ATOM     23  C   UNL     1      -8.394   3.876 120.648  0.00  0.00    +0.000 A 
ATOM     24  C   UNL     1      -8.496   3.233 121.874  0.00  0.00    +0.000 A 
BRANCH  22  25
ATOM     25  O   UNL     1      -7.136   4.600 118.816  0.00  0.00    +0.000 OA
ATOM     26  H   UNL     1      -6.332   4.330 118.348  0.00  0.00    +0.000 HD
ENDBRANCH  22  25
ENDBRANCH   1  19
TORSDOF 4
ENDMDL
MODEL 2
REMARK VINA RESULT:      -8.5      1.937      2.193
REMARK  Name = Phenolphthalein
REMARK  4 active torsions:
REMARK  status: ('A' for Active; 'I' for Inactive)
REMARK    1  A    between atoms: O_1  and  C_2
REMARK    2  A    between atoms: C_5  and  C_8
REMARK    3  A    between atoms: C_8  and  C_18
REMARK    4  A    between atoms: C_21  and  O_22
REMARK                            x       y       z     vdW  Elec       q    Type
REMARK                         _______ _______ _______ _____ _____    ______ ____
ROOT
ATOM      1  C   UNL     1      -8.343   2.097 123.494  0.00  0.00    +0.000 C 
ATOM      2  O   UNL     1      -9.770   2.015 123.221  0.00  0.00    +0.000 OA
ATOM      3  C   UNL     1     -10.169   0.746 122.916  0.00  0.00    +0.000 C 
ATOM      4  O   UNL     1     -11.303   0.389 122.643  0.00  0.00    +0.000 OA
ATOM      5  C   UNL     1      -8.999  -0.114 123.020  0.00  0.00    +0.000 A 
ATOM      6  C   UNL     1      -8.884  -1.479 122.819  0.00  0.00    +0.000 A 
ATOM      7  C   UNL     1      -7.628  -2.063 123.012  0.00  0.00    +0.000 A 
ATOM      8  C   UNL     1      -6.531  -1.287 123.416  0.00  0.00    +0.000 A 
ATOM      9  C   UNL     1      -6.681   0.080 123.636  0.00  0.00    +0.000 A 
ATOM     10  C   UNL     1      -7.926   0.659 123.404  0.00  0.00    +0.000 A 
ENDROOT
BRANCH   1  14
ATOM     11  C   UNL     1      -7.801   3.615 127.531  0.00  0.00    +0.000 A 
ATOM     12  C   UNL     1      -8.006   2.262 127.338  0.00  0.00    +0.000 A 
ATOM     13  C   UNL     1      -8.202   1.794 126.049  0.00  0.00    +0.000 A 
ATOM     14  C   UNL     1      -8.127   2.637 124.921  0.00  0.00    +0.000 A 
ATOM     15  C   UNL     1      -7.896   4.005 125.151  0.00  0.00    +0.000 A 
ATOM     16  C   UNL     1      -7.751   4.491 126.453  0.00  0.00    +0.000 A 
BRANCH  11  17
ATOM     17  O   UNL     1      -7.663   4.112 128.791  0.00  0.00    +0.000 OA
ATOM     18  H   UNL     1      -8.513   3.994 129.248  0.00  0.00    +0.000 HD
ENDBRANCH  11  17
ENDBRANCH   1  14
BRANCH   1  19
ATOM     19  C   UNL     1      -7.720   2.996 122.404  0.00  0.00    +0.000 A 
ATOM     20  C   UNL     1      -6.323   3.222 122.377  0.00  0.00    +0.000 A 
ATOM     21  C   UNL     1      -5.711   3.796 121.258  0.00  0.00    +0.000 A 
ATOM     22  C   UNL     1      -6.499   4.224 120.195  0.00  0.00    +0.000 A 
ATOM     23  C   UNL     1      -7.875   4.084 120.231  0.00  0.00    +0.000 A 
ATOM     24  C   UNL     1      -8.478   3.476 121.323  0.00  0.00    +0.000 A 
BRANCH  22  25
ATOM     25  O   UNL     1      -5.969   4.788 119.075  0.00  0.00    +0.000 OA
ATOM     26  H   UNL     1      -5.785   4.090 118.429  0.00  0.00    +0.000 HD
ENDBRANCH  22  25
ENDBRANCH   1  19
TORSDOF 4
ENDMDL
MODEL 3
REMARK VINA RESULT:      -8.1      1.913      5.424
REMARK  Name = Phenolphthalein
REMARK  4 active torsions:
REMARK  status: ('A' for Active; 'I' for Inactive)
REMARK    1  A    between atoms: O_1  and  C_2
REMARK    2  A    between atoms: C_5  and  C_8
REMARK    3  A    between atoms: C_8  and  C_18
REMARK    4  A    between atoms: C_21  and  O_22
REMARK                            x       y       z     vdW  Elec       q    Type
REMARK                         _______ _______ _______ _____ _____    ______ ____
ROOT
ATOM      1  C   UNL     1      -7.269   3.163 124.189  0.00  0.00    +0.000 C 
ATOM      2  O   UNL     1      -8.290   4.113 124.604  0.00  0.00    +0.000 OA
ATOM      3  C   UNL     1      -8.050   4.626 125.846  0.00  0.00    +0.000 C 
ATOM      4  O   UNL     1      -8.740   5.438 126.441  0.00  0.00    +0.000 OA
ATOM      5  C   UNL     1      -6.792   4.060 126.313  0.00  0.00    +0.000 A 
ATOM      6  C   UNL     1      -6.114   4.274 127.502  0.00  0.00    +0.000 A 
ATOM      7  C   UNL     1      -4.897   3.610 127.686  0.00  0.00    +0.000 A 
ATOM      8  C   UNL     1      -4.377   2.775 126.685  0.00  0.00    +0.000 A 
ATOM      9  C   UNL     1      -5.068   2.599 125.488  0.00  0.00    +0.000 A 
ATOM     10  C   UNL     1      -6.297   3.233 125.330  0.00  0.00    +0.000 A 
ENDROOT
BRANCH   1  14
ATOM     11  C   UNL     1      -5.435   4.622 120.528  0.00  0.00    +0.000 A 
ATOM     12  C   UNL     1      -4.779   4.799 121.731  0.00  0.00    +0.000 A 
ATOM     13  C   UNL     1      -5.385   4.352 122.894  0.00  0.00    +0.000 A 
ATOM     14  C   UNL     1      -6.612   3.658 122.885  0.00  0.00    +0.000 A 
ATOM     15  C   UNL     1      -7.244   3.475 121.642  0.00  0.00    +0.000 A 
ATOM     16  C   UNL     1      -6.662   3.972 120.472  0.00  0.00    +0.000 A 
BRANCH  11  17
ATOM     17  O   UNL     1      -4.891   5.102 119.376  0.00  0.00    +0.000 OA
ATOM     18  H   UNL     1      -5.596   5.555 118.884  0.00  0.00    +0.000 HD
ENDBRANCH  11  17
ENDBRANCH   1  14
BRANCH   1  19
ATOM     19  C   UNL     1      -7.956   1.789 124.039  0.00  0.00    +0.000 A 
ATOM     20  C   UNL     1      -9.356   1.708 123.845  0.00  0.00    +0.000 A 
ATOM     21  C   UNL     1      -9.955   0.512 123.435  0.00  0.00    +0.000 A 
ATOM     22  C   UNL     1      -9.174  -0.630 123.301  0.00  0.00    +0.000 A 
ATOM     23  C   UNL     1      -7.815  -0.595 123.560  0.00  0.00    +0.000 A 
ATOM     24  C   UNL     1      -7.214   0.602 123.925  0.00  0.00    +0.000 A 
BRANCH  22  25
ATOM     25  O   UNL     1      -9.690  -1.825 122.904  0.00  0.00    +0.000 OA
ATOM     26  H   UNL     1      -9.032  -2.290 122.366  0.00  0.00    +0.000 HD
ENDBRANCH  22  25
ENDBRANCH   1  19
TORSDOF 4
ENDMDL
MODEL 4
REMARK VINA RESULT:      -7.9      2.568      5.216
REMARK  Name = Phenolphthalein
REMARK  4 active torsions:
REMARK  status: ('A' for Active; 'I' for Inactive)
REMARK    1  A    between atoms: O_1  and  C_2
REMARK    2  A    between atoms: C_5  and  C_8
REMARK    3  A    between atoms: C_8  and  C_18
REMARK    4  A    between atoms: C_21  and  O_22
REMARK                            x       y       z     vdW  Elec       q    Type
REMARK                         _______ _______ _______ _____ _____    ______ ____
ROOT
ATOM      1  C   UNL     1      -7.842   0.660 124.381  0.00  0.00    +0.000 C 
ATOM      2  O   UNL     1      -9.228   0.243 124.221  0.00  0.00    +0.000 OA
ATOM      3  C   UNL     1      -9.880   0.964 123.263  0.00  0.00    +0.000 C 
ATOM      4  O   UNL     1     -11.044   0.831 122.924  0.00  0.00    +0.000 OA
ATOM      5  C   UNL     1      -8.918   1.892 122.688  0.00  0.00    +0.000 A 
ATOM      6  C   UNL     1      -9.085   2.827 121.679  0.00  0.00    +0.000 A 
ATOM      7  C   UNL     1      -7.971   3.582 121.300  0.00  0.00    +0.000 A 
ATOM      8  C   UNL     1      -6.724   3.379 121.911  0.00  0.00    +0.000 A 
ATOM      9  C   UNL     1      -6.579   2.414 122.905  0.00  0.00    +0.000 A 
ATOM     10  C   UNL     1      -7.702   1.694 123.303  0.00  0.00    +0.000 A 
ENDROOT
BRANCH   1  14
ATOM     11  C   UNL     1      -5.280  -2.765 123.602  0.00  0.00    +0.000 A 
ATOM     12  C   UNL     1      -5.979  -2.191 122.557  0.00  0.00    +0.000 A 
ATOM     13  C   UNL     1      -6.811  -1.116 122.822  0.00  0.00    +0.000 A 
ATOM     14  C   UNL     1      -6.914  -0.541 124.106  0.00  0.00    +0.000 A 
ATOM     15  C   UNL     1      -6.173  -1.135 125.143  0.00  0.00    +0.000 A 
ATOM     16  C   UNL     1      -5.373  -2.254 124.891  0.00  0.00    +0.000 A 
BRANCH  11  17
ATOM     17  O   UNL     1      -4.500  -3.859 123.382  0.00  0.00    +0.000 OA
ATOM     18  H   UNL     1      -4.942  -4.406 122.712  0.00  0.00    +0.000 HD
ENDBRANCH  11  17
ENDBRANCH   1  14
BRANCH   1  19
ATOM     19  C   UNL     1      -7.696   1.225 125.810  0.00  0.00    +0.000 A 
ATOM     20  C   UNL     1      -6.682   2.166 126.106  0.00  0.00    +0.000 A 
ATOM     21  C   UNL     1      -6.702   2.890 127.302  0.00  0.00    +0.000 A 
ATOM     22  C   UNL     1      -7.685   2.618 128.246  0.00  0.00    +0.000 A 
ATOM     23  C   UNL     1      -8.643   1.648 128.013  0.00  0.00    +0.000 A 
ATOM     24  C   UNL     1      -8.648   0.960 126.808  0.00  0.00    +0.000 A 
BRANCH  22  25
ATOM     25  O   UNL     1      -7.766   3.286 129.430  0.00  0.00    +0.000 OA
ATOM     26  H   UNL     1      -8.187   2.712 130.087  0.00  0.00    +0.000 HD
ENDBRANCH  22  25
ENDBRANCH   1  19
TORSDOF 4
ENDMDL
MODEL 5
REMARK VINA RESULT:      -7.8      3.408      4.552
REMARK  Name = Phenolphthalein
REMARK  4 active torsions:
REMARK  status: ('A' for Active; 'I' for Inactive)
REMARK    1  A    between atoms: O_1  and  C_2
REMARK    2  A    between atoms: C_5  and  C_8
REMARK    3  A    between atoms: C_8  and  C_18
REMARK    4  A    between atoms: C_21  and  O_22
REMARK                            x       y       z     vdW  Elec       q    Type
REMARK                         _______ _______ _______ _____ _____    ______ ____
ROOT
ATOM      1  C   UNL     1      -8.042  -1.089 126.015  0.00  0.00    +0.000 C 
ATOM      2  O   UNL     1      -9.274  -1.735 125.586  0.00  0.00    +0.000 OA
ATOM      3  C   UNL     1      -9.045  -2.789 124.748  0.00  0.00    +0.000 C 
ATOM      4  O   UNL     1      -9.889  -3.505 124.237  0.00  0.00    +0.000 OA
ATOM      5  C   UNL     1      -7.602  -2.928 124.613  0.00  0.00    +0.000 A 
ATOM      6  C   UNL     1      -6.868  -3.850 123.884  0.00  0.00    +0.000 A 
ATOM      7  C   UNL     1      -5.473  -3.770 123.951  0.00  0.00    +0.000 A 
ATOM      8  C   UNL     1      -4.847  -2.800 124.749  0.00  0.00    +0.000 A 
ATOM      9  C   UNL     1      -5.610  -1.903 125.491  0.00  0.00    +0.000 A 
ATOM     10  C   UNL     1      -6.997  -1.965 125.389  0.00  0.00    +0.000 A 
ENDROOT
BRANCH   1  14
ATOM     11  C   UNL     1      -7.840  -1.258 130.354  0.00  0.00    +0.000 A 
ATOM     12  C   UNL     1      -7.933  -2.434 129.634  0.00  0.00    +0.000 A 
ATOM     13  C   UNL     1      -8.021  -2.366 128.253  0.00  0.00    +0.000 A 
ATOM     14  C   UNL     1      -7.947  -1.144 127.552  0.00  0.00    +0.000 A 
ATOM     15  C   UNL     1      -7.831   0.033 128.313  0.00  0.00    +0.000 A 
ATOM     16  C   UNL     1      -7.795  -0.027 129.710  0.00  0.00    +0.000 A 
BRANCH  11  17
ATOM     17  O   UNL     1      -7.810  -1.290 131.714  0.00  0.00    +0.000 OA
ATOM     18  H   UNL     1      -6.894  -1.472 131.984  0.00  0.00    +0.000 HD
ENDBRANCH  11  17
ENDBRANCH   1  14
BRANCH   1  19
ATOM     19  C   UNL     1      -8.064   0.351 125.459  0.00  0.00    +0.000 A 
ATOM     20  C   UNL     1      -6.856   0.999 125.107  0.00  0.00    +0.000 A 
ATOM     21  C   UNL     1      -6.867   2.178 124.355  0.00  0.00    +0.000 A 
ATOM     22  C   UNL     1      -8.084   2.763 124.023  0.00  0.00    +0.000 A 
ATOM     23  C   UNL     1      -9.278   2.190 124.422  0.00  0.00    +0.000 A 
ATOM     24  C   UNL     1      -9.267   0.997 125.132  0.00  0.00    +0.000 A 
BRANCH  22  25
ATOM     25  O   UNL     1      -8.168   3.908 123.292  0.00  0.00    +0.000 OA
ATOM     26  H   UNL     1      -8.410   4.639 123.879  0.00  0.00    +0.000 HD
ENDBRANCH  22  25
ENDBRANCH   1  19
TORSDOF 4
ENDMDL
MODEL 6
REMARK VINA RESULT:      -7.7      5.228      6.798
REMARK  Name = Phenolphthalein
REMARK  4 active torsions:
REMARK  status: ('A' for Active; 'I' for Inactive)
REMARK    1  A    between atoms: O_1  and  C_2
REMARK    2  A    between atoms: C_5  and  C_8
REMARK    3  A    between atoms: C_8  and  C_18
REMARK    4  A    between atoms: C_21  and  O_22
REMARK                            x       y       z     vdW  Elec       q    Type
REMARK                         _______ _______ _______ _____ _____    ______ ____
ROOT
ATOM      1  C   UNL     1      -7.296  -2.147 128.412  0.00  0.00    +0.000 C 
ATOM      2  O   UNL     1      -8.501  -2.889 128.755  0.00  0.00    +0.000 OA
ATOM      3  C   UNL     1      -9.017  -3.565 127.687  0.00  0.00    +0.000 C 
ATOM      4  O   UNL     1     -10.018  -4.262 127.686  0.00  0.00    +0.000 OA
ATOM      5  C   UNL     1      -8.127  -3.337 126.558  0.00  0.00    +0.000 A 
ATOM      6  C   UNL     1      -8.207  -3.812 125.260  0.00  0.00    +0.000 A 
ATOM      7  C   UNL     1      -7.190  -3.452 124.370  0.00  0.00    +0.000 A 
ATOM      8  C   UNL     1      -6.116  -2.653 124.794  0.00  0.00    +0.000 A 
ATOM      9  C   UNL     1      -6.048  -2.211 126.112  0.00  0.00    +0.000 A 
ATOM     10  C   UNL     1      -7.085  -2.542 126.980  0.00  0.00    +0.000 A 
ENDROOT
BRANCH   1  14
ATOM     11  C   UNL     1      -4.035  -3.510 130.942  0.00  0.00    +0.000 A 
ATOM     12  C   UNL     1      -5.211  -4.234 130.906  0.00  0.00    +0.000 A 
ATOM     13  C   UNL     1      -6.252  -3.776 130.114  0.00  0.00    +0.000 A 
ATOM     14  C   UNL     1      -6.128  -2.638 129.290  0.00  0.00    +0.000 A 
ATOM     15  C   UNL     1      -4.910  -1.937 129.334  0.00  0.00    +0.000 A 
ATOM     16  C   UNL     1      -3.876  -2.365 130.171  0.00  0.00    +0.000 A 
BRANCH  11  17
ATOM     17  O   UNL     1      -3.016  -3.904 131.754  0.00  0.00    +0.000 OA
ATOM     18  H   UNL     1      -2.432  -3.138 131.887  0.00  0.00    +0.000 HD
ENDBRANCH  11  17
ENDBRANCH   1  14
BRANCH   1  19
ATOM     19  C   UNL     1      -7.611  -0.648 128.605  0.00  0.00    +0.000 A 
ATOM     20  C   UNL     1      -7.870   0.178 127.485  0.00  0.00    +0.000 A 
ATOM     21  C   UNL     1      -8.421   1.453 127.646  0.00  0.00    +0.000 A 
ATOM     22  C   UNL     1      -8.639   1.944 128.928  0.00  0.00    +0.000 A 
ATOM     23  C   UNL     1      -8.322   1.186 130.041  0.00  0.00    +0.000 A 
ATOM     24  C   UNL     1      -7.815  -0.096 129.881  0.00  0.00    +0.000 A 
BRANCH  22  25
ATOM     25  O   UNL     1      -9.174   3.174 129.157  0.00  0.00    +0.000 OA
ATOM     26  H   UNL     1      -9.919   3.311 128.553  0.00  0.00    +0.000 HD
ENDBRANCH  22  25
ENDBRANCH   1  19
TORSDOF 4
ENDMDL
MODEL 7
REMARK VINA RESULT:      -7.7      3.757      5.886
REMARK  Name = Phenolphthalein
REMARK  4 active torsions:
REMARK  status: ('A' for Active; 'I' for Inactive)
REMARK    1  A    between atoms: O_1  and  C_2
REMARK    2  A    between atoms: C_5  and  C_8
REMARK    3  A    between atoms: C_8  and  C_18
REMARK    4  A    between atoms: C_21  and  O_22
REMARK                            x       y       z     vdW  Elec       q    Type
REMARK                         _______ _______ _______ _____ _____    ______ ____
ROOT
ATOM      1  C   UNL     1      -7.047  -1.702 125.639  0.00  0.00    +0.000 C 
ATOM      2  O   UNL     1      -6.158  -0.647 126.104  0.00  0.00    +0.000 OA
ATOM      3  C   UNL     1      -6.177  -0.512 127.462  0.00  0.00    +0.000 C 
ATOM      4  O   UNL     1      -5.535   0.291 128.119  0.00  0.00    +0.000 OA
ATOM      5  C   UNL     1      -7.073  -1.532 127.987  0.00  0.00    +0.000 A 
ATOM      6  C   UNL     1      -7.420  -1.814 129.298  0.00  0.00    +0.000 A 
ATOM      7  C   UNL     1      -8.295  -2.881 129.525  0.00  0.00    +0.000 A 
ATOM      8  C   UNL     1      -8.784  -3.648 128.456  0.00  0.00    +0.000 A 
ATOM      9  C   UNL     1      -8.398  -3.358 127.150  0.00  0.00    +0.000 A 
ATOM     10  C   UNL     1      -7.557  -2.271 126.930  0.00  0.00    +0.000 A 
ENDROOT
BRANCH   1  14
ATOM     11  C   UNL     1      -4.716  -4.697 123.520  0.00  0.00    +0.000 A 
ATOM     12  C   UNL     1      -5.899  -5.067 124.130  0.00  0.00    +0.000 A 
ATOM     13  C   UNL     1      -6.621  -4.109 124.823  0.00  0.00    +0.000 A 
ATOM     14  C   UNL     1      -6.229  -2.755 124.867  0.00  0.00    +0.000 A 
ATOM     15  C   UNL     1      -5.031  -2.407 124.217  0.00  0.00    +0.000 A 
ATOM     16  C   UNL     1      -4.272  -3.381 123.561  0.00  0.00    +0.000 A 
BRANCH  11  17
ATOM     17  O   UNL     1      -3.957  -5.629 122.881  0.00  0.00    +0.000 OA
ATOM     18  H   UNL     1      -3.620  -5.224 122.064  0.00  0.00    +0.000 HD
ENDBRANCH  11  17
ENDBRANCH   1  14
BRANCH   1  19
ATOM     19  C   UNL     1      -8.140  -1.032 124.778  0.00  0.00    +0.000 A 
ATOM     20  C   UNL     1      -8.536   0.302 125.037  0.00  0.00    +0.000 A 
ATOM     21  C   UNL     1      -9.310   1.012 124.115  0.00  0.00    +0.000 A 
ATOM     22  C   UNL     1      -9.765   0.369 122.969  0.00  0.00    +0.000 A 
ATOM     23  C   UNL     1      -9.457  -0.958 122.731  0.00  0.00    +0.000 A 
ATOM     24  C   UNL     1      -8.652  -1.650 123.626  0.00  0.00    +0.000 A 
BRANCH  22  25
ATOM     25  O   UNL     1     -10.520   1.001 122.029  0.00  0.00    +0.000 OA
ATOM     26  H   UNL     1     -11.456   0.823 122.206  0.00  0.00    +0.000 HD
ENDBRANCH  22  25
ENDBRANCH   1  19
TORSDOF 4
ENDMDL
MODEL 8
REMARK VINA RESULT:      -7.7      1.786      2.353
REMARK  Name = Phenolphthalein
REMARK  4 active torsions:
REMARK  status: ('A' for Active; 'I' for Inactive)
REMARK    1  A    between atoms: O_1  and  C_2
REMARK    2  A    between atoms: C_5  and  C_8
REMARK    3  A    between atoms: C_8  and  C_18
REMARK    4  A    between atoms: C_21  and  O_22
REMARK                            x       y       z     vdW  Elec       q    Type
REMARK                         _______ _______ _______ _____ _____    ______ ____
ROOT
ATOM      1  C   UNL     1      -7.576   1.401 124.612  0.00  0.00    +0.000 C 
ATOM      2  O   UNL     1      -8.936   1.907 124.498  0.00  0.00    +0.000 OA
ATOM      3  C   UNL     1      -9.762   1.037 123.847  0.00  0.00    +0.000 C 
ATOM      4  O   UNL     1     -10.947   1.204 123.609  0.00  0.00    +0.000 OA
ATOM      5  C   UNL     1      -8.980  -0.148 123.528  0.00  0.00    +0.000 A 
ATOM      6  C   UNL     1      -9.362  -1.313 122.884  0.00  0.00    +0.000 A 
ATOM      7  C   UNL     1      -8.401  -2.317 122.728  0.00  0.00    +0.000 A 
ATOM      8  C   UNL     1      -7.101  -2.150 123.230  0.00  0.00    +0.000 A 
ATOM      9  C   UNL     1      -6.751  -0.978 123.897  0.00  0.00    +0.000 A 
ATOM     10  C   UNL     1      -7.703   0.031 124.013  0.00  0.00    +0.000 A 
ENDROOT
BRANCH   1  14
ATOM     11  C   UNL     1      -6.490   1.073 128.809  0.00  0.00    +0.000 A 
ATOM     12  C   UNL     1      -5.538   0.818 127.841  0.00  0.00    +0.000 A 
ATOM     13  C   UNL     1      -5.902   0.902 126.507  0.00  0.00    +0.000 A 
ATOM     14  C   UNL     1      -7.191   1.308 126.102  0.00  0.00    +0.000 A 
ATOM     15  C   UNL     1      -8.130   1.581 127.111  0.00  0.00    +0.000 A 
ATOM     16  C   UNL     1      -7.783   1.447 128.459  0.00  0.00    +0.000 A 
BRANCH  11  17
ATOM     17  O   UNL     1      -6.177   0.943 130.127  0.00  0.00    +0.000 OA
ATOM     18  H   UNL     1      -7.010   0.892 130.624  0.00  0.00    +0.000 HD
ENDBRANCH  11  17
ENDBRANCH   1  14
BRANCH   1  19
ATOM     19  C   UNL     1      -6.665   2.351 123.807  0.00  0.00    +0.000 A 
ATOM     20  C   UNL     1      -6.595   2.251 122.397  0.00  0.00    +0.000 A 
ATOM     21  C   UNL     1      -6.003   3.262 121.634  0.00  0.00    +0.000 A 
ATOM     22  C   UNL     1      -5.401   4.337 122.278  0.00  0.00    +0.000 A 
ATOM     23  C   UNL     1      -5.387   4.420 123.659  0.00  0.00    +0.000 A 
ATOM     24  C   UNL     1      -6.013   3.438 124.414  0.00  0.00    +0.000 A 
BRANCH  22  25
ATOM     25  O   UNL     1      -4.808   5.356 121.598  0.00  0.00    +0.000 OA
ATOM     26  H   UNL     1      -5.389   6.132 121.624  0.00  0.00    +0.000 HD
ENDBRANCH  22  25
ENDBRANCH   1  19
TORSDOF 4
ENDMDL
MODEL 9
REMARK VINA RESULT:      -7.7      7.187     10.569
REMARK  Name = Phenolphthalein
REMARK  4 active torsions:
REMARK  status: ('A' for Active; 'I' for Inactive)
REMARK    1  A    between atoms: O_1  and  C_2
REMARK    2  A    between atoms: C_5  and  C_8
REMARK    3  A    between atoms: C_8  and  C_18
REMARK    4  A    between atoms: C_21  and  O_22
REMARK                            x       y       z     vdW  Elec       q    Type
REMARK                         _______ _______ _______ _____ _____    ______ ____
ROOT
ATOM      1  C   UNL     1      -5.217   6.324 130.944  0.00  0.00    +0.000 C 
ATOM      2  O   UNL     1      -5.140   7.365 129.929  0.00  0.00    +0.000 OA
ATOM      3  C   UNL     1      -4.221   8.326 130.238  0.00  0.00    +0.000 C 
ATOM      4  O   UNL     1      -3.952   9.312 129.572  0.00  0.00    +0.000 OA
ATOM      5  C   UNL     1      -3.588   7.934 131.489  0.00  0.00    +0.000 A 
ATOM      6  C   UNL     1      -2.590   8.567 132.210  0.00  0.00    +0.000 A 
ATOM      7  C   UNL     1      -2.143   7.951 133.384  0.00  0.00    +0.000 A 
ATOM      8  C   UNL     1      -2.680   6.722 133.798  0.00  0.00    +0.000 A 
ATOM      9  C   UNL     1      -3.665   6.095 133.039  0.00  0.00    +0.000 A 
ATOM     10  C   UNL     1      -4.130   6.735 131.893  0.00  0.00    +0.000 A 
ENDROOT
BRANCH   1  14
ATOM     11  C   UNL     1      -4.279   2.457 129.193  0.00  0.00    +0.000 A 
ATOM     12  C   UNL     1      -5.453   2.611 129.904  0.00  0.00    +0.000 A 
ATOM     13  C   UNL     1      -5.729   3.842 130.478  0.00  0.00    +0.000 A 
ATOM     14  C   UNL     1      -4.890   4.961 130.301  0.00  0.00    +0.000 A 
ATOM     15  C   UNL     1      -3.713   4.776 129.554  0.00  0.00    +0.000 A 
ATOM     16  C   UNL     1      -3.404   3.523 129.018  0.00  0.00    +0.000 A 
BRANCH  11  17
ATOM     17  O   UNL     1      -3.953   1.245 128.667  0.00  0.00    +0.000 OA
ATOM     18  H   UNL     1      -3.350   0.806 129.289  0.00  0.00    +0.000 HD
ENDBRANCH  11  17
ENDBRANCH   1  14
BRANCH   1  19
ATOM     19  C   UNL     1      -6.634   6.383 131.554  0.00  0.00    +0.000 A 
ATOM     20  C   UNL     1      -7.722   6.865 130.788  0.00  0.00    +0.000 A 
ATOM     21  C   UNL     1      -9.040   6.673 131.213  0.00  0.00    +0.000 A 
ATOM     22  C   UNL     1      -9.277   6.075 132.446  0.00  0.00    +0.000 A 
ATOM     23  C   UNL     1      -8.228   5.665 133.249  0.00  0.00    +0.000 A 
ATOM     24  C   UNL     1      -6.921   5.817 132.807  0.00  0.00    +0.000 A 
BRANCH  22  25
ATOM     25  O   UNL     1     -10.534   5.855 132.921  0.00  0.00    +0.000 OA
ATOM     26  H   UNL     1     -10.884   5.045 132.520  0.00  0.00    +0.000 HD
ENDBRANCH  22  25
ENDBRANCH   1  19
TORSDOF 4
ENDMDL
