MODEL 1
REMARK VINA RESULT:      -5.9      0.000      0.000
REMARK  Name = Phenylbutyric acid
REMARK  5 active torsions:
REMARK  status: ('A' for Active; 'I' for Inactive)
REMARK    1  A    between atoms: O_1  and  C_2
REMARK    2  A    between atoms: C_2  and  C_4
REMARK    3  A    between atoms: C_4  and  C_5
REMARK    4  A    between atoms: C_5  and  C_6
REMARK    5  A    between atoms: C_6  and  C_7
REMARK                            x       y       z     vdW  Elec       q    Type
REMARK                         _______ _______ _______ _____ _____    ______ ____
ROOT
ATOM      1  C   UNL     1      -7.049   3.111 122.310  0.00  0.00    +0.000 C 
ENDROOT
BRANCH   1   2
ATOM      2  C   UNL     1      -6.652   3.838 121.047  0.00  0.00    +0.000 A 
ATOM      3  C   UNL     1      -5.412   4.487 120.952  0.00  0.00    +0.000 A 
ATOM      4  C   UNL     1      -5.125   5.304 119.859  0.00  0.00    +0.000 A 
ATOM      5  C   UNL     1      -6.029   5.397 118.804  0.00  0.00    +0.000 A 
ATOM      6  C   UNL     1      -7.239   4.709 118.861  0.00  0.00    +0.000 A 
ATOM      7  C   UNL     1      -7.555   3.939 119.981  0.00  0.00    +0.000 A 
ENDBRANCH   1   2
BRANCH   1   8
ATOM      8  C   UNL     1      -8.571   2.966 122.388  0.00  0.00    +0.000 C 
BRANCH   8   9
ATOM      9  C   UNL     1      -9.024   2.099 123.562  0.00  0.00    +0.000 C 
BRANCH   9  10
ATOM     10  C   UNL     1     -10.238   1.288 123.162  0.00  0.00    +0.000 C 
ATOM     11  O   UNL     1     -10.316   0.603 122.150  0.00  0.00    +0.000 OA
BRANCH  10  12
ATOM     12  O   UNL     1     -11.265   1.381 124.033  0.00  0.00    +0.000 OA
ATOM     13  H   UNL     1     -12.124   1.627 123.642  0.00  0.00    +0.000 HD
ENDBRANCH  10  12
ENDBRANCH   9  10
ENDBRANCH   8   9
ENDBRANCH   1   8
TORSDOF 5
ENDMDL
MODEL 2
REMARK VINA RESULT:      -5.7      8.488     10.591
REMARK  Name = Phenylbutyric acid
REMARK  5 active torsions:
REMARK  status: ('A' for Active; 'I' for Inactive)
REMARK    1  A    between atoms: O_1  and  C_2
REMARK    2  A    between atoms: C_2  and  C_4
REMARK    3  A    between atoms: C_4  and  C_5
REMARK    4  A    between atoms: C_5  and  C_6
REMARK    5  A    between atoms: C_6  and  C_7
REMARK                            x       y       z     vdW  Elec       q    Type
REMARK                         _______ _______ _______ _____ _____    ______ ____
ROOT
ATOM      1  C   UNL     1     -12.372   7.370 130.434  0.00  0.00    +0.000 C 
ENDROOT
BRANCH   1   2
ATOM      2  C   UNL     1     -11.024   6.899 130.924  0.00  0.00    +0.000 A 
ATOM      3  C   UNL     1     -10.903   6.213 132.142  0.00  0.00    +0.000 A 
ATOM      4  C   UNL     1      -9.644   5.939 132.676  0.00  0.00    +0.000 A 
ATOM      5  C   UNL     1      -8.497   6.256 131.951  0.00  0.00    +0.000 A 
ATOM      6  C   UNL     1      -8.608   6.885 130.713  0.00  0.00    +0.000 A 
ATOM      7  C   UNL     1      -9.864   7.214 130.205  0.00  0.00    +0.000 A 
ENDBRANCH   1   2
BRANCH   1   8
ATOM      8  C   UNL     1     -12.754   6.646 129.140  0.00  0.00    +0.000 C 
BRANCH   8   9
ATOM      9  C   UNL     1     -12.982   7.602 127.971  0.00  0.00    +0.000 C 
BRANCH   9  10
ATOM     10  C   UNL     1     -11.777   7.590 127.056  0.00  0.00    +0.000 C 
ATOM     11  O   UNL     1     -10.890   8.434 127.059  0.00  0.00    +0.000 OA
BRANCH  10  12
ATOM     12  O   UNL     1     -11.752   6.543 126.203  0.00  0.00    +0.000 OA
ATOM     13  H   UNL     1     -12.610   6.305 125.807  0.00  0.00    +0.000 HD
ENDBRANCH  10  12
ENDBRANCH   9  10
ENDBRANCH   8   9
ENDBRANCH   1   8
TORSDOF 5
ENDMDL
MODEL 3
REMARK VINA RESULT:      -5.6     10.007     11.009
REMARK  Name = Phenylbutyric acid
REMARK  5 active torsions:
REMARK  status: ('A' for Active; 'I' for Inactive)
REMARK    1  A    between atoms: O_1  and  C_2
REMARK    2  A    between atoms: C_2  and  C_4
REMARK    3  A    between atoms: C_4  and  C_5
REMARK    4  A    between atoms: C_5  and  C_6
REMARK    5  A    between atoms: C_6  and  C_7
REMARK                            x       y       z     vdW  Elec       q    Type
REMARK                         _______ _______ _______ _____ _____    ______ ____
ROOT
ATOM      1  C   UNL     1     -12.094   6.890 131.506  0.00  0.00    +0.000 C 
ENDROOT
BRANCH   1   2
ATOM      2  C   UNL     1     -12.705   7.483 130.259  0.00  0.00    +0.000 A 
ATOM      3  C   UNL     1     -13.163   6.657 129.221  0.00  0.00    +0.000 A 
ATOM      4  C   UNL     1     -13.559   7.208 128.003  0.00  0.00    +0.000 A 
ATOM      5  C   UNL     1     -13.600   8.591 127.846  0.00  0.00    +0.000 A 
ATOM      6  C   UNL     1     -13.204   9.423 128.891  0.00  0.00    +0.000 A 
ATOM      7  C   UNL     1     -12.750   8.873 130.090  0.00  0.00    +0.000 A 
ENDBRANCH   1   2
BRANCH   1   8
ATOM      8  C   UNL     1     -10.977   5.909 131.140  0.00  0.00    +0.000 C 
BRANCH   8   9
ATOM      9  C   UNL     1      -9.603   6.367 131.629  0.00  0.00    +0.000 C 
BRANCH   9  10
ATOM     10  C   UNL     1      -8.879   7.092 130.516  0.00  0.00    +0.000 C 
ATOM     11  O   UNL     1      -9.408   7.503 129.491  0.00  0.00    +0.000 OA
BRANCH  10  12
ATOM     12  O   UNL     1      -7.558   7.258 130.743  0.00  0.00    +0.000 OA
ATOM     13  H   UNL     1      -6.979   7.106 129.973  0.00  0.00    +0.000 HD
ENDBRANCH  10  12
ENDBRANCH   9  10
ENDBRANCH   8   9
ENDBRANCH   1   8
TORSDOF 5
ENDMDL
MODEL 4
REMARK VINA RESULT:      -5.4      1.531      2.147
REMARK  Name = Phenylbutyric acid
REMARK  5 active torsions:
REMARK  status: ('A' for Active; 'I' for Inactive)
REMARK    1  A    between atoms: O_1  and  C_2
REMARK    2  A    between atoms: C_2  and  C_4
REMARK    3  A    between atoms: C_4  and  C_5
REMARK    4  A    between atoms: C_5  and  C_6
REMARK    5  A    between atoms: C_6  and  C_7
REMARK                            x       y       z     vdW  Elec       q    Type
REMARK                         _______ _______ _______ _____ _____    ______ ____
ROOT
ATOM      1  C   UNL     1      -7.170   2.870 122.165  0.00  0.00    +0.000 C 
ENDROOT
BRANCH   1   2
ATOM      2  C   UNL     1      -6.764   3.783 121.033  0.00  0.00    +0.000 A 
ATOM      3  C   UNL     1      -7.612   3.986 119.934  0.00  0.00    +0.000 A 
ATOM      4  C   UNL     1      -7.161   4.683 118.814  0.00  0.00    +0.000 A 
ATOM      5  C   UNL     1      -5.899   5.272 118.822  0.00  0.00    +0.000 A 
ATOM      6  C   UNL     1      -5.070   5.127 119.933  0.00  0.00    +0.000 A 
ATOM      7  C   UNL     1      -5.496   4.379 121.031  0.00  0.00    +0.000 A 
ENDBRANCH   1   2
BRANCH   1   8
ATOM      8  C   UNL     1      -8.691   2.877 122.338  0.00  0.00    +0.000 C 
BRANCH   8   9
ATOM      9  C   UNL     1      -9.181   1.810 123.317  0.00  0.00    +0.000 C 
BRANCH   9  10
ATOM     10  C   UNL     1      -8.799   2.197 124.729  0.00  0.00    +0.000 C 
ATOM     11  O   UNL     1      -8.220   1.464 125.521  0.00  0.00    +0.000 OA
BRANCH  10  12
ATOM     12  O   UNL     1      -9.158   3.455 125.065  0.00  0.00    +0.000 OA
ATOM     13  H   UNL     1      -8.588   3.890 125.725  0.00  0.00    +0.000 HD
ENDBRANCH  10  12
ENDBRANCH   9  10
ENDBRANCH   8   9
ENDBRANCH   1   8
TORSDOF 5
ENDMDL
MODEL 5
REMARK VINA RESULT:      -5.3      2.719      3.482
REMARK  Name = Phenylbutyric acid
REMARK  5 active torsions:
REMARK  status: ('A' for Active; 'I' for Inactive)
REMARK    1  A    between atoms: O_1  and  C_2
REMARK    2  A    between atoms: C_2  and  C_4
REMARK    3  A    between atoms: C_4  and  C_5
REMARK    4  A    between atoms: C_5  and  C_6
REMARK    5  A    between atoms: C_6  and  C_7
REMARK                            x       y       z     vdW  Elec       q    Type
REMARK                         _______ _______ _______ _____ _____    ______ ____
ROOT
ATOM      1  C   UNL     1      -8.174   2.801 123.062  0.00  0.00    +0.000 C 
ENDROOT
BRANCH   1   2
ATOM      2  C   UNL     1      -7.855   3.449 121.736  0.00  0.00    +0.000 A 
ATOM      3  C   UNL     1      -8.867   3.700 120.797  0.00  0.00    +0.000 A 
ATOM      4  C   UNL     1      -8.546   4.130 119.511  0.00  0.00    +0.000 A 
ATOM      5  C   UNL     1      -7.223   4.414 119.182  0.00  0.00    +0.000 A 
ATOM      6  C   UNL     1      -6.215   4.225 120.126  0.00  0.00    +0.000 A 
ATOM      7  C   UNL     1      -6.527   3.736 121.395  0.00  0.00    +0.000 A 
ENDBRANCH   1   2
BRANCH   1   8
ATOM      8  C   UNL     1      -6.927   2.759 123.950  0.00  0.00    +0.000 C 
BRANCH   8   9
ATOM      9  C   UNL     1      -7.201   3.234 125.376  0.00  0.00    +0.000 C 
BRANCH   9  10
ATOM     10  C   UNL     1      -7.725   4.653 125.353  0.00  0.00    +0.000 C 
ATOM     11  O   UNL     1      -8.873   4.977 125.630  0.00  0.00    +0.000 OA
BRANCH  10  12
ATOM     12  O   UNL     1      -6.802   5.569 124.988  0.00  0.00    +0.000 OA
ATOM     13  H   UNL     1      -5.896   5.228 124.875  0.00  0.00    +0.000 HD
ENDBRANCH  10  12
ENDBRANCH   9  10
ENDBRANCH   8   9
ENDBRANCH   1   8
TORSDOF 5
ENDMDL
MODEL 6
REMARK VINA RESULT:      -5.3      6.032      8.781
REMARK  Name = Phenylbutyric acid
REMARK  5 active torsions:
REMARK  status: ('A' for Active; 'I' for Inactive)
REMARK    1  A    between atoms: O_1  and  C_2
REMARK    2  A    between atoms: C_2  and  C_4
REMARK    3  A    between atoms: C_4  and  C_5
REMARK    4  A    between atoms: C_5  and  C_6
REMARK    5  A    between atoms: C_6  and  C_7
REMARK                            x       y       z     vdW  Elec       q    Type
REMARK                         _______ _______ _______ _____ _____    ______ ____
ROOT
ATOM      1  C   UNL     1      -9.464  -3.004 125.814  0.00  0.00    +0.000 C 
ENDROOT
BRANCH   1   2
ATOM      2  C   UNL     1      -8.517  -2.878 126.983  0.00  0.00    +0.000 A 
ATOM      3  C   UNL     1      -7.363  -2.085 126.890  0.00  0.00    +0.000 A 
ATOM      4  C   UNL     1      -6.404  -2.113 127.901  0.00  0.00    +0.000 A 
ATOM      5  C   UNL     1      -6.635  -2.852 129.059  0.00  0.00    +0.000 A 
ATOM      6  C   UNL     1      -7.805  -3.597 129.187  0.00  0.00    +0.000 A 
ATOM      7  C   UNL     1      -8.739  -3.619 128.151  0.00  0.00    +0.000 A 
ENDBRANCH   1   2
BRANCH   1   8
ATOM      8  C   UNL     1      -8.729  -3.551 124.587  0.00  0.00    +0.000 C 
BRANCH   8   9
ATOM      9  C   UNL     1      -9.381  -3.131 123.270  0.00  0.00    +0.000 C 
BRANCH   9  10
ATOM     10  C   UNL     1      -9.103  -1.667 123.005  0.00  0.00    +0.000 C 
ATOM     11  O   UNL     1      -9.953  -0.839 122.706  0.00  0.00    +0.000 OA
BRANCH  10  12
ATOM     12  O   UNL     1      -7.801  -1.329 123.126  0.00  0.00    +0.000 OA
ATOM     13  H   UNL     1      -7.164  -2.027 122.886  0.00  0.00    +0.000 HD
ENDBRANCH  10  12
ENDBRANCH   9  10
ENDBRANCH   8   9
ENDBRANCH   1   8
TORSDOF 5
ENDMDL
MODEL 7
REMARK VINA RESULT:      -5.2      6.142      8.731
REMARK  Name = Phenylbutyric acid
REMARK  5 active torsions:
REMARK  status: ('A' for Active; 'I' for Inactive)
REMARK    1  A    between atoms: O_1  and  C_2
REMARK    2  A    between atoms: C_2  and  C_4
REMARK    3  A    between atoms: C_4  and  C_5
REMARK    4  A    between atoms: C_5  and  C_6
REMARK    5  A    between atoms: C_6  and  C_7
REMARK                            x       y       z     vdW  Elec       q    Type
REMARK                         _______ _______ _______ _____ _____    ______ ____
ROOT
ATOM      1  C   UNL     1      -6.875  -2.128 125.209  0.00  0.00    +0.000 C 
ENDROOT
BRANCH   1   2
ATOM      2  C   UNL     1      -7.396  -2.654 126.524  0.00  0.00    +0.000 A 
ATOM      3  C   UNL     1      -8.492  -3.529 126.564  0.00  0.00    +0.000 A 
ATOM      4  C   UNL     1      -9.081  -3.869 127.781  0.00  0.00    +0.000 A 
ATOM      5  C   UNL     1      -8.518  -3.423 128.975  0.00  0.00    +0.000 A 
ATOM      6  C   UNL     1      -7.393  -2.601 128.949  0.00  0.00    +0.000 A 
ATOM      7  C   UNL     1      -6.839  -2.210 127.730  0.00  0.00    +0.000 A 
ENDBRANCH   1   2
BRANCH   1   8
ATOM      8  C   UNL     1      -7.360  -3.004 124.052  0.00  0.00    +0.000 C 
BRANCH   8   9
ATOM      9  C   UNL     1      -7.897  -2.189 122.876  0.00  0.00    +0.000 C 
BRANCH   9  10
ATOM     10  C   UNL     1      -9.396  -2.032 123.002  0.00  0.00    +0.000 C 
ATOM     11  O   UNL     1     -10.012  -1.000 122.766  0.00  0.00    +0.000 OA
BRANCH  10  12
ATOM     12  O   UNL     1     -10.029  -3.153 123.412  0.00  0.00    +0.000 OA
ATOM     13  H   UNL     1     -10.544  -3.065 124.235  0.00  0.00    +0.000 HD
ENDBRANCH  10  12
ENDBRANCH   9  10
ENDBRANCH   8   9
ENDBRANCH   1   8
TORSDOF 5
ENDMDL
MODEL 8
REMARK VINA RESULT:      -5.1      9.018      9.957
REMARK  Name = Phenylbutyric acid
REMARK  5 active torsions:
REMARK  status: ('A' for Active; 'I' for Inactive)
REMARK    1  A    between atoms: O_1  and  C_2
REMARK    2  A    between atoms: C_2  and  C_4
REMARK    3  A    between atoms: C_4  and  C_5
REMARK    4  A    between atoms: C_5  and  C_6
REMARK    5  A    between atoms: C_6  and  C_7
REMARK                            x       y       z     vdW  Elec       q    Type
REMARK                         _______ _______ _______ _____ _____    ______ ____
ROOT
ATOM      1  C   UNL     1      -9.187   7.102 130.446  0.00  0.00    +0.000 C 
ENDROOT
BRANCH   1   2
ATOM      2  C   UNL     1     -10.432   7.501 129.689  0.00  0.00    +0.000 A 
ATOM      3  C   UNL     1     -10.353   7.935 128.357  0.00  0.00    +0.000 A 
ATOM      4  C   UNL     1     -11.473   8.470 127.722  0.00  0.00    +0.000 A 
ATOM      5  C   UNL     1     -12.704   8.481 128.375  0.00  0.00    +0.000 A 
ATOM      6  C   UNL     1     -12.806   7.998 129.678  0.00  0.00    +0.000 A 
ATOM      7  C   UNL     1     -11.673   7.518 130.337  0.00  0.00    +0.000 A 
ENDBRANCH   1   2
BRANCH   1   8
ATOM      8  C   UNL     1      -9.520   6.046 131.503  0.00  0.00    +0.000 C 
BRANCH   8   9
ATOM      9  C   UNL     1      -9.105   4.636 131.082  0.00  0.00    +0.000 C 
BRANCH   9  10
ATOM     10  C   UNL     1     -10.337   3.793 130.831  0.00  0.00    +0.000 C 
ATOM     11  O   UNL     1     -11.198   4.047 129.999  0.00  0.00    +0.000 OA
BRANCH  10  12
ATOM     12  O   UNL     1     -10.421   2.703 131.623  0.00  0.00    +0.000 OA
ATOM     13  H   UNL     1     -10.780   1.903 131.197  0.00  0.00    +0.000 HD
ENDBRANCH  10  12
ENDBRANCH   9  10
ENDBRANCH   8   9
ENDBRANCH   1   8
TORSDOF 5
ENDMDL
MODEL 9
REMARK VINA RESULT:      -5.1      8.304     10.357
REMARK  Name = Phenylbutyric acid
REMARK  5 active torsions:
REMARK  status: ('A' for Active; 'I' for Inactive)
REMARK    1  A    between atoms: O_1  and  C_2
REMARK    2  A    between atoms: C_2  and  C_4
REMARK    3  A    between atoms: C_4  and  C_5
REMARK    4  A    between atoms: C_5  and  C_6
REMARK    5  A    between atoms: C_6  and  C_7
REMARK                            x       y       z     vdW  Elec       q    Type
REMARK                         _______ _______ _______ _____ _____    ______ ____
ROOT
ATOM      1  C   UNL     1      -9.972   6.898 128.878  0.00  0.00    +0.000 C 
ENDROOT
BRANCH   1   2
ATOM      2  C   UNL     1      -9.634   6.663 130.330  0.00  0.00    +0.000 A 
ATOM      3  C   UNL     1      -8.299   6.634 130.761  0.00  0.00    +0.000 A 
ATOM      4  C   UNL     1      -7.985   6.240 132.061  0.00  0.00    +0.000 A 
ATOM      5  C   UNL     1      -9.004   5.971 132.972  0.00  0.00    +0.000 A 
ATOM      6  C   UNL     1     -10.336   6.054 132.571  0.00  0.00    +0.000 A 
ATOM      7  C   UNL     1     -10.651   6.389 131.254  0.00  0.00    +0.000 A 
ENDBRANCH   1   2
BRANCH   1   8
ATOM      8  C   UNL     1     -10.427   8.344 128.662  0.00  0.00    +0.000 C 
BRANCH   8   9
ATOM      9  C   UNL     1     -11.763   8.442 127.927  0.00  0.00    +0.000 C 
BRANCH   9  10
ATOM     10  C   UNL     1     -11.726   7.586 126.680  0.00  0.00    +0.000 C 
ATOM     11  O   UNL     1     -12.439   6.611 126.482  0.00  0.00    +0.000 OA
BRANCH  10  12
ATOM     12  O   UNL     1     -10.814   7.989 125.769  0.00  0.00    +0.000 OA
ATOM     13  H   UNL     1     -10.728   8.955 125.663  0.00  0.00    +0.000 HD
ENDBRANCH  10  12
ENDBRANCH   9  10
ENDBRANCH   8   9
ENDBRANCH   1   8
TORSDOF 5
ENDMDL
