MODEL 1
REMARK VINA RESULT:      -7.1      0.000      0.000
REMARK  Name = Phenyl salicylate
REMARK  4 active torsions:
REMARK  status: ('A' for Active; 'I' for Inactive)
REMARK    1  A    between atoms: O_1  and  C_2
REMARK    2  A    between atoms: C_7  and  C_8
REMARK    3  A    between atoms: C_8  and  O_10
REMARK    4  A    between atoms: O_10  and  C_11
REMARK                            x       y       z     vdW  Elec       q    Type
REMARK                         _______ _______ _______ _____ _____    ______ ____
ROOT
ATOM      1  C   UNL     1      -9.801   7.121 130.463  0.00  0.00    +0.000 C 
ATOM      2  O   UNL     1      -9.372   7.681 129.448  0.00  0.00    +0.000 OA
ENDROOT
BRANCH   1   8
ATOM      3  C   UNL     1      -9.184   5.881 132.656  0.00  0.00    +0.000 A 
ATOM      4  C   UNL     1      -8.215   5.591 133.619  0.00  0.00    +0.000 A 
ATOM      5  C   UNL     1      -6.869   5.742 133.313  0.00  0.00    +0.000 A 
ATOM      6  C   UNL     1      -6.494   6.235 132.065  0.00  0.00    +0.000 A 
ATOM      7  C   UNL     1      -7.471   6.652 131.155  0.00  0.00    +0.000 A 
ATOM      8  C   UNL     1      -8.841   6.506 131.445  0.00  0.00    +0.000 A 
BRANCH   3   9
ATOM      9  O   UNL     1     -10.465   5.513 132.951  0.00  0.00    +0.000 OA
ATOM     10  H   UNL     1     -11.031   5.699 132.179  0.00  0.00    +0.000 HD
ENDBRANCH   3   9
ENDBRANCH   1   8
BRANCH   1  11
ATOM     11  O   UNL     1     -11.175   7.104 130.703  0.00  0.00    +0.000 OA
BRANCH  11  12
ATOM     12  C   UNL     1     -12.189   7.454 129.779  0.00  0.00    +0.000 A 
ATOM     13  C   UNL     1     -12.479   8.811 129.650  0.00  0.00    +0.000 A 
ATOM     14  C   UNL     1     -13.354   9.219 128.644  0.00  0.00    +0.000 A 
ATOM     15  C   UNL     1     -13.882   8.283 127.749  0.00  0.00    +0.000 A 
ATOM     16  C   UNL     1     -13.593   6.929 127.899  0.00  0.00    +0.000 A 
ATOM     17  C   UNL     1     -12.810   6.506 128.963  0.00  0.00    +0.000 A 
ENDBRANCH  11  12
ENDBRANCH   1  11
TORSDOF 4
ENDMDL
MODEL 2
REMARK VINA RESULT:      -7.0      9.756     10.683
REMARK  Name = Phenyl salicylate
REMARK  4 active torsions:
REMARK  status: ('A' for Active; 'I' for Inactive)
REMARK    1  A    between atoms: O_1  and  C_2
REMARK    2  A    between atoms: C_7  and  C_8
REMARK    3  A    between atoms: C_8  and  O_10
REMARK    4  A    between atoms: O_10  and  C_11
REMARK                            x       y       z     vdW  Elec       q    Type
REMARK                         _______ _______ _______ _____ _____    ______ ____
ROOT
ATOM      1  C   UNL     1      -8.853   2.175 123.833  0.00  0.00    +0.000 C 
ATOM      2  O   UNL     1      -9.020   2.434 125.030  0.00  0.00    +0.000 OA
ENDROOT
BRANCH   1   8
ATOM      3  C   UNL     1      -9.491  -0.163 122.908  0.00  0.00    +0.000 A 
ATOM      4  C   UNL     1      -9.176  -1.519 122.799  0.00  0.00    +0.000 A 
ATOM      5  C   UNL     1      -7.869  -1.943 122.998  0.00  0.00    +0.000 A 
ATOM      6  C   UNL     1      -6.890  -1.021 123.360  0.00  0.00    +0.000 A 
ATOM      7  C   UNL     1      -7.239   0.312 123.601  0.00  0.00    +0.000 A 
ATOM      8  C   UNL     1      -8.558   0.763 123.403  0.00  0.00    +0.000 A 
BRANCH   3   9
ATOM      9  O   UNL     1     -10.740   0.207 122.497  0.00  0.00    +0.000 OA
ATOM     10  H   UNL     1     -11.069  -0.453 121.859  0.00  0.00    +0.000 HD
ENDBRANCH   3   9
ENDBRANCH   1   8
BRANCH   1  11
ATOM     11  O   UNL     1      -8.982   3.195 122.891  0.00  0.00    +0.000 OA
BRANCH  11  12
ATOM     12  C   UNL     1      -8.094   3.458 121.818  0.00  0.00    +0.000 A 
ATOM     13  C   UNL     1      -8.672   3.784 120.594  0.00  0.00    +0.000 A 
ATOM     14  C   UNL     1      -7.845   4.205 119.552  0.00  0.00    +0.000 A 
ATOM     15  C   UNL     1      -6.470   4.348 119.760  0.00  0.00    +0.000 A 
ATOM     16  C   UNL     1      -5.906   4.006 120.986  0.00  0.00    +0.000 A 
ATOM     17  C   UNL     1      -6.709   3.484 121.991  0.00  0.00    +0.000 A 
ENDBRANCH  11  12
ENDBRANCH   1  11
TORSDOF 4
ENDMDL
MODEL 3
REMARK VINA RESULT:      -6.9      1.950      5.607
REMARK  Name = Phenyl salicylate
REMARK  4 active torsions:
REMARK  status: ('A' for Active; 'I' for Inactive)
REMARK    1  A    between atoms: O_1  and  C_2
REMARK    2  A    between atoms: C_7  and  C_8
REMARK    3  A    between atoms: C_8  and  O_10
REMARK    4  A    between atoms: O_10  and  C_11
REMARK                            x       y       z     vdW  Elec       q    Type
REMARK                         _______ _______ _______ _____ _____    ______ ____
ROOT
ATOM      1  C   UNL     1      -9.698   7.100 130.654  0.00  0.00    +0.000 C 
ATOM      2  O   UNL     1      -8.573   7.440 130.272  0.00  0.00    +0.000 OA
ENDROOT
BRANCH   1   8
ATOM      3  C   UNL     1     -12.239   7.112 130.133  0.00  0.00    +0.000 A 
ATOM      4  C   UNL     1     -13.250   7.195 129.174  0.00  0.00    +0.000 A 
ATOM      5  C   UNL     1     -12.982   7.765 127.936  0.00  0.00    +0.000 A 
ATOM      6  C   UNL     1     -11.693   8.200 127.639  0.00  0.00    +0.000 A 
ATOM      7  C   UNL     1     -10.656   7.990 128.552  0.00  0.00    +0.000 A 
ATOM      8  C   UNL     1     -10.905   7.415 129.813  0.00  0.00    +0.000 A 
BRANCH   3   9
ATOM      9  O   UNL     1     -12.621   6.736 131.389  0.00  0.00    +0.000 OA
ATOM     10  H   UNL     1     -12.376   5.802 131.526  0.00  0.00    +0.000 HD
ENDBRANCH   3   9
ENDBRANCH   1   8
BRANCH   1  11
ATOM     11  O   UNL     1      -9.827   6.388 131.847  0.00  0.00    +0.000 OA
BRANCH  11  12
ATOM     12  C   UNL     1      -9.617   4.998 132.017  0.00  0.00    +0.000 A 
ATOM     13  C   UNL     1      -9.151   4.583 133.262  0.00  0.00    +0.000 A 
ATOM     14  C   UNL     1      -9.080   3.216 133.532  0.00  0.00    +0.000 A 
ATOM     15  C   UNL     1      -9.524   2.289 132.584  0.00  0.00    +0.000 A 
ATOM     16  C   UNL     1      -9.976   2.719 131.339  0.00  0.00    +0.000 A 
ATOM     17  C   UNL     1      -9.947   4.071 131.027  0.00  0.00    +0.000 A 
ENDBRANCH  11  12
ENDBRANCH   1  11
TORSDOF 4
ENDMDL
MODEL 4
REMARK VINA RESULT:      -6.9      1.183      2.141
REMARK  Name = Phenyl salicylate
REMARK  4 active torsions:
REMARK  status: ('A' for Active; 'I' for Inactive)
REMARK    1  A    between atoms: O_1  and  C_2
REMARK    2  A    between atoms: C_7  and  C_8
REMARK    3  A    between atoms: C_8  and  O_10
REMARK    4  A    between atoms: O_10  and  C_11
REMARK                            x       y       z     vdW  Elec       q    Type
REMARK                         _______ _______ _______ _____ _____    ______ ____
ROOT
ATOM      1  C   UNL     1     -11.245   5.426 130.770  0.00  0.00    +0.000 C 
ATOM      2  O   UNL     1     -11.346   4.375 130.128  0.00  0.00    +0.000 OA
ENDROOT
BRANCH   1   8
ATOM      3  C   UNL     1      -9.014   6.743 130.631  0.00  0.00    +0.000 A 
ATOM      4  C   UNL     1      -7.688   6.873 131.050  0.00  0.00    +0.000 A 
ATOM      5  C   UNL     1      -7.278   6.282 132.238  0.00  0.00    +0.000 A 
ATOM      6  C   UNL     1      -8.176   5.516 132.977  0.00  0.00    +0.000 A 
ATOM      7  C   UNL     1      -9.463   5.277 132.483  0.00  0.00    +0.000 A 
ATOM      8  C   UNL     1      -9.900   5.868 131.282  0.00  0.00    +0.000 A 
BRANCH   3   9
ATOM      9  O   UNL     1      -9.397   7.517 129.574  0.00  0.00    +0.000 OA
ATOM     10  H   UNL     1      -9.237   8.454 129.796  0.00  0.00    +0.000 HD
ENDBRANCH   3   9
ENDBRANCH   1   8
BRANCH   1  11
ATOM     11  O   UNL     1     -12.379   6.211 130.977  0.00  0.00    +0.000 OA
BRANCH  11  12
ATOM     12  C   UNL     1     -12.869   7.217 130.109  0.00  0.00    +0.000 A 
ATOM     13  C   UNL     1     -12.686   8.537 130.513  0.00  0.00    +0.000 A 
ATOM     14  C   UNL     1     -13.006   9.563 129.625  0.00  0.00    +0.000 A 
ATOM     15  C   UNL     1     -13.449   9.261 128.333  0.00  0.00    +0.000 A 
ATOM     16  C   UNL     1     -13.638   7.937 127.948  0.00  0.00    +0.000 A 
ATOM     17  C   UNL     1     -13.424   6.917 128.864  0.00  0.00    +0.000 A 
ENDBRANCH  11  12
ENDBRANCH   1  11
TORSDOF 4
ENDMDL
MODEL 5
REMARK VINA RESULT:      -6.9      1.389      5.978
REMARK  Name = Phenyl salicylate
REMARK  4 active torsions:
REMARK  status: ('A' for Active; 'I' for Inactive)
REMARK    1  A    between atoms: O_1  and  C_2
REMARK    2  A    between atoms: C_7  and  C_8
REMARK    3  A    between atoms: C_8  and  O_10
REMARK    4  A    between atoms: O_10  and  C_11
REMARK                            x       y       z     vdW  Elec       q    Type
REMARK                         _______ _______ _______ _____ _____    ______ ____
ROOT
ATOM      1  C   UNL     1     -11.557   5.875 130.415  0.00  0.00    +0.000 C 
ATOM      2  O   UNL     1     -11.633   4.821 129.775  0.00  0.00    +0.000 OA
ENDROOT
BRANCH   1   8
ATOM      3  C   UNL     1     -12.369   7.469 128.536  0.00  0.00    +0.000 A 
ATOM      4  C   UNL     1     -12.737   8.762 128.157  0.00  0.00    +0.000 A 
ATOM      5  C   UNL     1     -13.140   9.676 129.122  0.00  0.00    +0.000 A 
ATOM      6  C   UNL     1     -13.122   9.316 130.467  0.00  0.00    +0.000 A 
ATOM      7  C   UNL     1     -12.624   8.066 130.851  0.00  0.00    +0.000 A 
ATOM      8  C   UNL     1     -12.212   7.124 129.889  0.00  0.00    +0.000 A 
BRANCH   3   9
ATOM      9  O   UNL     1     -12.188   6.567 127.526  0.00  0.00    +0.000 OA
ATOM     10  H   UNL     1     -12.703   5.764 127.727  0.00  0.00    +0.000 HD
ENDBRANCH   3   9
ENDBRANCH   1   8
BRANCH   1  11
ATOM     11  O   UNL     1     -10.895   5.881 131.642  0.00  0.00    +0.000 OA
BRANCH  11  12
ATOM     12  C   UNL     1      -9.519   6.147 131.849  0.00  0.00    +0.000 A 
ATOM     13  C   UNL     1      -8.938   5.589 132.985  0.00  0.00    +0.000 A 
ATOM     14  C   UNL     1      -7.556   5.688 133.150  0.00  0.00    +0.000 A 
ATOM     15  C   UNL     1      -6.771   6.288 132.160  0.00  0.00    +0.000 A 
ATOM     16  C   UNL     1      -7.368   6.851 131.037  0.00  0.00    +0.000 A 
ATOM     17  C   UNL     1      -8.752   6.851 130.920  0.00  0.00    +0.000 A 
ENDBRANCH  11  12
ENDBRANCH   1  11
TORSDOF 4
ENDMDL
MODEL 6
REMARK VINA RESULT:      -6.8      1.899      5.889
REMARK  Name = Phenyl salicylate
REMARK  4 active torsions:
REMARK  status: ('A' for Active; 'I' for Inactive)
REMARK    1  A    between atoms: O_1  and  C_2
REMARK    2  A    between atoms: C_7  and  C_8
REMARK    3  A    between atoms: C_8  and  O_10
REMARK    4  A    between atoms: O_10  and  C_11
REMARK                            x       y       z     vdW  Elec       q    Type
REMARK                         _______ _______ _______ _____ _____    ______ ____
ROOT
ATOM      1  C   UNL     1     -11.562   6.744 131.221  0.00  0.00    +0.000 C 
ATOM      2  O   UNL     1     -12.636   6.800 131.830  0.00  0.00    +0.000 OA
ENDROOT
BRANCH   1   8
ATOM      3  C   UNL     1     -10.473   7.652 129.050  0.00  0.00    +0.000 A 
ATOM      4  C   UNL     1     -10.644   8.111 127.741  0.00  0.00    +0.000 A 
ATOM      5  C   UNL     1     -11.796   7.780 127.039  0.00  0.00    +0.000 A 
ATOM      6  C   UNL     1     -12.797   7.039 127.661  0.00  0.00    +0.000 A 
ATOM      7  C   UNL     1     -12.679   6.700 129.013  0.00  0.00    +0.000 A 
ATOM      8  C   UNL     1     -11.520   7.024 129.743  0.00  0.00    +0.000 A 
BRANCH   3   9
ATOM      9  O   UNL     1      -9.238   7.837 129.602  0.00  0.00    +0.000 OA
ATOM     10  H   UNL     1      -8.632   7.157 129.251  0.00  0.00    +0.000 HD
ENDBRANCH   3   9
ENDBRANCH   1   8
BRANCH   1  11
ATOM     11  O   UNL     1     -10.392   6.460 131.926  0.00  0.00    +0.000 OA
BRANCH  11  12
ATOM     12  C   UNL     1      -9.859   5.172 132.176  0.00  0.00    +0.000 A 
ATOM     13  C   UNL     1      -9.321   4.952 133.441  0.00  0.00    +0.000 A 
ATOM     14  C   UNL     1      -8.928   3.659 133.789  0.00  0.00    +0.000 A 
ATOM     15  C   UNL     1      -9.127   2.600 132.897  0.00  0.00    +0.000 A 
ATOM     16  C   UNL     1      -9.654   2.839 131.631  0.00  0.00    +0.000 A 
ATOM     17  C   UNL     1      -9.946   4.139 131.241  0.00  0.00    +0.000 A 
ENDBRANCH  11  12
ENDBRANCH   1  11
TORSDOF 4
ENDMDL
MODEL 7
REMARK VINA RESULT:      -6.7      1.817      2.309
REMARK  Name = Phenyl salicylate
REMARK  4 active torsions:
REMARK  status: ('A' for Active; 'I' for Inactive)
REMARK    1  A    between atoms: O_1  and  C_2
REMARK    2  A    between atoms: C_7  and  C_8
REMARK    3  A    between atoms: C_8  and  O_10
REMARK    4  A    between atoms: O_10  and  C_11
REMARK                            x       y       z     vdW  Elec       q    Type
REMARK                         _______ _______ _______ _____ _____    ______ ____
ROOT
ATOM      1  C   UNL     1     -10.420   5.310 130.056  0.00  0.00    +0.000 C 
ATOM      2  O   UNL     1      -9.535   5.887 129.414  0.00  0.00    +0.000 OA
ENDROOT
BRANCH   1   8
ATOM      3  C   UNL     1      -9.752   5.067 132.550  0.00  0.00    +0.000 A 
ATOM      4  C   UNL     1      -9.173   4.282 133.550  0.00  0.00    +0.000 A 
ATOM      5  C   UNL     1      -9.076   2.907 133.378  0.00  0.00    +0.000 A 
ATOM      6  C   UNL     1      -9.506   2.326 132.188  0.00  0.00    +0.000 A 
ATOM      7  C   UNL     1      -9.957   3.132 131.139  0.00  0.00    +0.000 A 
ATOM      8  C   UNL     1     -10.066   4.528 131.292  0.00  0.00    +0.000 A 
BRANCH   3   9
ATOM      9  O   UNL     1     -10.005   6.371 132.870  0.00  0.00    +0.000 OA
ATOM     10  H   UNL     1      -9.214   6.903 132.665  0.00  0.00    +0.000 HD
ENDBRANCH   3   9
ENDBRANCH   1   8
BRANCH   1  11
ATOM     11  O   UNL     1     -11.748   5.428 129.644  0.00  0.00    +0.000 OA
BRANCH  11  12
ATOM     12  C   UNL     1     -12.421   6.634 129.329  0.00  0.00    +0.000 A 
ATOM     13  C   UNL     1     -12.189   7.718 130.172  0.00  0.00    +0.000 A 
ATOM     14  C   UNL     1     -12.701   8.966 129.817  0.00  0.00    +0.000 A 
ATOM     15  C   UNL     1     -13.386   9.127 128.609  0.00  0.00    +0.000 A 
ATOM     16  C   UNL     1     -13.621   8.031 127.784  0.00  0.00    +0.000 A 
ATOM     17  C   UNL     1     -13.207   6.768 128.184  0.00  0.00    +0.000 A 
ENDBRANCH  11  12
ENDBRANCH   1  11
TORSDOF 4
ENDMDL
MODEL 8
REMARK VINA RESULT:      -6.7      1.567      5.987
REMARK  Name = Phenyl salicylate
REMARK  4 active torsions:
REMARK  status: ('A' for Active; 'I' for Inactive)
REMARK    1  A    between atoms: O_1  and  C_2
REMARK    2  A    between atoms: C_7  and  C_8
REMARK    3  A    between atoms: C_8  and  O_10
REMARK    4  A    between atoms: O_10  and  C_11
REMARK                            x       y       z     vdW  Elec       q    Type
REMARK                         _______ _______ _______ _____ _____    ______ ____
ROOT
ATOM      1  C   UNL     1      -9.432   6.857 130.916  0.00  0.00    +0.000 C 
ATOM      2  O   UNL     1      -8.364   6.710 130.311  0.00  0.00    +0.000 OA
ENDROOT
BRANCH   1   8
ATOM      3  C   UNL     1     -11.988   6.852 130.478  0.00  0.00    +0.000 A 
ATOM      4  C   UNL     1     -13.034   7.033 129.570  0.00  0.00    +0.000 A 
ATOM      5  C   UNL     1     -12.826   7.778 128.417  0.00  0.00    +0.000 A 
ATOM      6  C   UNL     1     -11.562   8.295 128.145  0.00  0.00    +0.000 A 
ATOM      7  C   UNL     1     -10.488   7.996 128.989  0.00  0.00    +0.000 A 
ATOM      8  C   UNL     1     -10.677   7.244 130.164  0.00  0.00    +0.000 A 
BRANCH   3   9
ATOM      9  O   UNL     1     -12.316   6.293 131.680  0.00  0.00    +0.000 OA
ATOM     10  H   UNL     1     -11.516   5.893 132.069  0.00  0.00    +0.000 HD
ENDBRANCH   3   9
ENDBRANCH   1   8
BRANCH   1  11
ATOM     11  O   UNL     1      -9.475   6.620 132.290  0.00  0.00    +0.000 OA
BRANCH  11  12
ATOM     12  C   UNL     1      -9.017   5.453 132.952  0.00  0.00    +0.000 A 
ATOM     13  C   UNL     1      -9.494   4.235 132.473  0.00  0.00    +0.000 A 
ATOM     14  C   UNL     1      -8.954   3.055 132.985  0.00  0.00    +0.000 A 
ATOM     15  C   UNL     1      -7.915   3.105 133.919  0.00  0.00    +0.000 A 
ATOM     16  C   UNL     1      -7.458   4.330 134.397  0.00  0.00    +0.000 A 
ATOM     17  C   UNL     1      -8.065   5.504 133.971  0.00  0.00    +0.000 A 
ENDBRANCH  11  12
ENDBRANCH   1  11
TORSDOF 4
ENDMDL
MODEL 9
REMARK VINA RESULT:      -6.4      2.020      2.501
REMARK  Name = Phenyl salicylate
REMARK  4 active torsions:
REMARK  status: ('A' for Active; 'I' for Inactive)
REMARK    1  A    between atoms: O_1  and  C_2
REMARK    2  A    between atoms: C_7  and  C_8
REMARK    3  A    between atoms: C_8  and  O_10
REMARK    4  A    between atoms: O_10  and  C_11
REMARK                            x       y       z     vdW  Elec       q    Type
REMARK                         _______ _______ _______ _____ _____    ______ ____
ROOT
ATOM      1  C   UNL     1     -10.339   4.564 130.437  0.00  0.00    +0.000 C 
ATOM      2  O   UNL     1     -11.242   3.743 130.240  0.00  0.00    +0.000 OA
ENDROOT
BRANCH   1   8
ATOM      3  C   UNL     1      -9.540   3.457 132.643  0.00  0.00    +0.000 A 
ATOM      4  C   UNL     1      -8.977   3.617 133.912  0.00  0.00    +0.000 A 
ATOM      5  C   UNL     1      -8.233   4.753 134.199  0.00  0.00    +0.000 A 
ATOM      6  C   UNL     1      -8.097   5.753 133.239  0.00  0.00    +0.000 A 
ATOM      7  C   UNL     1      -8.775   5.649 132.020  0.00  0.00    +0.000 A 
ATOM      8  C   UNL     1      -9.534   4.505 131.708  0.00  0.00    +0.000 A 
BRANCH   3   9
ATOM      9  O   UNL     1     -10.077   2.233 132.365  0.00  0.00    +0.000 OA
ATOM     10  H   UNL     1      -9.853   1.993 131.447  0.00  0.00    +0.000 HD
ENDBRANCH   3   9
ENDBRANCH   1   8
BRANCH   1  11
ATOM     11  O   UNL     1     -10.052   5.511 129.455  0.00  0.00    +0.000 OA
BRANCH  11  12
ATOM     12  C   UNL     1     -10.758   6.718 129.226  0.00  0.00    +0.000 A 
ATOM     13  C   UNL     1     -10.663   7.266 127.949  0.00  0.00    +0.000 A 
ATOM     14  C   UNL     1     -11.463   8.362 127.627  0.00  0.00    +0.000 A 
ATOM     15  C   UNL     1     -12.381   8.859 128.557  0.00  0.00    +0.000 A 
ATOM     16  C   UNL     1     -12.456   8.308 129.833  0.00  0.00    +0.000 A 
ATOM     17  C   UNL     1     -11.587   7.288 130.194  0.00  0.00    +0.000 A 
ENDBRANCH  11  12
ENDBRANCH   1  11
TORSDOF 4
ENDMDL
