MODEL 1
REMARK VINA RESULT:      -4.7      0.000      0.000
REMARK  Name = Phenol
REMARK  1 active torsions:
REMARK  status: ('A' for Active; 'I' for Inactive)
REMARK    1  A    between atoms: O_1  and  C_2
REMARK                            x       y       z     vdW  Elec       q    Type
REMARK                         _______ _______ _______ _____ _____    ______ ____
ROOT
ATOM      1  C   UNL     1      -4.992   5.464 120.472  0.00  0.00    +0.000 A 
ATOM      2  C   UNL     1      -5.526   5.808 119.235  0.00  0.00    +0.000 A 
ATOM      3  C   UNL     1      -6.599   5.075 118.723  0.00  0.00    +0.000 A 
ATOM      4  C   UNL     1      -7.127   4.008 119.451  0.00  0.00    +0.000 A 
ATOM      5  C   UNL     1      -6.588   3.674 120.694  0.00  0.00    +0.000 A 
ATOM      6  C   UNL     1      -5.517   4.405 121.206  0.00  0.00    +0.000 A 
ENDROOT
BRANCH   1   7
ATOM      7  O   UNL     1      -3.937   6.145 121.005  0.00  0.00    +0.000 OA
ATOM      8  H   UNL     1      -3.116   5.752 120.668  0.00  0.00    +0.000 HD
ENDBRANCH   1   7
TORSDOF 1
ENDMDL
MODEL 2
REMARK VINA RESULT:      -4.6      9.849     10.358
REMARK  Name = Phenol
REMARK  1 active torsions:
REMARK  status: ('A' for Active; 'I' for Inactive)
REMARK    1  A    between atoms: O_1  and  C_2
REMARK                            x       y       z     vdW  Elec       q    Type
REMARK                         _______ _______ _______ _____ _____    ______ ____
ROOT
ATOM      1  C   UNL     1     -11.401   7.271 126.921  0.00  0.00    +0.000 A 
ATOM      2  C   UNL     1     -12.767   7.018 126.854  0.00  0.00    +0.000 A 
ATOM      3  C   UNL     1     -13.633   7.687 127.722  0.00  0.00    +0.000 A 
ATOM      4  C   UNL     1     -13.126   8.603 128.645  0.00  0.00    +0.000 A 
ATOM      5  C   UNL     1     -11.755   8.854 128.701  0.00  0.00    +0.000 A 
ATOM      6  C   UNL     1     -10.890   8.187 127.835  0.00  0.00    +0.000 A 
ENDROOT
BRANCH   1   7
ATOM      7  O   UNL     1     -10.519   6.632 126.100  0.00  0.00    +0.000 OA
ATOM      8  H   UNL     1     -10.980   6.397 125.278  0.00  0.00    +0.000 HD
ENDBRANCH   1   7
TORSDOF 1
ENDMDL
MODEL 3
REMARK VINA RESULT:      -4.4      1.474      2.178
REMARK  Name = Phenol
REMARK  1 active torsions:
REMARK  status: ('A' for Active; 'I' for Inactive)
REMARK    1  A    between atoms: O_1  and  C_2
REMARK                            x       y       z     vdW  Elec       q    Type
REMARK                         _______ _______ _______ _____ _____    ______ ____
ROOT
ATOM      1  C   UNL     1      -6.016   5.289 118.986  0.00  0.00    +0.000 A 
ATOM      2  C   UNL     1      -7.237   4.628 119.089  0.00  0.00    +0.000 A 
ATOM      3  C   UNL     1      -7.504   3.855 120.220  0.00  0.00    +0.000 A 
ATOM      4  C   UNL     1      -6.554   3.750 121.237  0.00  0.00    +0.000 A 
ATOM      5  C   UNL     1      -5.336   4.422 121.127  0.00  0.00    +0.000 A 
ATOM      6  C   UNL     1      -5.066   5.194 119.997  0.00  0.00    +0.000 A 
ENDROOT
BRANCH   1   7
ATOM      7  O   UNL     1      -5.709   6.046 117.894  0.00  0.00    +0.000 OA
ATOM      8  H   UNL     1      -6.254   6.850 117.914  0.00  0.00    +0.000 HD
ENDBRANCH   1   7
TORSDOF 1
ENDMDL
MODEL 4
REMARK VINA RESULT:      -4.3      7.995      9.082
REMARK  Name = Phenol
REMARK  1 active torsions:
REMARK  status: ('A' for Active; 'I' for Inactive)
REMARK    1  A    between atoms: O_1  and  C_2
REMARK                            x       y       z     vdW  Elec       q    Type
REMARK                         _______ _______ _______ _____ _____    ______ ____
ROOT
ATOM      1  C   UNL     1      -8.759  -3.026 123.500  0.00  0.00    +0.000 A 
ATOM      2  C   UNL     1      -8.264  -2.068 122.621  0.00  0.00    +0.000 A 
ATOM      3  C   UNL     1      -6.897  -1.783 122.617  0.00  0.00    +0.000 A 
ATOM      4  C   UNL     1      -6.039  -2.458 123.487  0.00  0.00    +0.000 A 
ATOM      5  C   UNL     1      -6.545  -3.421 124.360  0.00  0.00    +0.000 A 
ATOM      6  C   UNL     1      -7.910  -3.707 124.366  0.00  0.00    +0.000 A 
ENDROOT
BRANCH   1   7
ATOM      7  O   UNL     1     -10.089  -3.328 123.546  0.00  0.00    +0.000 OA
ATOM      8  H   UNL     1     -10.332  -3.501 124.470  0.00  0.00    +0.000 HD
ENDBRANCH   1   7
TORSDOF 1
ENDMDL
MODEL 5
REMARK VINA RESULT:      -4.3     11.322     11.886
REMARK  Name = Phenol
REMARK  1 active torsions:
REMARK  status: ('A' for Active; 'I' for Inactive)
REMARK    1  A    between atoms: O_1  and  C_2
REMARK                            x       y       z     vdW  Elec       q    Type
REMARK                         _______ _______ _______ _____ _____    ______ ____
ROOT
ATOM      1  C   UNL     1     -12.461   6.650 129.205  0.00  0.00    +0.000 A 
ATOM      2  C   UNL     1     -12.133   7.738 130.007  0.00  0.00    +0.000 A 
ATOM      3  C   UNL     1     -12.618   9.005 129.676  0.00  0.00    +0.000 A 
ATOM      4  C   UNL     1     -13.424   9.173 128.550  0.00  0.00    +0.000 A 
ATOM      5  C   UNL     1     -13.752   8.075 127.755  0.00  0.00    +0.000 A 
ATOM      6  C   UNL     1     -13.269   6.809 128.084  0.00  0.00    +0.000 A 
ENDROOT
BRANCH   1   7
ATOM      7  O   UNL     1     -12.002   5.397 129.485  0.00  0.00    +0.000 OA
ATOM      8  H   UNL     1     -12.058   5.257 130.444  0.00  0.00    +0.000 HD
ENDBRANCH   1   7
TORSDOF 1
ENDMDL
MODEL 6
REMARK VINA RESULT:      -4.3     11.698     12.122
REMARK  Name = Phenol
REMARK  1 active torsions:
REMARK  status: ('A' for Active; 'I' for Inactive)
REMARK    1  A    between atoms: O_1  and  C_2
REMARK                            x       y       z     vdW  Elec       q    Type
REMARK                         _______ _______ _______ _____ _____    ______ ____
ROOT
ATOM      1  C   UNL     1     -13.151   9.354 129.019  0.00  0.00    +0.000 A 
ATOM      2  C   UNL     1     -13.662   8.690 127.908  0.00  0.00    +0.000 A 
ATOM      3  C   UNL     1     -13.622   7.295 127.864  0.00  0.00    +0.000 A 
ATOM      4  C   UNL     1     -13.074   6.578 128.928  0.00  0.00    +0.000 A 
ATOM      5  C   UNL     1     -12.570   7.253 130.040  0.00  0.00    +0.000 A 
ATOM      6  C   UNL     1     -12.609   8.646 130.086  0.00  0.00    +0.000 A 
ENDROOT
BRANCH   1   7
ATOM      7  O   UNL     1     -13.161  10.716 129.099  0.00  0.00    +0.000 OA
ATOM      8  H   UNL     1     -14.069  11.006 129.286  0.00  0.00    +0.000 HD
ENDBRANCH   1   7
TORSDOF 1
ENDMDL
MODEL 7
REMARK VINA RESULT:      -4.2      2.725      3.843
REMARK  Name = Phenol
REMARK  1 active torsions:
REMARK  status: ('A' for Active; 'I' for Inactive)
REMARK    1  A    between atoms: O_1  and  C_2
REMARK                            x       y       z     vdW  Elec       q    Type
REMARK                         _______ _______ _______ _____ _____    ______ ____
ROOT
ATOM      1  C   UNL     1      -8.569   3.926 120.127  0.00  0.00    +0.000 A 
ATOM      2  C   UNL     1      -8.629   3.414 121.419  0.00  0.00    +0.000 A 
ATOM      3  C   UNL     1      -7.450   3.255 122.149  0.00  0.00    +0.000 A 
ATOM      4  C   UNL     1      -6.224   3.609 121.583  0.00  0.00    +0.000 A 
ATOM      5  C   UNL     1      -6.175   4.127 120.289  0.00  0.00    +0.000 A 
ATOM      6  C   UNL     1      -7.352   4.286 119.558  0.00  0.00    +0.000 A 
ENDROOT
BRANCH   1   7
ATOM      7  O   UNL     1      -9.695   4.088 119.374  0.00  0.00    +0.000 OA
ATOM      8  H   UNL     1      -9.884   3.250 118.919  0.00  0.00    +0.000 HD
ENDBRANCH   1   7
TORSDOF 1
ENDMDL
MODEL 8
REMARK VINA RESULT:      -4.1      1.684      2.444
REMARK  Name = Phenol
REMARK  1 active torsions:
REMARK  status: ('A' for Active; 'I' for Inactive)
REMARK    1  A    between atoms: O_1  and  C_2
REMARK                            x       y       z     vdW  Elec       q    Type
REMARK                         _______ _______ _______ _____ _____    ______ ____
ROOT
ATOM      1  C   UNL     1      -6.453   3.888 121.058  0.00  0.00    +0.000 A 
ATOM      2  C   UNL     1      -5.309   4.634 120.791  0.00  0.00    +0.000 A 
ATOM      3  C   UNL     1      -5.227   5.363 119.603  0.00  0.00    +0.000 A 
ATOM      4  C   UNL     1      -6.286   5.340 118.694  0.00  0.00    +0.000 A 
ATOM      5  C   UNL     1      -7.431   4.593 118.974  0.00  0.00    +0.000 A 
ATOM      6  C   UNL     1      -7.515   3.865 120.160  0.00  0.00    +0.000 A 
ENDROOT
BRANCH   1   7
ATOM      7  O   UNL     1      -6.571   3.153 122.201  0.00  0.00    +0.000 OA
ATOM      8  H   UNL     1      -7.279   2.500 122.074  0.00  0.00    +0.000 HD
ENDBRANCH   1   7
TORSDOF 1
ENDMDL
MODEL 9
REMARK VINA RESULT:      -4.1     11.199     11.720
REMARK  Name = Phenol
REMARK  1 active torsions:
REMARK  status: ('A' for Active; 'I' for Inactive)
REMARK    1  A    between atoms: O_1  and  C_2
REMARK                            x       y       z     vdW  Elec       q    Type
REMARK                         _______ _______ _______ _____ _____    ______ ____
ROOT
ATOM      1  C   UNL     1     -12.512   7.248 128.014  0.00  0.00    +0.000 A 
ATOM      2  C   UNL     1     -12.593   8.629 128.161  0.00  0.00    +0.000 A 
ATOM      3  C   UNL     1     -12.738   9.176 129.437  0.00  0.00    +0.000 A 
ATOM      4  C   UNL     1     -12.801   8.340 130.553  0.00  0.00    +0.000 A 
ATOM      5  C   UNL     1     -12.713   6.957 130.396  0.00  0.00    +0.000 A 
ATOM      6  C   UNL     1     -12.567   6.409 129.122  0.00  0.00    +0.000 A 
ENDROOT
BRANCH   1   7
ATOM      7  O   UNL     1     -12.380   6.670 126.786  0.00  0.00    +0.000 OA
ATOM      8  H   UNL     1     -11.840   7.255 126.228  0.00  0.00    +0.000 HD
ENDBRANCH   1   7
TORSDOF 1
ENDMDL
