MODEL 1
REMARK VINA RESULT:      -7.2      0.000      0.000
REMARK  Name = Phenobarbital
REMARK  3 active torsions:
REMARK  status: ('A' for Active; 'I' for Inactive)
REMARK    1  A    between atoms: C_1  and  C_2
REMARK    2  A    between atoms: C_2  and  C_3
REMARK    3  A    between atoms: C_3  and  C_12
REMARK                            x       y       z     vdW  Elec       q    Type
REMARK                         _______ _______ _______ _____ _____    ______ ____
ROOT
ATOM      1  C   UNL     1      -9.828   6.195 130.355  0.00  0.00    +0.000 C 
ATOM      2  C   UNL     1     -10.258   5.764 131.765  0.00  0.00    +0.000 C 
ATOM      3  O   UNL     1     -10.710   6.541 132.610  0.00  0.00    +0.000 OA
ATOM      4  N   UNL     1     -10.061   4.464 132.126  0.00  0.00    +0.000 N 
ATOM      5  C   UNL     1      -9.576   3.461 131.352  0.00  0.00    +0.000 C 
ATOM      6  O   UNL     1      -9.474   2.317 131.764  0.00  0.00    +0.000 OA
ATOM      7  N   UNL     1      -9.207   3.792 130.095  0.00  0.00    +0.000 N 
ATOM      8  C   UNL     1      -9.262   5.021 129.531  0.00  0.00    +0.000 C 
ATOM      9  O   UNL     1      -8.867   5.109 128.364  0.00  0.00    +0.000 OA
ATOM     10  H   UNL     1     -10.325   4.216 133.069  0.00  0.00    +0.000 HD
ATOM     11  H   UNL     1      -8.861   3.053 129.499  0.00  0.00    +0.000 HD
ENDROOT
BRANCH   1  12
ATOM     12  C   UNL     1     -10.994   6.879 129.606  0.00  0.00    +0.000 A 
ATOM     13  C   UNL     1     -12.253   6.261 129.487  0.00  0.00    +0.000 A 
ATOM     14  C   UNL     1     -13.211   6.731 128.596  0.00  0.00    +0.000 A 
ATOM     15  C   UNL     1     -12.995   7.919 127.916  0.00  0.00    +0.000 A 
ATOM     16  C   UNL     1     -11.801   8.612 128.096  0.00  0.00    +0.000 A 
ATOM     17  C   UNL     1     -10.802   8.091 128.920  0.00  0.00    +0.000 A 
ENDBRANCH   1  12
BRANCH   1  19
ATOM     18  C   UNL     1      -7.423   6.611 131.263  0.00  0.00    +0.000 C 
ATOM     19  C   UNL     1      -8.659   7.207 130.600  0.00  0.00    +0.000 C 
ENDBRANCH   1  19
TORSDOF 2
ENDMDL
MODEL 2
REMARK VINA RESULT:      -6.7      8.648     10.334
REMARK  Name = Phenobarbital
REMARK  3 active torsions:
REMARK  status: ('A' for Active; 'I' for Inactive)
REMARK    1  A    between atoms: C_1  and  C_2
REMARK    2  A    between atoms: C_2  and  C_3
REMARK    3  A    between atoms: C_3  and  C_12
REMARK                            x       y       z     vdW  Elec       q    Type
REMARK                         _______ _______ _______ _____ _____    ______ ____
ROOT
ATOM      1  C   UNL     1      -8.287  -2.180 125.310  0.00  0.00    +0.000 C 
ATOM      2  C   UNL     1      -8.989  -0.826 125.135  0.00  0.00    +0.000 C 
ATOM      3  O   UNL     1     -10.085  -0.553 125.633  0.00  0.00    +0.000 OA
ATOM      4  N   UNL     1      -8.403   0.100 124.324  0.00  0.00    +0.000 N 
ATOM      5  C   UNL     1      -7.211  -0.005 123.685  0.00  0.00    +0.000 C 
ATOM      6  O   UNL     1      -6.757   0.903 123.009  0.00  0.00    +0.000 OA
ATOM      7  N   UNL     1      -6.548  -1.173 123.831  0.00  0.00    +0.000 N 
ATOM      8  C   UNL     1      -6.952  -2.252 124.541  0.00  0.00    +0.000 C 
ATOM      9  O   UNL     1      -6.195  -3.227 124.540  0.00  0.00    +0.000 OA
ATOM     10  H   UNL     1      -8.901   0.971 124.203  0.00  0.00    +0.000 HD
ATOM     11  H   UNL     1      -5.650  -1.262 123.376  0.00  0.00    +0.000 HD
ENDROOT
BRANCH   1  12
ATOM     12  C   UNL     1      -8.076  -2.505 126.807  0.00  0.00    +0.000 A 
ATOM     13  C   UNL     1      -8.732  -3.587 127.423  0.00  0.00    +0.000 A 
ATOM     14  C   UNL     1      -8.769  -3.722 128.805  0.00  0.00    +0.000 A 
ATOM     15  C   UNL     1      -8.020  -2.868 129.600  0.00  0.00    +0.000 A 
ATOM     16  C   UNL     1      -7.273  -1.853 129.012  0.00  0.00    +0.000 A 
ATOM     17  C   UNL     1      -7.311  -1.660 127.630  0.00  0.00    +0.000 A 
ENDBRANCH   1  12
BRANCH   1  19
ATOM     18  C   UNL     1      -9.440  -3.061 123.148  0.00  0.00    +0.000 C 
ATOM     19  C   UNL     1      -9.266  -3.211 124.654  0.00  0.00    +0.000 C 
ENDBRANCH   1  19
TORSDOF 2
ENDMDL
MODEL 3
REMARK VINA RESULT:      -6.6      1.448      2.993
REMARK  Name = Phenobarbital
REMARK  3 active torsions:
REMARK  status: ('A' for Active; 'I' for Inactive)
REMARK    1  A    between atoms: C_1  and  C_2
REMARK    2  A    between atoms: C_2  and  C_3
REMARK    3  A    between atoms: C_3  and  C_12
REMARK                            x       y       z     vdW  Elec       q    Type
REMARK                         _______ _______ _______ _____ _____    ______ ____
ROOT
ATOM      1  C   UNL     1     -10.247   5.678 130.365  0.00  0.00    +0.000 C 
ATOM      2  C   UNL     1      -8.964   5.500 129.540  0.00  0.00    +0.000 C 
ATOM      3  O   UNL     1      -8.951   5.101 128.372  0.00  0.00    +0.000 OA
ATOM      4  N   UNL     1      -7.769   5.725 130.156  0.00  0.00    +0.000 N 
ATOM      5  C   UNL     1      -7.568   6.161 131.424  0.00  0.00    +0.000 C 
ATOM      6  O   UNL     1      -6.451   6.368 131.868  0.00  0.00    +0.000 OA
ATOM      7  N   UNL     1      -8.672   6.354 132.179  0.00  0.00    +0.000 N 
ATOM      8  C   UNL     1      -9.956   6.148 131.805  0.00  0.00    +0.000 C 
ATOM      9  O   UNL     1     -10.821   6.381 132.655  0.00  0.00    +0.000 OA
ATOM     10  H   UNL     1      -6.941   5.571 129.598  0.00  0.00    +0.000 HD
ATOM     11  H   UNL     1      -8.541   6.695 133.121  0.00  0.00    +0.000 HD
ENDROOT
BRANCH   1  12
ATOM     12  C   UNL     1     -11.229   6.642 129.661  0.00  0.00    +0.000 A 
ATOM     13  C   UNL     1     -12.541   6.247 129.340  0.00  0.00    +0.000 A 
ATOM     14  C   UNL     1     -13.332   6.993 128.475  0.00  0.00    +0.000 A 
ATOM     15  C   UNL     1     -12.891   8.230 128.031  0.00  0.00    +0.000 A 
ATOM     16  C   UNL     1     -11.639   8.697 128.420  0.00  0.00    +0.000 A 
ATOM     17  C   UNL     1     -10.807   7.906 129.214  0.00  0.00    +0.000 A 
ENDBRANCH   1  12
BRANCH   1  19
ATOM     18  C   UNL     1      -9.966   3.208 131.142  0.00  0.00    +0.000 C 
ATOM     19  C   UNL     1     -10.854   4.237 130.453  0.00  0.00    +0.000 C 
ENDBRANCH   1  19
TORSDOF 2
ENDMDL
MODEL 4
REMARK VINA RESULT:      -6.4      9.295     10.832
REMARK  Name = Phenobarbital
REMARK  3 active torsions:
REMARK  status: ('A' for Active; 'I' for Inactive)
REMARK    1  A    between atoms: C_1  and  C_2
REMARK    2  A    between atoms: C_2  and  C_3
REMARK    3  A    between atoms: C_3  and  C_12
REMARK                            x       y       z     vdW  Elec       q    Type
REMARK                         _______ _______ _______ _____ _____    ______ ____
ROOT
ATOM      1  C   UNL     1      -7.110  -2.319 125.358  0.00  0.00    +0.000 C 
ATOM      2  C   UNL     1      -8.063  -3.253 124.599  0.00  0.00    +0.000 C 
ATOM      3  O   UNL     1      -8.051  -4.481 124.710  0.00  0.00    +0.000 OA
ATOM      4  N   UNL     1      -8.920  -2.697 123.695  0.00  0.00    +0.000 N 
ATOM      5  C   UNL     1      -9.085  -1.379 123.422  0.00  0.00    +0.000 C 
ATOM      6  O   UNL     1      -9.912  -0.983 122.618  0.00  0.00    +0.000 OA
ATOM      7  N   UNL     1      -8.282  -0.519 124.087  0.00  0.00    +0.000 N 
ATOM      8  C   UNL     1      -7.324  -0.837 124.989  0.00  0.00    +0.000 C 
ATOM      9  O   UNL     1      -6.695   0.106 125.478  0.00  0.00    +0.000 OA
ATOM     10  H   UNL     1      -9.515  -3.338 123.188  0.00  0.00    +0.000 HD
ATOM     11  H   UNL     1      -8.403   0.468 123.909  0.00  0.00    +0.000 HD
ENDROOT
BRANCH   1  12
ATOM     12  C   UNL     1      -7.231  -2.527 126.885  0.00  0.00    +0.000 A 
ATOM     13  C   UNL     1      -6.116  -2.399 127.734  0.00  0.00    +0.000 A 
ATOM     14  C   UNL     1      -6.150  -2.847 129.049  0.00  0.00    +0.000 A 
ATOM     15  C   UNL     1      -7.345  -3.290 129.595  0.00  0.00    +0.000 A 
ATOM     16  C   UNL     1      -8.493  -3.327 128.809  0.00  0.00    +0.000 A 
ATOM     17  C   UNL     1      -8.437  -2.964 127.463  0.00  0.00    +0.000 A 
ENDBRANCH   1  12
BRANCH   1  19
ATOM     18  C   UNL     1      -5.478  -2.616 123.351  0.00  0.00    +0.000 C 
ATOM     19  C   UNL     1      -5.684  -2.729 124.856  0.00  0.00    +0.000 C 
ENDBRANCH   1  19
TORSDOF 2
ENDMDL
MODEL 5
REMARK VINA RESULT:      -6.3      1.764      2.260
REMARK  Name = Phenobarbital
REMARK  3 active torsions:
REMARK  status: ('A' for Active; 'I' for Inactive)
REMARK    1  A    between atoms: C_1  and  C_2
REMARK    2  A    between atoms: C_2  and  C_3
REMARK    3  A    between atoms: C_3  and  C_12
REMARK                            x       y       z     vdW  Elec       q    Type
REMARK                         _______ _______ _______ _____ _____    ______ ____
ROOT
ATOM      1  C   UNL     1      -9.840   5.980 130.652  0.00  0.00    +0.000 C 
ATOM      2  C   UNL     1     -10.241   4.570 130.193  0.00  0.00    +0.000 C 
ATOM      3  O   UNL     1     -11.396   4.138 130.238  0.00  0.00    +0.000 OA
ATOM      4  N   UNL     1      -9.254   3.724 129.783  0.00  0.00    +0.000 N 
ATOM      5  C   UNL     1      -7.931   4.001 129.666  0.00  0.00    +0.000 C 
ATOM      6  O   UNL     1      -7.132   3.179 129.250  0.00  0.00    +0.000 OA
ATOM      7  N   UNL     1      -7.537   5.239 130.037  0.00  0.00    +0.000 N 
ATOM      8  C   UNL     1      -8.323   6.228 130.522  0.00  0.00    +0.000 C 
ATOM      9  O   UNL     1      -7.759   7.288 130.809  0.00  0.00    +0.000 OA
ATOM     10  H   UNL     1      -9.543   2.794 129.515  0.00  0.00    +0.000 HD
ATOM     11  H   UNL     1      -6.558   5.468 129.940  0.00  0.00    +0.000 HD
ENDROOT
BRANCH   1  12
ATOM     12  C   UNL     1     -10.641   7.059 129.889  0.00  0.00    +0.000 A 
ATOM     13  C   UNL     1     -11.805   7.632 130.435  0.00  0.00    +0.000 A 
ATOM     14  C   UNL     1     -12.675   8.387 129.658  0.00  0.00    +0.000 A 
ATOM     15  C   UNL     1     -12.325   8.720 128.358  0.00  0.00    +0.000 A 
ATOM     16  C   UNL     1     -11.126   8.257 127.825  0.00  0.00    +0.000 A 
ATOM     17  C   UNL     1     -10.297   7.422 128.575  0.00  0.00    +0.000 A 
ENDBRANCH   1  12
BRANCH   1  19
ATOM     18  C   UNL     1      -9.357   5.071 133.045  0.00  0.00    +0.000 C 
ATOM     19  C   UNL     1     -10.193   6.004 132.178  0.00  0.00    +0.000 C 
ENDBRANCH   1  19
TORSDOF 2
ENDMDL
MODEL 6
REMARK VINA RESULT:      -6.2      8.084     10.249
REMARK  Name = Phenobarbital
REMARK  3 active torsions:
REMARK  status: ('A' for Active; 'I' for Inactive)
REMARK    1  A    between atoms: C_1  and  C_2
REMARK    2  A    between atoms: C_2  and  C_3
REMARK    3  A    between atoms: C_3  and  C_12
REMARK                            x       y       z     vdW  Elec       q    Type
REMARK                         _______ _______ _______ _____ _____    ______ ____
ROOT
ATOM      1  C   UNL     1      -7.829  -0.041 124.455  0.00  0.00    +0.000 C 
ATOM      2  C   UNL     1      -7.023   1.266 124.457  0.00  0.00    +0.000 C 
ATOM      3  O   UNL     1      -6.014   1.447 125.143  0.00  0.00    +0.000 OA
ATOM      4  N   UNL     1      -7.493   2.309 123.715  0.00  0.00    +0.000 N 
ATOM      5  C   UNL     1      -8.579   2.317 122.903  0.00  0.00    +0.000 C 
ATOM      6  O   UNL     1      -8.891   3.298 122.249  0.00  0.00    +0.000 OA
ATOM      7  N   UNL     1      -9.304   1.178 122.852  0.00  0.00    +0.000 N 
ATOM      8  C   UNL     1      -9.065   0.034 123.536  0.00  0.00    +0.000 C 
ATOM      9  O   UNL     1      -9.859  -0.893 123.350  0.00  0.00    +0.000 OA
ATOM     10  H   UNL     1      -6.959   3.167 123.758  0.00  0.00    +0.000 HD
ATOM     11  H   UNL     1     -10.106   1.160 122.239  0.00  0.00    +0.000 HD
ENDROOT
BRANCH   1  12
ATOM     12  C   UNL     1      -6.934  -1.242 124.074  0.00  0.00    +0.000 A 
ATOM     13  C   UNL     1      -6.412  -2.108 125.054  0.00  0.00    +0.000 A 
ATOM     14  C   UNL     1      -5.399  -3.012 124.758  0.00  0.00    +0.000 A 
ATOM     15  C   UNL     1      -4.990  -3.182 123.444  0.00  0.00    +0.000 A 
ATOM     16  C   UNL     1      -5.566  -2.415 122.436  0.00  0.00    +0.000 A 
ATOM     17  C   UNL     1      -6.517  -1.443 122.747  0.00  0.00    +0.000 A 
ENDBRANCH   1  12
BRANCH   1  19
ATOM     18  C   UNL     1      -9.254   0.948 126.398  0.00  0.00    +0.000 C 
ATOM     19  C   UNL     1      -8.344  -0.180 125.928  0.00  0.00    +0.000 C 
ENDBRANCH   1  19
TORSDOF 2
ENDMDL
MODEL 7
REMARK VINA RESULT:      -6.1      7.543      9.699
REMARK  Name = Phenobarbital
REMARK  3 active torsions:
REMARK  status: ('A' for Active; 'I' for Inactive)
REMARK    1  A    between atoms: C_1  and  C_2
REMARK    2  A    between atoms: C_2  and  C_3
REMARK    3  A    between atoms: C_3  and  C_12
REMARK                            x       y       z     vdW  Elec       q    Type
REMARK                         _______ _______ _______ _____ _____    ______ ____
ROOT
ATOM      1  C   UNL     1      -8.064  -0.494 125.486  0.00  0.00    +0.000 C 
ATOM      2  C   UNL     1      -7.983  -1.178 124.113  0.00  0.00    +0.000 C 
ATOM      3  O   UNL     1      -7.152  -2.043 123.827  0.00  0.00    +0.000 OA
ATOM      4  N   UNL     1      -8.830  -0.751 123.134  0.00  0.00    +0.000 N 
ATOM      5  C   UNL     1      -9.806   0.184 123.242  0.00  0.00    +0.000 C 
ATOM      6  O   UNL     1     -10.539   0.466 122.309  0.00  0.00    +0.000 OA
ATOM      7  N   UNL     1      -9.928   0.795 124.441  0.00  0.00    +0.000 N 
ATOM      8  C   UNL     1      -9.172   0.577 125.543  0.00  0.00    +0.000 C 
ATOM      9  O   UNL     1      -9.446   1.251 126.540  0.00  0.00    +0.000 OA
ATOM     10  H   UNL     1      -8.735  -1.198 122.232  0.00  0.00    +0.000 HD
ATOM     11  H   UNL     1     -10.661   1.482 124.545  0.00  0.00    +0.000 HD
ENDROOT
BRANCH   1  12
ATOM     12  C   UNL     1      -8.249  -1.536 126.613  0.00  0.00    +0.000 A 
ATOM     13  C   UNL     1      -7.568  -1.419 127.839  0.00  0.00    +0.000 A 
ATOM     14  C   UNL     1      -7.511  -2.475 128.741  0.00  0.00    +0.000 A 
ATOM     15  C   UNL     1      -8.262  -3.618 128.511  0.00  0.00    +0.000 A 
ATOM     16  C   UNL     1      -9.032  -3.719 127.357  0.00  0.00    +0.000 A 
ATOM     17  C   UNL     1      -9.016  -2.696 126.408  0.00  0.00    +0.000 A 
ENDBRANCH   1  12
BRANCH   1  19
ATOM     18  C   UNL     1      -6.530   1.484 124.767  0.00  0.00    +0.000 C 
ATOM     19  C   UNL     1      -6.688   0.241 125.633  0.00  0.00    +0.000 C 
ENDBRANCH   1  19
TORSDOF 2
ENDMDL
MODEL 8
REMARK VINA RESULT:      -6.1      7.408      9.458
REMARK  Name = Phenobarbital
REMARK  3 active torsions:
REMARK  status: ('A' for Active; 'I' for Inactive)
REMARK    1  A    between atoms: C_1  and  C_2
REMARK    2  A    between atoms: C_2  and  C_3
REMARK    3  A    between atoms: C_3  and  C_12
REMARK                            x       y       z     vdW  Elec       q    Type
REMARK                         _______ _______ _______ _____ _____    ______ ____
ROOT
ATOM      1  C   UNL     1      -8.561   0.624 124.771  0.00  0.00    +0.000 C 
ATOM      2  C   UNL     1      -7.147   1.050 124.351  0.00  0.00    +0.000 C 
ATOM      3  O   UNL     1      -6.117   0.609 124.868  0.00  0.00    +0.000 OA
ATOM      4  N   UNL     1      -7.025   2.024 123.404  0.00  0.00    +0.000 N 
ATOM      5  C   UNL     1      -8.025   2.637 122.723  0.00  0.00    +0.000 C 
ATOM      6  O   UNL     1      -7.804   3.474 121.863  0.00  0.00    +0.000 OA
ATOM      7  N   UNL     1      -9.286   2.274 123.044  0.00  0.00    +0.000 N 
ATOM      8  C   UNL     1      -9.656   1.371 123.982  0.00  0.00    +0.000 C 
ATOM      9  O   UNL     1     -10.869   1.191 124.124  0.00  0.00    +0.000 OA
ATOM     10  H   UNL     1      -6.083   2.306 123.169  0.00  0.00    +0.000 HD
ATOM     11  H   UNL     1     -10.042   2.708 122.534  0.00  0.00    +0.000 HD
ENDROOT
BRANCH   1  12
ATOM     12  C   UNL     1      -8.739  -0.906 124.642  0.00  0.00    +0.000 A 
ATOM     13  C   UNL     1      -8.710  -1.545 123.389  0.00  0.00    +0.000 A 
ATOM     14  C   UNL     1      -9.138  -2.859 123.234  0.00  0.00    +0.000 A 
ATOM     15  C   UNL     1      -9.456  -3.615 124.351  0.00  0.00    +0.000 A 
ATOM     16  C   UNL     1      -9.390  -3.041 125.617  0.00  0.00    +0.000 A 
ATOM     17  C   UNL     1      -9.050  -1.696 125.763  0.00  0.00    +0.000 A 
ENDBRANCH   1  12
BRANCH   1  19
ATOM     18  C   UNL     1      -8.244   2.507 126.542  0.00  0.00    +0.000 C 
ATOM     19  C   UNL     1      -8.670   1.070 126.268  0.00  0.00    +0.000 C 
ENDBRANCH   1  19
TORSDOF 2
ENDMDL
MODEL 9
REMARK VINA RESULT:      -6.0      1.604      3.283
REMARK  Name = Phenobarbital
REMARK  3 active torsions:
REMARK  status: ('A' for Active; 'I' for Inactive)
REMARK    1  A    between atoms: C_1  and  C_2
REMARK    2  A    between atoms: C_2  and  C_3
REMARK    3  A    between atoms: C_3  and  C_12
REMARK                            x       y       z     vdW  Elec       q    Type
REMARK                         _______ _______ _______ _____ _____    ______ ____
ROOT
ATOM      1  C   UNL     1      -9.715   5.579 130.466  0.00  0.00    +0.000 C 
ATOM      2  C   UNL     1      -8.541   5.209 129.547  0.00  0.00    +0.000 C 
ATOM      3  O   UNL     1      -8.678   4.695 128.434  0.00  0.00    +0.000 OA
ATOM      4  N   UNL     1      -7.275   5.392 130.019  0.00  0.00    +0.000 N 
ATOM      5  C   UNL     1      -6.912   5.935 131.208  0.00  0.00    +0.000 C 
ATOM      6  O   UNL     1      -5.743   6.089 131.519  0.00  0.00    +0.000 OA
ATOM      7  N   UNL     1      -7.915   6.296 132.039  0.00  0.00    +0.000 N 
ATOM      8  C   UNL     1      -9.243   6.165 131.812  0.00  0.00    +0.000 C 
ATOM      9  O   UNL     1      -9.995   6.554 132.710  0.00  0.00    +0.000 OA
ATOM     10  H   UNL     1      -6.522   5.113 129.406  0.00  0.00    +0.000 HD
ATOM     11  H   UNL     1      -7.663   6.718 132.922  0.00  0.00    +0.000 HD
ENDROOT
BRANCH   1  12
ATOM     12  C   UNL     1     -10.689   6.547 129.757  0.00  0.00    +0.000 A 
ATOM     13  C   UNL     1     -10.223   7.682 129.068  0.00  0.00    +0.000 A 
ATOM     14  C   UNL     1     -11.088   8.694 128.669  0.00  0.00    +0.000 A 
ATOM     15  C   UNL     1     -12.457   8.525 128.808  0.00  0.00    +0.000 A 
ATOM     16  C   UNL     1     -12.954   7.362 129.388  0.00  0.00    +0.000 A 
ATOM     17  C   UNL     1     -12.081   6.388 129.873  0.00  0.00    +0.000 A 
ENDBRANCH   1  12
BRANCH   1  19
ATOM     18  C   UNL     1      -9.581   3.227 131.578  0.00  0.00    +0.000 C 
ATOM     19  C   UNL     1     -10.416   4.211 130.767  0.00  0.00    +0.000 C 
ENDBRANCH   1  19
TORSDOF 2
ENDMDL
