MODEL 1
REMARK VINA RESULT:      -5.6      0.000      0.000
REMARK  Name = Phenelzine
REMARK  4 active torsions:
REMARK  status: ('A' for Active; 'I' for Inactive)
REMARK    1  A    between atoms: N_1  and  N_2
REMARK    2  A    between atoms: N_2  and  C_3
REMARK    3  A    between atoms: C_3  and  C_4
REMARK    4  A    between atoms: C_4  and  C_5
REMARK                            x       y       z     vdW  Elec       q    Type
REMARK                         _______ _______ _______ _____ _____    ______ ____
ROOT
ATOM      1  C   UNL     1     -12.489   7.059 126.782  0.00  0.00    +0.000 C 
ENDROOT
BRANCH   1   2
ATOM      2  C   UNL     1     -12.796   7.548 128.176  0.00  0.00    +0.000 A 
ATOM      3  C   UNL     1     -12.846   8.920 128.455  0.00  0.00    +0.000 A 
ATOM      4  C   UNL     1     -12.870   9.359 129.779  0.00  0.00    +0.000 A 
ATOM      5  C   UNL     1     -12.895   8.438 130.823  0.00  0.00    +0.000 A 
ATOM      6  C   UNL     1     -12.911   7.070 130.551  0.00  0.00    +0.000 A 
ATOM      7  C   UNL     1     -12.866   6.629 129.231  0.00  0.00    +0.000 A 
ENDBRANCH   1   2
BRANCH   1   8
ATOM      8  C   UNL     1     -11.060   7.490 126.414  0.00  0.00    +0.000 C 
BRANCH   8   9
ATOM      9  N   UNL     1     -10.064   6.661 127.106  0.00  0.00    +0.000 NA
ATOM     10  H   UNL     1      -9.479   7.261 127.695  0.00  0.00    +0.000 HD
BRANCH   9  11
ATOM     11  N   UNL     1      -9.304   5.936 126.119  0.00  0.00    +0.000 NA
ATOM     12  H   UNL     1      -9.082   6.524 125.312  0.00  0.00    +0.000 HD
ATOM     13  H   UNL     1      -9.800   5.117 125.757  0.00  0.00    +0.000 HD
ENDBRANCH   9  11
ENDBRANCH   8   9
ENDBRANCH   1   8
TORSDOF 4
ENDMDL
MODEL 2
REMARK VINA RESULT:      -5.5      3.714      4.763
REMARK  Name = Phenelzine
REMARK  4 active torsions:
REMARK  status: ('A' for Active; 'I' for Inactive)
REMARK    1  A    between atoms: N_1  and  N_2
REMARK    2  A    between atoms: N_2  and  C_3
REMARK    3  A    between atoms: C_3  and  C_4
REMARK    4  A    between atoms: C_4  and  C_5
REMARK                            x       y       z     vdW  Elec       q    Type
REMARK                         _______ _______ _______ _____ _____    ______ ____
ROOT
ATOM      1  C   UNL     1     -13.510   9.916 128.829  0.00  0.00    +0.000 C 
ENDROOT
BRANCH   1   2
ATOM      2  C   UNL     1     -12.547   8.772 129.034  0.00  0.00    +0.000 A 
ATOM      3  C   UNL     1     -12.595   8.002 130.204  0.00  0.00    +0.000 A 
ATOM      4  C   UNL     1     -11.551   7.126 130.502  0.00  0.00    +0.000 A 
ATOM      5  C   UNL     1     -10.486   6.977 129.617  0.00  0.00    +0.000 A 
ATOM      6  C   UNL     1     -10.465   7.693 128.419  0.00  0.00    +0.000 A 
ATOM      7  C   UNL     1     -11.495   8.583 128.129  0.00  0.00    +0.000 A 
ENDBRANCH   1   2
BRANCH   1   8
ATOM      8  C   UNL     1     -13.501  10.797 130.089  0.00  0.00    +0.000 C 
BRANCH   8   9
ATOM      9  N   UNL     1     -13.512  12.222 129.737  0.00  0.00    +0.000 NA
ATOM     10  H   UNL     1     -12.631  12.459 129.271  0.00  0.00    +0.000 HD
BRANCH   9  11
ATOM     11  N   UNL     1     -13.735  12.991 130.935  0.00  0.00    +0.000 NA
ATOM     12  H   UNL     1     -12.883  13.060 131.498  0.00  0.00    +0.000 HD
ATOM     13  H   UNL     1     -14.454  12.586 131.541  0.00  0.00    +0.000 HD
ENDBRANCH   9  11
ENDBRANCH   8   9
ENDBRANCH   1   8
TORSDOF 4
ENDMDL
MODEL 3
REMARK VINA RESULT:      -5.5      1.849      2.405
REMARK  Name = Phenelzine
REMARK  4 active torsions:
REMARK  status: ('A' for Active; 'I' for Inactive)
REMARK    1  A    between atoms: N_1  and  N_2
REMARK    2  A    between atoms: N_2  and  C_3
REMARK    3  A    between atoms: C_3  and  C_4
REMARK    4  A    between atoms: C_4  and  C_5
REMARK                            x       y       z     vdW  Elec       q    Type
REMARK                         _______ _______ _______ _____ _____    ______ ____
ROOT
ATOM      1  C   UNL     1     -10.517   8.273 128.097  0.00  0.00    +0.000 C 
ENDROOT
BRANCH   1   2
ATOM      2  C   UNL     1     -10.890   7.808 129.483  0.00  0.00    +0.000 A 
ATOM      3  C   UNL     1      -9.982   7.069 130.254  0.00  0.00    +0.000 A 
ATOM      4  C   UNL     1     -10.419   6.427 131.413  0.00  0.00    +0.000 A 
ATOM      5  C   UNL     1     -11.740   6.558 131.833  0.00  0.00    +0.000 A 
ATOM      6  C   UNL     1     -12.633   7.346 131.105  0.00  0.00    +0.000 A 
ATOM      7  C   UNL     1     -12.205   7.971 129.936  0.00  0.00    +0.000 A 
ENDBRANCH   1   2
BRANCH   1   8
ATOM      8  C   UNL     1     -11.667   7.927 127.137  0.00  0.00    +0.000 C 
BRANCH   8   9
ATOM      9  N   UNL     1     -11.331   6.762 126.309  0.00  0.00    +0.000 NA
ATOM     10  H   UNL     1     -11.911   5.969 126.595  0.00  0.00    +0.000 HD
BRANCH   9  11
ATOM     11  N   UNL     1      -9.920   6.498 126.437  0.00  0.00    +0.000 NA
ATOM     12  H   UNL     1      -9.678   5.574 126.072  0.00  0.00    +0.000 HD
ATOM     13  H   UNL     1      -9.596   6.523 127.408  0.00  0.00    +0.000 HD
ENDBRANCH   9  11
ENDBRANCH   8   9
ENDBRANCH   1   8
TORSDOF 4
ENDMDL
MODEL 4
REMARK VINA RESULT:      -5.1      3.076      4.040
REMARK  Name = Phenelzine
REMARK  4 active torsions:
REMARK  status: ('A' for Active; 'I' for Inactive)
REMARK    1  A    between atoms: N_1  and  N_2
REMARK    2  A    between atoms: N_2  and  C_3
REMARK    3  A    between atoms: C_3  and  C_4
REMARK    4  A    between atoms: C_4  and  C_5
REMARK                            x       y       z     vdW  Elec       q    Type
REMARK                         _______ _______ _______ _____ _____    ______ ____
ROOT
ATOM      1  C   UNL     1     -10.626   7.046 130.341  0.00  0.00    +0.000 C 
ENDROOT
BRANCH   1   2
ATOM      2  C   UNL     1     -11.871   7.428 129.579  0.00  0.00    +0.000 A 
ATOM      3  C   UNL     1     -12.649   6.447 128.949  0.00  0.00    +0.000 A 
ATOM      4  C   UNL     1     -13.638   6.824 128.039  0.00  0.00    +0.000 A 
ATOM      5  C   UNL     1     -13.887   8.172 127.792  0.00  0.00    +0.000 A 
ATOM      6  C   UNL     1     -13.160   9.155 128.465  0.00  0.00    +0.000 A 
ATOM      7  C   UNL     1     -12.159   8.781 129.357  0.00  0.00    +0.000 A 
ENDBRANCH   1   2
BRANCH   1   8
ATOM      8  C   UNL     1     -10.879   5.708 131.055  0.00  0.00    +0.000 C 
BRANCH   8   9
ATOM      9  N   UNL     1     -11.029   5.903 132.503  0.00  0.00    +0.000 NA
ATOM     10  H   UNL     1     -11.809   6.544 132.676  0.00  0.00    +0.000 HD
BRANCH   9  11
ATOM     11  N   UNL     1      -9.779   6.386 133.034  0.00  0.00    +0.000 NA
ATOM     12  H   UNL     1      -9.495   5.855 133.861  0.00  0.00    +0.000 HD
ATOM     13  H   UNL     1      -9.820   7.369 133.317  0.00  0.00    +0.000 HD
ENDBRANCH   9  11
ENDBRANCH   8   9
ENDBRANCH   1   8
TORSDOF 4
ENDMDL
MODEL 5
REMARK VINA RESULT:      -5.0      2.570      3.934
REMARK  Name = Phenelzine
REMARK  4 active torsions:
REMARK  status: ('A' for Active; 'I' for Inactive)
REMARK    1  A    between atoms: N_1  and  N_2
REMARK    2  A    between atoms: N_2  and  C_3
REMARK    3  A    between atoms: C_3  and  C_4
REMARK    4  A    between atoms: C_4  and  C_5
REMARK                            x       y       z     vdW  Elec       q    Type
REMARK                         _______ _______ _______ _____ _____    ______ ____
ROOT
ATOM      1  C   UNL     1     -12.811   7.337 130.826  0.00  0.00    +0.000 C 
ENDROOT
BRANCH   1   2
ATOM      2  C   UNL     1     -12.220   7.390 129.438  0.00  0.00    +0.000 A 
ATOM      3  C   UNL     1     -11.020   8.074 129.201  0.00  0.00    +0.000 A 
ATOM      4  C   UNL     1     -10.619   8.339 127.891  0.00  0.00    +0.000 A 
ATOM      5  C   UNL     1     -11.382   7.883 126.818  0.00  0.00    +0.000 A 
ATOM      6  C   UNL     1     -12.544   7.145 127.047  0.00  0.00    +0.000 A 
ATOM      7  C   UNL     1     -12.957   6.898 128.354  0.00  0.00    +0.000 A 
ENDBRANCH   1   2
BRANCH   1   8
ATOM      8  C   UNL     1     -11.770   6.728 131.780  0.00  0.00    +0.000 C 
BRANCH   8   9
ATOM      9  N   UNL     1     -11.441   5.351 131.392  0.00  0.00    +0.000 NA
ATOM     10  H   UNL     1     -12.257   4.753 131.552  0.00  0.00    +0.000 HD
BRANCH   9  11
ATOM     11  N   UNL     1     -10.283   4.927 132.138  0.00  0.00    +0.000 NA
ATOM     12  H   UNL     1     -10.481   4.880 133.140  0.00  0.00    +0.000 HD
ATOM     13  H   UNL     1      -9.484   5.558 132.026  0.00  0.00    +0.000 HD
ENDBRANCH   9  11
ENDBRANCH   8   9
ENDBRANCH   1   8
TORSDOF 4
ENDMDL
MODEL 6
REMARK VINA RESULT:      -5.0      8.858      9.543
REMARK  Name = Phenelzine
REMARK  4 active torsions:
REMARK  status: ('A' for Active; 'I' for Inactive)
REMARK    1  A    between atoms: N_1  and  N_2
REMARK    2  A    between atoms: N_2  and  C_3
REMARK    3  A    between atoms: C_3  and  C_4
REMARK    4  A    between atoms: C_4  and  C_5
REMARK                            x       y       z     vdW  Elec       q    Type
REMARK                         _______ _______ _______ _____ _____    ______ ____
ROOT
ATOM      1  C   UNL     1      -5.281   4.142 121.883  0.00  0.00    +0.000 C 
ENDROOT
BRANCH   1   2
ATOM      2  C   UNL     1      -6.564   3.545 122.407  0.00  0.00    +0.000 A 
ATOM      3  C   UNL     1      -6.568   2.788 123.586  0.00  0.00    +0.000 A 
ATOM      4  C   UNL     1      -7.691   2.031 123.920  0.00  0.00    +0.000 A 
ATOM      5  C   UNL     1      -8.826   2.064 123.113  0.00  0.00    +0.000 A 
ATOM      6  C   UNL     1      -8.852   2.866 121.972  0.00  0.00    +0.000 A 
ATOM      7  C   UNL     1      -7.725   3.606 121.625  0.00  0.00    +0.000 A 
ENDBRANCH   1   2
BRANCH   1   8
ATOM      8  C   UNL     1      -5.468   4.481 120.395  0.00  0.00    +0.000 C 
BRANCH   8   9
ATOM      9  N   UNL     1      -4.940   5.816 120.088  0.00  0.00    +0.000 NA
ATOM     10  H   UNL     1      -4.460   5.786 119.183  0.00  0.00    +0.000 HD
BRANCH   9  11
ATOM     11  N   UNL     1      -4.075   6.228 121.165  0.00  0.00    +0.000 NA
ATOM     12  H   UNL     1      -3.097   6.260 120.868  0.00  0.00    +0.000 HD
ATOM     13  H   UNL     1      -4.116   5.599 121.972  0.00  0.00    +0.000 HD
ENDBRANCH   9  11
ENDBRANCH   8   9
ENDBRANCH   1   8
TORSDOF 4
ENDMDL
MODEL 7
REMARK VINA RESULT:      -4.9      3.392      4.257
REMARK  Name = Phenelzine
REMARK  4 active torsions:
REMARK  status: ('A' for Active; 'I' for Inactive)
REMARK    1  A    between atoms: N_1  and  N_2
REMARK    2  A    between atoms: N_2  and  C_3
REMARK    3  A    between atoms: C_3  and  C_4
REMARK    4  A    between atoms: C_4  and  C_5
REMARK                            x       y       z     vdW  Elec       q    Type
REMARK                         _______ _______ _______ _____ _____    ______ ____
ROOT
ATOM      1  C   UNL     1      -9.625   6.885 130.774  0.00  0.00    +0.000 C 
ENDROOT
BRANCH   1   2
ATOM      2  C   UNL     1     -10.690   7.369 129.820  0.00  0.00    +0.000 A 
ATOM      3  C   UNL     1     -10.368   7.677 128.491  0.00  0.00    +0.000 A 
ATOM      4  C   UNL     1     -11.287   8.363 127.696  0.00  0.00    +0.000 A 
ATOM      5  C   UNL     1     -12.541   8.698 128.203  0.00  0.00    +0.000 A 
ATOM      6  C   UNL     1     -12.891   8.337 129.504  0.00  0.00    +0.000 A 
ATOM      7  C   UNL     1     -11.968   7.671 130.307  0.00  0.00    +0.000 A 
ENDBRANCH   1   2
BRANCH   1   8
ATOM      8  C   UNL     1     -10.175   5.679 131.552  0.00  0.00    +0.000 C 
BRANCH   8   9
ATOM      9  N   UNL     1     -10.412   6.023 132.960  0.00  0.00    +0.000 NA
ATOM     10  H   UNL     1     -10.990   6.867 133.006  0.00  0.00    +0.000 HD
BRANCH   9  11
ATOM     11  N   UNL     1      -9.138   6.181 133.616  0.00  0.00    +0.000 NA
ATOM     12  H   UNL     1      -9.104   5.660 134.496  0.00  0.00    +0.000 HD
ATOM     13  H   UNL     1      -8.925   7.156 133.844  0.00  0.00    +0.000 HD
ENDBRANCH   9  11
ENDBRANCH   8   9
ENDBRANCH   1   8
TORSDOF 4
ENDMDL
MODEL 8
REMARK VINA RESULT:      -4.9      3.231      3.928
REMARK  Name = Phenelzine
REMARK  4 active torsions:
REMARK  status: ('A' for Active; 'I' for Inactive)
REMARK    1  A    between atoms: N_1  and  N_2
REMARK    2  A    between atoms: N_2  and  C_3
REMARK    3  A    between atoms: C_3  and  C_4
REMARK    4  A    between atoms: C_4  and  C_5
REMARK                            x       y       z     vdW  Elec       q    Type
REMARK                         _______ _______ _______ _____ _____    ______ ____
ROOT
ATOM      1  C   UNL     1     -12.854   7.595 129.354  0.00  0.00    +0.000 C 
ENDROOT
BRANCH   1   2
ATOM      2  C   UNL     1     -11.646   7.323 130.218  0.00  0.00    +0.000 A 
ATOM      3  C   UNL     1     -10.354   7.548 129.726  0.00  0.00    +0.000 A 
ATOM      4  C   UNL     1      -9.250   7.055 130.423  0.00  0.00    +0.000 A 
ATOM      5  C   UNL     1      -9.425   6.384 131.631  0.00  0.00    +0.000 A 
ATOM      6  C   UNL     1     -10.706   6.213 132.158  0.00  0.00    +0.000 A 
ATOM      7  C   UNL     1     -11.810   6.685 131.454  0.00  0.00    +0.000 A 
ENDBRANCH   1   2
BRANCH   1   8
ATOM      8  C   UNL     1     -12.533   8.773 128.420  0.00  0.00    +0.000 C 
BRANCH   8   9
ATOM      9  N   UNL     1     -13.550   9.827 128.532  0.00  0.00    +0.000 NA
ATOM     10  H   UNL     1     -13.634  10.309 127.632  0.00  0.00    +0.000 HD
BRANCH   9  11
ATOM     11  N   UNL     1     -13.178  10.712 129.607  0.00  0.00    +0.000 NA
ATOM     12  H   UNL     1     -12.317  10.403 130.064  0.00  0.00    +0.000 HD
ATOM     13  H   UNL     1     -13.892  10.773 130.339  0.00  0.00    +0.000 HD
ENDBRANCH   9  11
ENDBRANCH   8   9
ENDBRANCH   1   8
TORSDOF 4
ENDMDL
MODEL 9
REMARK VINA RESULT:      -4.8      7.403      9.380
REMARK  Name = Phenelzine
REMARK  4 active torsions:
REMARK  status: ('A' for Active; 'I' for Inactive)
REMARK    1  A    between atoms: N_1  and  N_2
REMARK    2  A    between atoms: N_2  and  C_3
REMARK    3  A    between atoms: C_3  and  C_4
REMARK    4  A    between atoms: C_4  and  C_5
REMARK                            x       y       z     vdW  Elec       q    Type
REMARK                         _______ _______ _______ _____ _____    ______ ____
ROOT
ATOM      1  C   UNL     1      -7.559   2.302 123.581  0.00  0.00    +0.000 C 
ENDROOT
BRANCH   1   2
ATOM      2  C   UNL     1      -7.483   2.829 122.169  0.00  0.00    +0.000 A 
ATOM      3  C   UNL     1      -6.243   3.086 121.571  0.00  0.00    +0.000 A 
ATOM      4  C   UNL     1      -6.184   3.810 120.379  0.00  0.00    +0.000 A 
ATOM      5  C   UNL     1      -7.355   4.234 119.757  0.00  0.00    +0.000 A 
ATOM      6  C   UNL     1      -8.597   3.925 120.314  0.00  0.00    +0.000 A 
ATOM      7  C   UNL     1      -8.657   3.222 121.514  0.00  0.00    +0.000 A 
ENDBRANCH   1   2
BRANCH   1   8
ATOM      8  C   UNL     1      -8.998   2.473 124.093  0.00  0.00    +0.000 C 
BRANCH   8   9
ATOM      9  N   UNL     1      -9.019   3.160 125.390  0.00  0.00    +0.000 NA
ATOM     10  H   UNL     1      -9.928   3.006 125.837  0.00  0.00    +0.000 HD
BRANCH   9  11
ATOM     11  N   UNL     1      -8.732   4.557 125.176  0.00  0.00    +0.000 NA
ATOM     12  H   UNL     1      -7.791   4.690 124.796  0.00  0.00    +0.000 HD
ATOM     13  H   UNL     1      -8.782   5.111 126.036  0.00  0.00    +0.000 HD
ENDBRANCH   9  11
ENDBRANCH   8   9
ENDBRANCH   1   8
TORSDOF 4
ENDMDL
