MODEL 1
REMARK VINA RESULT:      -5.6      0.000      0.000
REMARK  Name = Phenylacetic acid
REMARK  3 active torsions:
REMARK  status: ('A' for Active; 'I' for Inactive)
REMARK    1  A    between atoms: O_1  and  C_2
REMARK    2  A    between atoms: C_2  and  C_4
REMARK    3  A    between atoms: C_4  and  C_5
REMARK                            x       y       z     vdW  Elec       q    Type
REMARK                         _______ _______ _______ _____ _____    ______ ____
ROOT
ATOM      1  C   UNL     1     -11.137   7.720 129.139  0.00  0.00    +0.000 A 
ATOM      2  C   UNL     1     -10.234   6.995 129.931  0.00  0.00    +0.000 A 
ATOM      3  C   UNL     1     -10.631   6.502 131.180  0.00  0.00    +0.000 A 
ATOM      4  C   UNL     1     -11.900   6.792 131.684  0.00  0.00    +0.000 A 
ATOM      5  C   UNL     1     -12.798   7.518 130.914  0.00  0.00    +0.000 A 
ATOM      6  C   UNL     1     -12.431   7.940 129.640  0.00  0.00    +0.000 A 
ENDROOT
BRANCH   1   7
ATOM      7  C   UNL     1     -10.776   8.194 127.742  0.00  0.00    +0.000 C 
BRANCH   7   8
ATOM      8  C   UNL     1     -10.723   7.085 126.694  0.00  0.00    +0.000 C 
ATOM      9  O   UNL     1      -9.721   6.462 126.356  0.00  0.00    +0.000 OA
BRANCH   8  10
ATOM     10  O   UNL     1     -11.913   6.812 126.113  0.00  0.00    +0.000 OA
ATOM     11  H   UNL     1     -12.514   6.237 126.621  0.00  0.00    +0.000 HD
ENDBRANCH   8  10
ENDBRANCH   7   8
ENDBRANCH   1   7
TORSDOF 3
ENDMDL
MODEL 2
REMARK VINA RESULT:      -5.6      1.629      2.131
REMARK  Name = Phenylacetic acid
REMARK  3 active torsions:
REMARK  status: ('A' for Active; 'I' for Inactive)
REMARK    1  A    between atoms: O_1  and  C_2
REMARK    2  A    between atoms: C_2  and  C_4
REMARK    3  A    between atoms: C_4  and  C_5
REMARK                            x       y       z     vdW  Elec       q    Type
REMARK                         _______ _______ _______ _____ _____    ______ ____
ROOT
ATOM      1  C   UNL     1     -12.593   7.540 128.086  0.00  0.00    +0.000 A 
ATOM      2  C   UNL     1     -12.766   8.874 128.485  0.00  0.00    +0.000 A 
ATOM      3  C   UNL     1     -12.851   9.197 129.845  0.00  0.00    +0.000 A 
ATOM      4  C   UNL     1     -12.846   8.191 130.812  0.00  0.00    +0.000 A 
ATOM      5  C   UNL     1     -12.688   6.867 130.428  0.00  0.00    +0.000 A 
ATOM      6  C   UNL     1     -12.523   6.553 129.082  0.00  0.00    +0.000 A 
ENDROOT
BRANCH   1   7
ATOM      7  C   UNL     1     -12.407   7.157 126.628  0.00  0.00    +0.000 C 
BRANCH   7   8
ATOM      8  C   UNL     1     -10.969   7.269 126.127  0.00  0.00    +0.000 C 
ATOM      9  O   UNL     1     -10.008   6.632 126.547  0.00  0.00    +0.000 OA
BRANCH   8  10
ATOM     10  O   UNL     1     -10.795   8.172 125.134  0.00  0.00    +0.000 OA
ATOM     11  H   UNL     1     -10.234   8.939 125.348  0.00  0.00    +0.000 HD
ENDBRANCH   8  10
ENDBRANCH   7   8
ENDBRANCH   1   7
TORSDOF 3
ENDMDL
MODEL 3
REMARK VINA RESULT:      -5.6      3.349      4.718
REMARK  Name = Phenylacetic acid
REMARK  3 active torsions:
REMARK  status: ('A' for Active; 'I' for Inactive)
REMARK    1  A    between atoms: O_1  and  C_2
REMARK    2  A    between atoms: C_2  and  C_4
REMARK    3  A    between atoms: C_4  and  C_5
REMARK                            x       y       z     vdW  Elec       q    Type
REMARK                         _______ _______ _______ _____ _____    ______ ____
ROOT
ATOM      1  C   UNL     1     -12.685   8.704 128.836  0.00  0.00    +0.000 A 
ATOM      2  C   UNL     1     -13.568   7.898 128.100  0.00  0.00    +0.000 A 
ATOM      3  C   UNL     1     -13.094   7.129 127.030  0.00  0.00    +0.000 A 
ATOM      4  C   UNL     1     -11.759   7.215 126.634  0.00  0.00    +0.000 A 
ATOM      5  C   UNL     1     -10.879   8.018 127.348  0.00  0.00    +0.000 A 
ATOM      6  C   UNL     1     -11.332   8.721 128.460  0.00  0.00    +0.000 A 
ENDROOT
BRANCH   1   7
ATOM      7  C   UNL     1     -13.140   9.483 130.058  0.00  0.00    +0.000 C 
BRANCH   7   8
ATOM      8  C   UNL     1     -13.513  10.936 129.776  0.00  0.00    +0.000 C 
ATOM      9  O   UNL     1     -13.503  11.853 130.590  0.00  0.00    +0.000 OA
BRANCH   8  10
ATOM     10  O   UNL     1     -13.887  11.175 128.498  0.00  0.00    +0.000 OA
ATOM     11  H   UNL     1     -13.209  11.015 127.817  0.00  0.00    +0.000 HD
ENDBRANCH   8  10
ENDBRANCH   7   8
ENDBRANCH   1   7
TORSDOF 3
ENDMDL
MODEL 4
REMARK VINA RESULT:      -5.3      2.806      4.139
REMARK  Name = Phenylacetic acid
REMARK  3 active torsions:
REMARK  status: ('A' for Active; 'I' for Inactive)
REMARK    1  A    between atoms: O_1  and  C_2
REMARK    2  A    between atoms: C_2  and  C_4
REMARK    3  A    between atoms: C_4  and  C_5
REMARK                            x       y       z     vdW  Elec       q    Type
REMARK                         _______ _______ _______ _____ _____    ______ ____
ROOT
ATOM      1  C   UNL     1     -12.085   7.349 129.476  0.00  0.00    +0.000 A 
ATOM      2  C   UNL     1     -10.917   7.980 129.019  0.00  0.00    +0.000 A 
ATOM      3  C   UNL     1     -10.719   8.188 127.648  0.00  0.00    +0.000 A 
ATOM      4  C   UNL     1     -11.639   7.702 126.719  0.00  0.00    +0.000 A 
ATOM      5  C   UNL     1     -12.792   7.066 127.159  0.00  0.00    +0.000 A 
ATOM      6  C   UNL     1     -13.028   6.929 128.523  0.00  0.00    +0.000 A 
ENDROOT
BRANCH   1   7
ATOM      7  C   UNL     1     -12.380   7.185 130.956  0.00  0.00    +0.000 C 
BRANCH   7   8
ATOM      8  C   UNL     1     -11.407   6.269 131.695  0.00  0.00    +0.000 C 
ATOM      9  O   UNL     1     -10.679   6.594 132.627  0.00  0.00    +0.000 OA
BRANCH   8  10
ATOM     10  O   UNL     1     -11.382   4.998 131.233  0.00  0.00    +0.000 OA
ATOM     11  H   UNL     1     -11.603   4.881 130.292  0.00  0.00    +0.000 HD
ENDBRANCH   8  10
ENDBRANCH   7   8
ENDBRANCH   1   7
TORSDOF 3
ENDMDL
MODEL 5
REMARK VINA RESULT:      -5.2      2.805      4.150
REMARK  Name = Phenylacetic acid
REMARK  3 active torsions:
REMARK  status: ('A' for Active; 'I' for Inactive)
REMARK    1  A    between atoms: O_1  and  C_2
REMARK    2  A    between atoms: C_2  and  C_4
REMARK    3  A    between atoms: C_4  and  C_5
REMARK                            x       y       z     vdW  Elec       q    Type
REMARK                         _______ _______ _______ _____ _____    ______ ____
ROOT
ATOM      1  C   UNL     1     -12.664   7.343 130.311  0.00  0.00    +0.000 A 
ATOM      2  C   UNL     1     -13.048   6.549 129.219  0.00  0.00    +0.000 A 
ATOM      3  C   UNL     1     -13.398   7.147 128.002  0.00  0.00    +0.000 A 
ATOM      4  C   UNL     1     -13.446   8.536 127.884  0.00  0.00    +0.000 A 
ATOM      5  C   UNL     1     -13.080   9.332 128.961  0.00  0.00    +0.000 A 
ATOM      6  C   UNL     1     -12.655   8.738 130.146  0.00  0.00    +0.000 A 
ENDROOT
BRANCH   1   7
ATOM      7  C   UNL     1     -12.191   6.733 131.619  0.00  0.00    +0.000 C 
BRANCH   7   8
ATOM      8  C   UNL     1     -10.686   6.489 131.692  0.00  0.00    +0.000 C 
ATOM      9  O   UNL     1      -9.924   6.392 130.734  0.00  0.00    +0.000 OA
BRANCH   8  10
ATOM     10  O   UNL     1     -10.203   6.370 132.950  0.00  0.00    +0.000 OA
ATOM     11  H   UNL     1      -9.795   5.514 133.172  0.00  0.00    +0.000 HD
ENDBRANCH   8  10
ENDBRANCH   7   8
ENDBRANCH   1   7
TORSDOF 3
ENDMDL
MODEL 6
REMARK VINA RESULT:      -4.8      6.669      9.235
REMARK  Name = Phenylacetic acid
REMARK  3 active torsions:
REMARK  status: ('A' for Active; 'I' for Inactive)
REMARK    1  A    between atoms: O_1  and  C_2
REMARK    2  A    between atoms: C_2  and  C_4
REMARK    3  A    between atoms: C_4  and  C_5
REMARK                            x       y       z     vdW  Elec       q    Type
REMARK                         _______ _______ _______ _____ _____    ______ ____
ROOT
ATOM      1  C   UNL     1      -6.247   3.578 122.907  0.00  0.00    +0.000 A 
ATOM      2  C   UNL     1      -5.069   4.330 122.787  0.00  0.00    +0.000 A 
ATOM      3  C   UNL     1      -4.704   4.875 121.550  0.00  0.00    +0.000 A 
ATOM      4  C   UNL     1      -5.463   4.611 120.410  0.00  0.00    +0.000 A 
ATOM      5  C   UNL     1      -6.624   3.858 120.514  0.00  0.00    +0.000 A 
ATOM      6  C   UNL     1      -7.030   3.383 121.758  0.00  0.00    +0.000 A 
ENDROOT
BRANCH   1   7
ATOM      7  C   UNL     1      -6.725   3.045 124.247  0.00  0.00    +0.000 C 
BRANCH   7   8
ATOM      8  C   UNL     1      -8.059   3.622 124.714  0.00  0.00    +0.000 C 
ATOM      9  O   UNL     1      -9.089   2.985 124.913  0.00  0.00    +0.000 OA
BRANCH   8  10
ATOM     10  O   UNL     1      -8.049   4.962 124.904  0.00  0.00    +0.000 OA
ATOM     11  H   UNL     1      -8.711   5.469 124.402  0.00  0.00    +0.000 HD
ENDBRANCH   8  10
ENDBRANCH   7   8
ENDBRANCH   1   7
TORSDOF 3
ENDMDL
MODEL 7
REMARK VINA RESULT:      -4.8     10.797     12.349
REMARK  Name = Phenylacetic acid
REMARK  3 active torsions:
REMARK  status: ('A' for Active; 'I' for Inactive)
REMARK    1  A    between atoms: O_1  and  C_2
REMARK    2  A    between atoms: C_2  and  C_4
REMARK    3  A    between atoms: C_4  and  C_5
REMARK                            x       y       z     vdW  Elec       q    Type
REMARK                         _______ _______ _______ _____ _____    ______ ____
ROOT
ATOM      1  C   UNL     1      -7.701  -3.076 123.878  0.00  0.00    +0.000 A 
ATOM      2  C   UNL     1      -7.389  -2.101 122.917  0.00  0.00    +0.000 A 
ATOM      3  C   UNL     1      -6.071  -1.947 122.472  0.00  0.00    +0.000 A 
ATOM      4  C   UNL     1      -5.041  -2.702 123.034  0.00  0.00    +0.000 A 
ATOM      5  C   UNL     1      -5.336  -3.661 123.994  0.00  0.00    +0.000 A 
ATOM      6  C   UNL     1      -6.656  -3.871 124.379  0.00  0.00    +0.000 A 
ENDROOT
BRANCH   1   7
ATOM      7  C   UNL     1      -9.129  -3.337 124.321  0.00  0.00    +0.000 C 
BRANCH   7   8
ATOM      8  C   UNL     1      -9.465  -2.804 125.712  0.00  0.00    +0.000 C 
ATOM      9  O   UNL     1      -9.468  -3.456 126.751  0.00  0.00    +0.000 OA
BRANCH   8  10
ATOM     10  O   UNL     1      -9.785  -1.490 125.740  0.00  0.00    +0.000 OA
ATOM     11  H   UNL     1     -10.729  -1.283 125.861  0.00  0.00    +0.000 HD
ENDBRANCH   8  10
ENDBRANCH   7   8
ENDBRANCH   1   7
TORSDOF 3
ENDMDL
MODEL 8
REMARK VINA RESULT:      -4.8     12.335     12.984
REMARK  Name = Phenylacetic acid
REMARK  3 active torsions:
REMARK  status: ('A' for Active; 'I' for Inactive)
REMARK    1  A    between atoms: O_1  and  C_2
REMARK    2  A    between atoms: C_2  and  C_4
REMARK    3  A    between atoms: C_4  and  C_5
REMARK                            x       y       z     vdW  Elec       q    Type
REMARK                         _______ _______ _______ _____ _____    ______ ____
ROOT
ATOM      1  C   UNL     1      -6.739  -3.047 124.086  0.00  0.00    +0.000 A 
ATOM      2  C   UNL     1      -6.979  -2.150 123.033  0.00  0.00    +0.000 A 
ATOM      3  C   UNL     1      -8.287  -1.920 122.589  0.00  0.00    +0.000 A 
ATOM      4  C   UNL     1      -9.355  -2.636 123.131  0.00  0.00    +0.000 A 
ATOM      5  C   UNL     1      -9.128  -3.534 124.165  0.00  0.00    +0.000 A 
ATOM      6  C   UNL     1      -7.839  -3.705 124.661  0.00  0.00    +0.000 A 
ENDROOT
BRANCH   1   7
ATOM      7  C   UNL     1      -5.348  -3.257 124.658  0.00  0.00    +0.000 C 
BRANCH   7   8
ATOM      8  C   UNL     1      -4.426  -4.099 123.779  0.00  0.00    +0.000 C 
ATOM      9  O   UNL     1      -3.431  -3.695 123.185  0.00  0.00    +0.000 OA
BRANCH   8  10
ATOM     10  O   UNL     1      -4.791  -5.397 123.675  0.00  0.00    +0.000 OA
ATOM     11  H   UNL     1      -4.491  -5.862 122.873  0.00  0.00    +0.000 HD
ENDBRANCH   8  10
ENDBRANCH   7   8
ENDBRANCH   1   7
TORSDOF 3
ENDMDL
MODEL 9
REMARK VINA RESULT:      -4.8     10.327     10.986
REMARK  Name = Phenylacetic acid
REMARK  3 active torsions:
REMARK  status: ('A' for Active; 'I' for Inactive)
REMARK    1  A    between atoms: O_1  and  C_2
REMARK    2  A    between atoms: C_2  and  C_4
REMARK    3  A    between atoms: C_4  and  C_5
REMARK                            x       y       z     vdW  Elec       q    Type
REMARK                         _______ _______ _______ _____ _____    ______ ____
ROOT
ATOM      1  C   UNL     1      -7.975  -3.091 126.012  0.00  0.00    +0.000 A 
ATOM      2  C   UNL     1      -7.008  -2.223 126.542  0.00  0.00    +0.000 A 
ATOM      3  C   UNL     1      -6.883  -2.070 127.928  0.00  0.00    +0.000 A 
ATOM      4  C   UNL     1      -7.769  -2.713 128.793  0.00  0.00    +0.000 A 
ATOM      5  C   UNL     1      -8.737  -3.565 128.280  0.00  0.00    +0.000 A 
ATOM      6  C   UNL     1      -8.810  -3.780 126.907  0.00  0.00    +0.000 A 
ENDROOT
BRANCH   1   7
ATOM      7  C   UNL     1      -8.083  -3.356 124.521  0.00  0.00    +0.000 C 
BRANCH   7   8
ATOM      8  C   UNL     1      -9.288  -2.699 123.850  0.00  0.00    +0.000 C 
ATOM      9  O   UNL     1      -9.471  -1.493 123.722  0.00  0.00    +0.000 OA
BRANCH   8  10
ATOM     10  O   UNL     1     -10.207  -3.573 123.380  0.00  0.00    +0.000 OA
ATOM     11  H   UNL     1      -9.864  -4.296 122.825  0.00  0.00    +0.000 HD
ENDBRANCH   8  10
ENDBRANCH   7   8
ENDBRANCH   1   7
TORSDOF 3
ENDMDL
