MODEL 1
REMARK VINA RESULT:      -6.0      0.000      0.000
REMARK  Name = Phendimetrazine
REMARK  3 active torsions:
REMARK  status: ('A' for Active; 'I' for Inactive)
REMARK    1  A    between atoms: C_1  and  C_2
REMARK    2  A    between atoms: C_3  and  C_9
REMARK    3  A    between atoms: N_7  and  C_8
REMARK                            x       y       z     vdW  Elec       q    Type
REMARK                         _______ _______ _______ _____ _____    ______ ____
ROOT
ATOM      1  C   UNL     1     -11.173   3.872 130.304  0.00  0.00    +0.000 C 
ATOM      2  C   UNL     1      -9.988   4.602 130.958  0.00  0.00    +0.000 C 
ATOM      3  C   UNL     1     -10.413   5.995 131.589  0.00  0.00    +0.000 C 
ATOM      4  O   UNL     1      -9.278   6.593 132.271  0.00  0.00    +0.000 OA
ATOM      5  C   UNL     1      -8.707   5.724 133.248  0.00  0.00    +0.000 C 
ATOM      6  C   UNL     1      -8.242   4.415 132.617  0.00  0.00    +0.000 C 
ATOM      7  N   UNL     1      -9.372   3.706 131.988  0.00  0.00    +0.000 NA
ATOM      8  C   UNL     1      -8.885   2.444 131.427  0.00  0.00    +0.000 C 
ENDROOT
BRANCH   3   9
ATOM      9  C   UNL     1     -10.911   7.005 130.544  0.00  0.00    +0.000 A 
ATOM     10  C   UNL     1     -12.240   7.468 130.547  0.00  0.00    +0.000 A 
ATOM     11  C   UNL     1     -12.762   8.185 129.469  0.00  0.00    +0.000 A 
ATOM     12  C   UNL     1     -11.921   8.620 128.459  0.00  0.00    +0.000 A 
ATOM     13  C   UNL     1     -10.566   8.301 128.506  0.00  0.00    +0.000 A 
ATOM     14  C   UNL     1     -10.074   7.480 129.527  0.00  0.00    +0.000 A 
ENDBRANCH   3   9
TORSDOF 1
ENDMDL
MODEL 2
REMARK VINA RESULT:      -5.9      2.499      5.309
REMARK  Name = Phendimetrazine
REMARK  3 active torsions:
REMARK  status: ('A' for Active; 'I' for Inactive)
REMARK    1  A    between atoms: C_1  and  C_2
REMARK    2  A    between atoms: C_3  and  C_9
REMARK    3  A    between atoms: N_7  and  C_8
REMARK                            x       y       z     vdW  Elec       q    Type
REMARK                         _______ _______ _______ _____ _____    ______ ____
ROOT
ATOM      1  C   UNL     1     -12.594   7.618 130.982  0.00  0.00    +0.000 C 
ATOM      2  C   UNL     1     -11.623   7.850 129.813  0.00  0.00    +0.000 C 
ATOM      3  C   UNL     1     -10.608   6.644 129.626  0.00  0.00    +0.000 C 
ATOM      4  O   UNL     1      -9.780   6.876 128.454  0.00  0.00    +0.000 OA
ATOM      5  C   UNL     1     -10.551   7.104 127.275  0.00  0.00    +0.000 C 
ATOM      6  C   UNL     1     -11.475   8.307 127.446  0.00  0.00    +0.000 C 
ATOM      7  N   UNL     1     -12.413   8.093 128.564  0.00  0.00    +0.000 NA
ATOM      8  C   UNL     1     -13.299   9.255 128.666  0.00  0.00    +0.000 C 
ENDROOT
BRANCH   3   9
ATOM      9  C   UNL     1      -9.669   6.452 130.826  0.00  0.00    +0.000 A 
ATOM     10  C   UNL     1      -8.337   6.903 130.794  0.00  0.00    +0.000 A 
ATOM     11  C   UNL     1      -7.415   6.518 131.771  0.00  0.00    +0.000 A 
ATOM     12  C   UNL     1      -7.849   5.840 132.897  0.00  0.00    +0.000 A 
ATOM     13  C   UNL     1      -9.196   5.508 133.026  0.00  0.00    +0.000 A 
ATOM     14  C   UNL     1     -10.090   5.791 131.986  0.00  0.00    +0.000 A 
ENDBRANCH   3   9
TORSDOF 1
ENDMDL
MODEL 3
REMARK VINA RESULT:      -5.8      1.483      2.257
REMARK  Name = Phendimetrazine
REMARK  3 active torsions:
REMARK  status: ('A' for Active; 'I' for Inactive)
REMARK    1  A    between atoms: C_1  and  C_2
REMARK    2  A    between atoms: C_3  and  C_9
REMARK    3  A    between atoms: N_7  and  C_8
REMARK                            x       y       z     vdW  Elec       q    Type
REMARK                         _______ _______ _______ _____ _____    ______ ____
ROOT
ATOM      1  C   UNL     1      -8.000   6.822 131.057  0.00  0.00    +0.000 C 
ATOM      2  C   UNL     1      -9.077   5.737 131.215  0.00  0.00    +0.000 C 
ATOM      3  C   UNL     1      -9.927   5.535 129.889  0.00  0.00    +0.000 C 
ATOM      4  O   UNL     1     -10.863   4.439 130.068  0.00  0.00    +0.000 OA
ATOM      5  C   UNL     1     -10.221   3.230 130.471  0.00  0.00    +0.000 C 
ATOM      6  C   UNL     1      -9.463   3.421 131.782  0.00  0.00    +0.000 C 
ATOM      7  N   UNL     1      -8.424   4.459 131.640  0.00  0.00    +0.000 NA
ATOM      8  C   UNL     1      -7.703   4.581 132.909  0.00  0.00    +0.000 C 
ENDROOT
BRANCH   3   9
ATOM      9  C   UNL     1     -10.738   6.778 129.495  0.00  0.00    +0.000 A 
ATOM     10  C   UNL     1     -11.690   7.338 130.367  0.00  0.00    +0.000 A 
ATOM     11  C   UNL     1     -12.597   8.306 129.928  0.00  0.00    +0.000 A 
ATOM     12  C   UNL     1     -12.448   8.871 128.673  0.00  0.00    +0.000 A 
ATOM     13  C   UNL     1     -11.418   8.437 127.841  0.00  0.00    +0.000 A 
ATOM     14  C   UNL     1     -10.589   7.384 128.242  0.00  0.00    +0.000 A 
ENDBRANCH   3   9
TORSDOF 1
ENDMDL
MODEL 4
REMARK VINA RESULT:      -5.7      9.272     11.074
REMARK  Name = Phendimetrazine
REMARK  3 active torsions:
REMARK  status: ('A' for Active; 'I' for Inactive)
REMARK    1  A    between atoms: C_1  and  C_2
REMARK    2  A    between atoms: C_3  and  C_9
REMARK    3  A    between atoms: N_7  and  C_8
REMARK                            x       y       z     vdW  Elec       q    Type
REMARK                         _______ _______ _______ _____ _____    ______ ____
ROOT
ATOM      1  C   UNL     1      -5.544  -1.866 125.181  0.00  0.00    +0.000 C 
ATOM      2  C   UNL     1      -6.898  -2.131 124.502  0.00  0.00    +0.000 C 
ATOM      3  C   UNL     1      -8.111  -1.506 125.314  0.00  0.00    +0.000 C 
ATOM      4  O   UNL     1      -9.348  -1.707 124.580  0.00  0.00    +0.000 OA
ATOM      5  C   UNL     1      -9.286  -1.194 123.249  0.00  0.00    +0.000 C 
ATOM      6  C   UNL     1      -8.157  -1.851 122.459  0.00  0.00    +0.000 C 
ATOM      7  N   UNL     1      -6.853  -1.601 123.102  0.00  0.00    +0.000 NA
ATOM      8  C   UNL     1      -5.801  -2.220 122.292  0.00  0.00    +0.000 C 
ENDROOT
BRANCH   3   9
ATOM      9  C   UNL     1      -8.292  -2.130 126.706  0.00  0.00    +0.000 A 
ATOM     10  C   UNL     1      -7.837  -1.476 127.866  0.00  0.00    +0.000 A 
ATOM     11  C   UNL     1      -7.774  -2.137 129.095  0.00  0.00    +0.000 A 
ATOM     12  C   UNL     1      -8.341  -3.392 129.232  0.00  0.00    +0.000 A 
ATOM     13  C   UNL     1      -8.933  -4.005 128.129  0.00  0.00    +0.000 A 
ATOM     14  C   UNL     1      -8.884  -3.387 126.875  0.00  0.00    +0.000 A 
ENDBRANCH   3   9
TORSDOF 1
ENDMDL
MODEL 5
REMARK VINA RESULT:      -5.7      8.581     10.860
REMARK  Name = Phendimetrazine
REMARK  3 active torsions:
REMARK  status: ('A' for Active; 'I' for Inactive)
REMARK    1  A    between atoms: C_1  and  C_2
REMARK    2  A    between atoms: C_3  and  C_9
REMARK    3  A    between atoms: N_7  and  C_8
REMARK                            x       y       z     vdW  Elec       q    Type
REMARK                         _______ _______ _______ _____ _____    ______ ____
ROOT
ATOM      1  C   UNL     1      -9.095   0.140 126.151  0.00  0.00    +0.000 C 
ATOM      2  C   UNL     1      -8.705  -0.989 125.183  0.00  0.00    +0.000 C 
ATOM      3  C   UNL     1      -8.950  -2.428 125.807  0.00  0.00    +0.000 C 
ATOM      4  O   UNL     1      -8.652  -3.449 124.817  0.00  0.00    +0.000 OA
ATOM      5  C   UNL     1      -9.384  -3.269 123.606  0.00  0.00    +0.000 C 
ATOM      6  C   UNL     1      -9.089  -1.908 122.982  0.00  0.00    +0.000 C 
ATOM      7  N   UNL     1      -9.462  -0.817 123.902  0.00  0.00    +0.000 NA
ATOM      8  C   UNL     1      -9.193   0.466 123.248  0.00  0.00    +0.000 C 
ENDROOT
BRANCH   3   9
ATOM      9  C   UNL     1      -8.078  -2.709 127.040  0.00  0.00    +0.000 A 
ATOM     10  C   UNL     1      -8.595  -3.376 128.165  0.00  0.00    +0.000 A 
ATOM     11  C   UNL     1      -7.893  -3.417 129.373  0.00  0.00    +0.000 A 
ATOM     12  C   UNL     1      -6.586  -2.963 129.424  0.00  0.00    +0.000 A 
ATOM     13  C   UNL     1      -5.996  -2.430 128.280  0.00  0.00    +0.000 A 
ATOM     14  C   UNL     1      -6.746  -2.283 127.108  0.00  0.00    +0.000 A 
ENDBRANCH   3   9
TORSDOF 1
ENDMDL
MODEL 6
REMARK VINA RESULT:      -5.4      1.556      2.059
REMARK  Name = Phendimetrazine
REMARK  3 active torsions:
REMARK  status: ('A' for Active; 'I' for Inactive)
REMARK    1  A    between atoms: C_1  and  C_2
REMARK    2  A    between atoms: C_3  and  C_9
REMARK    3  A    between atoms: N_7  and  C_8
REMARK                            x       y       z     vdW  Elec       q    Type
REMARK                         _______ _______ _______ _____ _____    ______ ____
ROOT
ATOM      1  C   UNL     1      -8.537   4.719 128.922  0.00  0.00    +0.000 C 
ATOM      2  C   UNL     1      -8.541   5.590 130.189  0.00  0.00    +0.000 C 
ATOM      3  C   UNL     1     -10.005   5.812 130.763  0.00  0.00    +0.000 C 
ATOM      4  O   UNL     1      -9.937   6.560 132.006  0.00  0.00    +0.000 OA
ATOM      5  C   UNL     1      -9.081   5.948 132.969  0.00  0.00    +0.000 C 
ATOM      6  C   UNL     1      -7.661   5.801 132.429  0.00  0.00    +0.000 C 
ATOM      7  N   UNL     1      -7.646   4.965 131.214  0.00  0.00    +0.000 NA
ATOM      8  C   UNL     1      -6.262   4.825 130.754  0.00  0.00    +0.000 C 
ENDROOT
BRANCH   3   9
ATOM      9  C   UNL     1     -10.919   6.587 129.803  0.00  0.00    +0.000 A 
ATOM     10  C   UNL     1     -10.506   7.795 129.213  0.00  0.00    +0.000 A 
ATOM     11  C   UNL     1     -11.410   8.624 128.543  0.00  0.00    +0.000 A 
ATOM     12  C   UNL     1     -12.692   8.175 128.283  0.00  0.00    +0.000 A 
ATOM     13  C   UNL     1     -13.086   6.915 128.729  0.00  0.00    +0.000 A 
ATOM     14  C   UNL     1     -12.212   6.142 129.503  0.00  0.00    +0.000 A 
ENDBRANCH   3   9
TORSDOF 1
ENDMDL
MODEL 7
REMARK VINA RESULT:      -5.2      8.356     10.642
REMARK  Name = Phendimetrazine
REMARK  3 active torsions:
REMARK  status: ('A' for Active; 'I' for Inactive)
REMARK    1  A    between atoms: C_1  and  C_2
REMARK    2  A    between atoms: C_3  and  C_9
REMARK    3  A    between atoms: N_7  and  C_8
REMARK                            x       y       z     vdW  Elec       q    Type
REMARK                         _______ _______ _______ _____ _____    ______ ____
ROOT
ATOM      1  C   UNL     1      -5.858   1.503 125.716  0.00  0.00    +0.000 C 
ATOM      2  C   UNL     1      -6.994   1.501 124.681  0.00  0.00    +0.000 C 
ATOM      3  C   UNL     1      -7.786   0.125 124.659  0.00  0.00    +0.000 C 
ATOM      4  O   UNL     1      -8.901   0.215 123.732  0.00  0.00    +0.000 OA
ATOM      5  C   UNL     1      -9.764   1.315 124.017  0.00  0.00    +0.000 C 
ATOM      6  C   UNL     1      -9.004   2.638 123.971  0.00  0.00    +0.000 C 
ATOM      7  N   UNL     1      -7.912   2.651 124.962  0.00  0.00    +0.000 NA
ATOM      8  C   UNL     1      -7.236   3.948 124.904  0.00  0.00    +0.000 C 
ENDROOT
BRANCH   3   9
ATOM      9  C   UNL     1      -6.918  -1.065 124.226  0.00  0.00    +0.000 A 
ATOM     10  C   UNL     1      -6.383  -1.963 125.167  0.00  0.00    +0.000 A 
ATOM     11  C   UNL     1      -5.402  -2.891 124.811  0.00  0.00    +0.000 A 
ATOM     12  C   UNL     1      -5.078  -3.073 123.478  0.00  0.00    +0.000 A 
ATOM     13  C   UNL     1      -5.703  -2.297 122.505  0.00  0.00    +0.000 A 
ATOM     14  C   UNL     1      -6.595  -1.286 122.881  0.00  0.00    +0.000 A 
ENDBRANCH   3   9
TORSDOF 1
ENDMDL
MODEL 8
REMARK VINA RESULT:      -5.2      7.733     10.109
REMARK  Name = Phendimetrazine
REMARK  3 active torsions:
REMARK  status: ('A' for Active; 'I' for Inactive)
REMARK    1  A    between atoms: C_1  and  C_2
REMARK    2  A    between atoms: C_3  and  C_9
REMARK    3  A    between atoms: N_7  and  C_8
REMARK                            x       y       z     vdW  Elec       q    Type
REMARK                         _______ _______ _______ _____ _____    ______ ____
ROOT
ATOM      1  C   UNL     1      -8.271   0.833 127.152  0.00  0.00    +0.000 C 
ATOM      2  C   UNL     1      -8.133   1.237 125.675  0.00  0.00    +0.000 C 
ATOM      3  C   UNL     1      -8.917   0.254 124.706  0.00  0.00    +0.000 C 
ATOM      4  O   UNL     1      -8.828   0.737 123.339  0.00  0.00    +0.000 OA
ATOM      5  C   UNL     1      -9.281   2.084 123.202  0.00  0.00    +0.000 C 
ATOM      6  C   UNL     1      -8.474   3.028 124.090  0.00  0.00    +0.000 C 
ATOM      7  N   UNL     1      -8.602   2.650 125.510  0.00  0.00    +0.000 NA
ATOM      8  C   UNL     1      -7.841   3.602 126.322  0.00  0.00    +0.000 C 
ENDROOT
BRANCH   3   9
ATOM      9  C   UNL     1      -8.370  -1.181 124.727  0.00  0.00    +0.000 A 
ATOM     10  C   UNL     1      -7.124  -1.499 124.157  0.00  0.00    +0.000 A 
ATOM     11  C   UNL     1      -6.734  -2.825 123.954  0.00  0.00    +0.000 A 
ATOM     12  C   UNL     1      -7.490  -3.854 124.489  0.00  0.00    +0.000 A 
ATOM     13  C   UNL     1      -8.658  -3.559 125.189  0.00  0.00    +0.000 A 
ATOM     14  C   UNL     1      -9.103  -2.236 125.284  0.00  0.00    +0.000 A 
ENDBRANCH   3   9
TORSDOF 1
ENDMDL
MODEL 9
REMARK VINA RESULT:      -5.2      8.725      9.701
REMARK  Name = Phendimetrazine
REMARK  3 active torsions:
REMARK  status: ('A' for Active; 'I' for Inactive)
REMARK    1  A    between atoms: C_1  and  C_2
REMARK    2  A    between atoms: C_3  and  C_9
REMARK    3  A    between atoms: N_7  and  C_8
REMARK                            x       y       z     vdW  Elec       q    Type
REMARK                         _______ _______ _______ _____ _____    ______ ____
ROOT
ATOM      1  C   UNL     1      -5.650  -4.654 130.502  0.00  0.00    +0.000 C 
ATOM      2  C   UNL     1      -5.980  -3.259 131.057  0.00  0.00    +0.000 C 
ATOM      3  C   UNL     1      -7.514  -2.887 130.879  0.00  0.00    +0.000 C 
ATOM      4  O   UNL     1      -7.783  -1.603 131.502  0.00  0.00    +0.000 OA
ATOM      5  C   UNL     1      -7.389  -1.565 132.873  0.00  0.00    +0.000 C 
ATOM      6  C   UNL     1      -5.898  -1.859 133.024  0.00  0.00    +0.000 C 
ATOM      7  N   UNL     1      -5.571  -3.197 132.496  0.00  0.00    +0.000 NA
ATOM      8  C   UNL     1      -4.142  -3.446 132.694  0.00  0.00    +0.000 C 
ENDROOT
BRANCH   3   9
ATOM      9  C   UNL     1      -7.945  -2.788 129.408  0.00  0.00    +0.000 A 
ATOM     10  C   UNL     1      -8.772  -3.762 128.820  0.00  0.00    +0.000 A 
ATOM     11  C   UNL     1      -8.965  -3.814 127.437  0.00  0.00    +0.000 A 
ATOM     12  C   UNL     1      -8.497  -2.786 126.638  0.00  0.00    +0.000 A 
ATOM     13  C   UNL     1      -7.798  -1.728 127.215  0.00  0.00    +0.000 A 
ATOM     14  C   UNL     1      -7.505  -1.746 128.584  0.00  0.00    +0.000 A 
ENDBRANCH   3   9
TORSDOF 1
ENDMDL
