MODEL 1
REMARK VINA RESULT:      -7.4      0.000      0.000
REMARK  Name = Phentolamine
REMARK  6 active torsions:
REMARK  status: ('A' for Active; 'I' for Inactive)
REMARK    1  A    between atoms: C_1  and  C_2
REMARK    2  A    between atoms: C_5  and  N_8
REMARK    3  A    between atoms: N_8  and  C_9
REMARK    4  A    between atoms: N_8  and  C_15
REMARK    5  A    between atoms: C_9  and  C_10
REMARK    6  A    between atoms: C_17  and  O_18
REMARK                            x       y       z     vdW  Elec       q    Type
REMARK                         _______ _______ _______ _____ _____    ______ ____
ROOT
ATOM      1  N   UNL     1      -7.287   2.422 123.719  0.00  0.00    +0.000 N 
ENDROOT
BRANCH   1   6
ATOM      2  C   UNL     1      -2.861   3.461 127.263  0.00  0.00    +0.000 C 
ATOM      3  C   UNL     1      -3.991   3.107 126.351  0.00  0.00    +0.000 A 
ATOM      4  C   UNL     1      -4.542   4.094 125.589  0.00  0.00    +0.000 A 
ATOM      5  C   UNL     1      -5.782   3.873 124.995  0.00  0.00    +0.000 A 
ATOM      6  C   UNL     1      -6.280   2.616 124.692  0.00  0.00    +0.000 A 
ATOM      7  C   UNL     1      -5.712   1.612 125.476  0.00  0.00    +0.000 A 
ATOM      8  C   UNL     1      -4.634   1.863 126.360  0.00  0.00    +0.000 A 
ENDBRANCH   1   6
BRANCH   1   9
ATOM      9  C   UNL     1      -7.241   3.098 122.458  0.00  0.00    +0.000 A 
ATOM     10  C   UNL     1      -8.436   3.311 121.738  0.00  0.00    +0.000 A 
ATOM     11  C   UNL     1      -8.414   3.820 120.440  0.00  0.00    +0.000 A 
ATOM     12  C   UNL     1      -7.212   4.138 119.826  0.00  0.00    +0.000 A 
ATOM     13  C   UNL     1      -6.020   3.953 120.524  0.00  0.00    +0.000 A 
ATOM     14  C   UNL     1      -6.033   3.444 121.832  0.00  0.00    +0.000 A 
BRANCH  11  15
ATOM     15  O   UNL     1      -9.557   4.003 119.718  0.00  0.00    +0.000 OA
ATOM     16  H   UNL     1      -9.318   4.171 118.791  0.00  0.00    +0.000 HD
ENDBRANCH  11  15
ENDBRANCH   1   9
BRANCH   1  17
ATOM     17  C   UNL     1      -8.533   1.533 123.907  0.00  0.00    +0.000 C 
BRANCH  17  18
ATOM     18  C   UNL     1      -8.497   0.046 123.417  0.00  0.00    +0.000 C 
ATOM     19  N   UNL     1      -9.599  -0.652 123.197  0.00  0.00    +0.000 NA
ATOM     20  C   UNL     1      -9.121  -2.060 123.367  0.00  0.00    +0.000 C 
ATOM     21  C   UNL     1      -7.786  -2.015 122.677  0.00  0.00    +0.000 C 
ATOM     22  N   UNL     1      -7.342  -0.708 123.179  0.00  0.00    +0.000 N 
ATOM     23  H   UNL     1      -6.563  -0.276 122.696  0.00  0.00    +0.000 HD
ENDBRANCH  17  18
ENDBRANCH   1  17
TORSDOF 5
ENDMDL
MODEL 2
REMARK VINA RESULT:      -7.3      2.721      5.443
REMARK  Name = Phentolamine
REMARK  6 active torsions:
REMARK  status: ('A' for Active; 'I' for Inactive)
REMARK    1  A    between atoms: C_1  and  C_2
REMARK    2  A    between atoms: C_5  and  N_8
REMARK    3  A    between atoms: N_8  and  C_9
REMARK    4  A    between atoms: N_8  and  C_15
REMARK    5  A    between atoms: C_9  and  C_10
REMARK    6  A    between atoms: C_17  and  O_18
REMARK                            x       y       z     vdW  Elec       q    Type
REMARK                         _______ _______ _______ _____ _____    ______ ____
ROOT
ATOM      1  N   UNL     1      -8.159   1.827 123.420  0.00  0.00    +0.000 N 
ENDROOT
BRANCH   1   6
ATOM      2  C   UNL     1      -6.614   5.033 118.886  0.00  0.00    +0.000 C 
ATOM      3  C   UNL     1      -6.932   4.176 120.069  0.00  0.00    +0.000 A 
ATOM      4  C   UNL     1      -8.238   3.872 120.316  0.00  0.00    +0.000 A 
ATOM      5  C   UNL     1      -8.586   3.369 121.567  0.00  0.00    +0.000 A 
ATOM      6  C   UNL     1      -7.707   2.696 122.401  0.00  0.00    +0.000 A 
ATOM      7  C   UNL     1      -6.375   3.014 122.142  0.00  0.00    +0.000 A 
ATOM      8  C   UNL     1      -5.989   3.814 121.039  0.00  0.00    +0.000 A 
ENDBRANCH   1   6
BRANCH   1   9
ATOM      9  C   UNL     1      -7.989   0.409 123.317  0.00  0.00    +0.000 A 
ATOM     10  C   UNL     1      -9.126  -0.427 123.281  0.00  0.00    +0.000 A 
ATOM     11  C   UNL     1      -9.001  -1.814 123.340  0.00  0.00    +0.000 A 
ATOM     12  C   UNL     1      -7.751  -2.408 123.430  0.00  0.00    +0.000 A 
ATOM     13  C   UNL     1      -6.613  -1.604 123.449  0.00  0.00    +0.000 A 
ATOM     14  C   UNL     1      -6.729  -0.206 123.385  0.00  0.00    +0.000 A 
BRANCH  11  15
ATOM     15  O   UNL     1     -10.090  -2.637 123.339  0.00  0.00    +0.000 OA
ATOM     16  H   UNL     1     -10.761  -2.267 122.743  0.00  0.00    +0.000 HD
ENDBRANCH  11  15
ENDBRANCH   1   9
BRANCH   1  17
ATOM     17  C   UNL     1      -8.901   2.276 124.695  0.00  0.00    +0.000 C 
BRANCH  17  18
ATOM     18  C   UNL     1      -8.285   1.956 126.098  0.00  0.00    +0.000 C 
ATOM     19  N   UNL     1      -9.028   1.601 127.133  0.00  0.00    +0.000 NA
ATOM     20  C   UNL     1      -8.170   2.001 128.292  0.00  0.00    +0.000 C 
ATOM     21  C   UNL     1      -6.806   1.577 127.822  0.00  0.00    +0.000 C 
ATOM     22  N   UNL     1      -6.925   2.020 126.427  0.00  0.00    +0.000 N 
ATOM     23  H   UNL     1      -6.243   1.654 125.774  0.00  0.00    +0.000 HD
ENDBRANCH  17  18
ENDBRANCH   1  17
TORSDOF 5
ENDMDL
MODEL 3
REMARK VINA RESULT:      -7.3      1.491      4.733
REMARK  Name = Phentolamine
REMARK  6 active torsions:
REMARK  status: ('A' for Active; 'I' for Inactive)
REMARK    1  A    between atoms: C_1  and  C_2
REMARK    2  A    between atoms: C_5  and  N_8
REMARK    3  A    between atoms: N_8  and  C_9
REMARK    4  A    between atoms: N_8  and  C_15
REMARK    5  A    between atoms: C_9  and  C_10
REMARK    6  A    between atoms: C_17  and  O_18
REMARK                            x       y       z     vdW  Elec       q    Type
REMARK                         _______ _______ _______ _____ _____    ______ ____
ROOT
ATOM      1  N   UNL     1      -7.871   2.522 123.261  0.00  0.00    +0.000 N 
ENDROOT
BRANCH   1   6
ATOM      2  C   UNL     1      -8.381  -3.184 123.901  0.00  0.00    +0.000 C 
ATOM      3  C   UNL     1      -8.164  -1.713 123.754  0.00  0.00    +0.000 A 
ATOM      4  C   UNL     1      -9.254  -0.894 123.757  0.00  0.00    +0.000 A 
ATOM      5  C   UNL     1      -9.115   0.413 123.296  0.00  0.00    +0.000 A 
ATOM      6  C   UNL     1      -7.917   1.109 123.298  0.00  0.00    +0.000 A 
ATOM      7  C   UNL     1      -6.808   0.265 123.295  0.00  0.00    +0.000 A 
ATOM      8  C   UNL     1      -6.926  -1.139 123.436  0.00  0.00    +0.000 A 
ENDBRANCH   1   6
BRANCH   1   9
ATOM      9  C   UNL     1      -7.698   3.227 122.027  0.00  0.00    +0.000 A 
ATOM     10  C   UNL     1      -8.813   3.451 121.190  0.00  0.00    +0.000 A 
ATOM     11  C   UNL     1      -8.659   3.991 119.915  0.00  0.00    +0.000 A 
ATOM     12  C   UNL     1      -7.401   4.329 119.438  0.00  0.00    +0.000 A 
ATOM     13  C   UNL     1      -6.287   4.134 120.253  0.00  0.00    +0.000 A 
ATOM     14  C   UNL     1      -6.433   3.595 121.541  0.00  0.00    +0.000 A 
BRANCH  11  15
ATOM     15  O   UNL     1      -9.721   4.184 119.080  0.00  0.00    +0.000 OA
ATOM     16  H   UNL     1     -10.473   4.508 119.601  0.00  0.00    +0.000 HD
ENDBRANCH  11  15
ENDBRANCH   1   9
BRANCH   1  17
ATOM     17  C   UNL     1      -7.950   3.437 124.499  0.00  0.00    +0.000 C 
BRANCH  17  18
ATOM     18  C   UNL     1      -6.660   3.693 125.350  0.00  0.00    +0.000 C 
ATOM     19  N   UNL     1      -6.633   4.559 126.350  0.00  0.00    +0.000 NA
ATOM     20  C   UNL     1      -5.181   4.911 126.425  0.00  0.00    +0.000 C 
ATOM     21  C   UNL     1      -4.531   3.572 126.217  0.00  0.00    +0.000 C 
ATOM     22  N   UNL     1      -5.418   3.078 125.155  0.00  0.00    +0.000 N 
ATOM     23  H   UNL     1      -5.386   2.084 124.961  0.00  0.00    +0.000 HD
ENDBRANCH  17  18
ENDBRANCH   1  17
TORSDOF 5
ENDMDL
MODEL 4
REMARK VINA RESULT:      -7.2      2.117      5.161
REMARK  Name = Phentolamine
REMARK  6 active torsions:
REMARK  status: ('A' for Active; 'I' for Inactive)
REMARK    1  A    between atoms: C_1  and  C_2
REMARK    2  A    between atoms: C_5  and  N_8
REMARK    3  A    between atoms: N_8  and  C_9
REMARK    4  A    between atoms: N_8  and  C_15
REMARK    5  A    between atoms: C_9  and  C_10
REMARK    6  A    between atoms: C_17  and  O_18
REMARK                            x       y       z     vdW  Elec       q    Type
REMARK                         _______ _______ _______ _____ _____    ______ ____
ROOT
ATOM      1  N   UNL     1      -6.956   2.991 123.411  0.00  0.00    +0.000 N 
ENDROOT
BRANCH   1   6
ATOM      2  C   UNL     1      -9.056  -2.363 123.022  0.00  0.00    +0.000 C 
ATOM      3  C   UNL     1      -8.588  -0.945 123.094  0.00  0.00    +0.000 A 
ATOM      4  C   UNL     1      -7.249  -0.709 123.198  0.00  0.00    +0.000 A 
ATOM      5  C   UNL     1      -6.817   0.553 123.595  0.00  0.00    +0.000 A 
ATOM      6  C   UNL     1      -7.558   1.712 123.425  0.00  0.00    +0.000 A 
ATOM      7  C   UNL     1      -8.926   1.462 123.321  0.00  0.00    +0.000 A 
ATOM      8  C   UNL     1      -9.450   0.149 123.241  0.00  0.00    +0.000 A 
ENDBRANCH   1   6
BRANCH   1   9
ATOM      9  C   UNL     1      -6.458   3.564 122.197  0.00  0.00    +0.000 A 
ATOM     10  C   UNL     1      -5.341   4.426 122.241  0.00  0.00    +0.000 A 
ATOM     11  C   UNL     1      -4.926   5.126 121.110  0.00  0.00    +0.000 A 
ATOM     12  C   UNL     1      -5.599   4.985 119.905  0.00  0.00    +0.000 A 
ATOM     13  C   UNL     1      -6.695   4.126 119.833  0.00  0.00    +0.000 A 
ATOM     14  C   UNL     1      -7.117   3.415 120.967  0.00  0.00    +0.000 A 
BRANCH  11  15
ATOM     15  O   UNL     1      -3.868   5.988 121.141  0.00  0.00    +0.000 OA
ATOM     16  H   UNL     1      -3.049   5.482 121.015  0.00  0.00    +0.000 HD
ENDBRANCH  11  15
ENDBRANCH   1   9
BRANCH   1  17
ATOM     17  C   UNL     1      -6.729   3.871 124.657  0.00  0.00    +0.000 C 
BRANCH  17  18
ATOM     18  C   UNL     1      -5.514   3.571 125.599  0.00  0.00    +0.000 C 
ATOM     19  N   UNL     1      -4.706   4.523 126.036  0.00  0.00    +0.000 NA
ATOM     20  C   UNL     1      -3.450   3.765 126.326  0.00  0.00    +0.000 C 
ATOM     21  C   UNL     1      -3.988   2.512 126.960  0.00  0.00    +0.000 C 
ATOM     22  N   UNL     1      -5.132   2.306 126.062  0.00  0.00    +0.000 N 
ATOM     23  H   UNL     1      -5.847   1.661 126.378  0.00  0.00    +0.000 HD
ENDBRANCH  17  18
ENDBRANCH   1  17
TORSDOF 5
ENDMDL
MODEL 5
REMARK VINA RESULT:      -7.1      2.242      5.189
REMARK  Name = Phentolamine
REMARK  6 active torsions:
REMARK  status: ('A' for Active; 'I' for Inactive)
REMARK    1  A    between atoms: C_1  and  C_2
REMARK    2  A    between atoms: C_5  and  N_8
REMARK    3  A    between atoms: N_8  and  C_9
REMARK    4  A    between atoms: N_8  and  C_15
REMARK    5  A    between atoms: C_9  and  C_10
REMARK    6  A    between atoms: C_17  and  O_18
REMARK                            x       y       z     vdW  Elec       q    Type
REMARK                         _______ _______ _______ _____ _____    ______ ____
ROOT
ATOM      1  N   UNL     1      -7.257   2.485 123.875  0.00  0.00    +0.000 N 
ENDROOT
BRANCH   1   6
ATOM      2  C   UNL     1      -7.269   4.653 118.534  0.00  0.00    +0.000 C 
ATOM      3  C   UNL     1      -7.347   4.120 119.928  0.00  0.00    +0.000 A 
ATOM      4  C   UNL     1      -6.187   3.776 120.556  0.00  0.00    +0.000 A 
ATOM      5  C   UNL     1      -6.250   2.983 121.699  0.00  0.00    +0.000 A 
ATOM      6  C   UNL     1      -7.356   2.914 122.532  0.00  0.00    +0.000 A 
ATOM      7  C   UNL     1      -8.538   3.267 121.881  0.00  0.00    +0.000 A 
ATOM      8  C   UNL     1      -8.550   3.786 120.563  0.00  0.00    +0.000 A 
ENDBRANCH   1   6
BRANCH   1   9
ATOM      9  C   UNL     1      -6.297   3.058 124.769  0.00  0.00    +0.000 A 
ATOM     10  C   UNL     1      -5.463   2.211 125.531  0.00  0.00    +0.000 A 
ATOM     11  C   UNL     1      -4.631   2.724 126.525  0.00  0.00    +0.000 A 
ATOM     12  C   UNL     1      -4.597   4.085 126.785  0.00  0.00    +0.000 A 
ATOM     13  C   UNL     1      -5.399   4.944 126.034  0.00  0.00    +0.000 A 
ATOM     14  C   UNL     1      -6.237   4.436 125.028  0.00  0.00    +0.000 A 
BRANCH  11  15
ATOM     15  O   UNL     1      -3.842   1.917 127.292  0.00  0.00    +0.000 OA
ATOM     16  H   UNL     1      -4.347   1.637 128.073  0.00  0.00    +0.000 HD
ENDBRANCH  11  15
ENDBRANCH   1   9
BRANCH   1  17
ATOM     17  C   UNL     1      -8.105   1.360 124.503  0.00  0.00    +0.000 C 
BRANCH  17  18
ATOM     18  C   UNL     1      -8.038  -0.082 123.898  0.00  0.00    +0.000 C 
ATOM     19  N   UNL     1      -6.942  -0.821 123.951  0.00  0.00    +0.000 NA
ATOM     20  C   UNL     1      -7.129  -1.749 122.792  0.00  0.00    +0.000 C 
ATOM     21  C   UNL     1      -8.590  -2.083 122.900  0.00  0.00    +0.000 C 
ATOM     22  N   UNL     1      -9.081  -0.739 123.234  0.00  0.00    +0.000 N 
ATOM     23  H   UNL     1     -10.019  -0.679 123.612  0.00  0.00    +0.000 HD
ENDBRANCH  17  18
ENDBRANCH   1  17
TORSDOF 5
ENDMDL
MODEL 6
REMARK VINA RESULT:      -7.0      2.347      5.942
REMARK  Name = Phentolamine
REMARK  6 active torsions:
REMARK  status: ('A' for Active; 'I' for Inactive)
REMARK    1  A    between atoms: C_1  and  C_2
REMARK    2  A    between atoms: C_5  and  N_8
REMARK    3  A    between atoms: N_8  and  C_9
REMARK    4  A    between atoms: N_8  and  C_15
REMARK    5  A    between atoms: C_9  and  C_10
REMARK    6  A    between atoms: C_17  and  O_18
REMARK                            x       y       z     vdW  Elec       q    Type
REMARK                         _______ _______ _______ _____ _____    ______ ____
ROOT
ATOM      1  N   UNL     1      -7.576   1.892 123.982  0.00  0.00    +0.000 N 
ENDROOT
BRANCH   1   6
ATOM      2  C   UNL     1      -7.392   4.662 118.931  0.00  0.00    +0.000 C 
ATOM      3  C   UNL     1      -7.355   3.925 120.230  0.00  0.00    +0.000 A 
ATOM      4  C   UNL     1      -8.538   3.559 120.801  0.00  0.00    +0.000 A 
ATOM      5  C   UNL     1      -8.550   3.179 122.140  0.00  0.00    +0.000 A 
ATOM      6  C   UNL     1      -7.447   2.669 122.809  0.00  0.00    +0.000 A 
ATOM      7  C   UNL     1      -6.242   3.048 122.219  0.00  0.00    +0.000 A 
ATOM      8  C   UNL     1      -6.190   3.743 120.986  0.00  0.00    +0.000 A 
ENDBRANCH   1   6
BRANCH   1   9
ATOM      9  C   UNL     1      -7.761   0.474 123.918  0.00  0.00    +0.000 A 
ATOM     10  C   UNL     1      -8.738  -0.139 124.732  0.00  0.00    +0.000 A 
ATOM     11  C   UNL     1      -8.839  -1.526 124.815  0.00  0.00    +0.000 A 
ATOM     12  C   UNL     1      -7.983  -2.342 124.090  0.00  0.00    +0.000 A 
ATOM     13  C   UNL     1      -7.022  -1.760 123.266  0.00  0.00    +0.000 A 
ATOM     14  C   UNL     1      -6.915  -0.363 123.173  0.00  0.00    +0.000 A 
BRANCH  11  15
ATOM     15  O   UNL     1      -9.756  -2.136 125.621  0.00  0.00    +0.000 OA
ATOM     16  H   UNL     1      -9.306  -2.456 126.420  0.00  0.00    +0.000 HD
ENDBRANCH  11  15
ENDBRANCH   1   9
BRANCH   1  17
ATOM     17  C   UNL     1      -7.579   2.459 125.416  0.00  0.00    +0.000 C 
BRANCH  17  18
ATOM     18  C   UNL     1      -6.236   2.951 126.052  0.00  0.00    +0.000 C 
ATOM     19  N   UNL     1      -6.164   4.042 126.797  0.00  0.00    +0.000 NA
ATOM     20  C   UNL     1      -4.728   4.434 126.647  0.00  0.00    +0.000 C 
ATOM     21  C   UNL     1      -4.038   3.101 126.721  0.00  0.00    +0.000 C 
ATOM     22  N   UNL     1      -4.987   2.334 125.904  0.00  0.00    +0.000 N 
ATOM     23  H   UNL     1      -4.927   1.325 125.963  0.00  0.00    +0.000 HD
ENDBRANCH  17  18
ENDBRANCH   1  17
TORSDOF 5
ENDMDL
MODEL 7
REMARK VINA RESULT:      -7.0      4.266      6.195
REMARK  Name = Phentolamine
REMARK  6 active torsions:
REMARK  status: ('A' for Active; 'I' for Inactive)
REMARK    1  A    between atoms: C_1  and  C_2
REMARK    2  A    between atoms: C_5  and  N_8
REMARK    3  A    between atoms: N_8  and  C_9
REMARK    4  A    between atoms: N_8  and  C_15
REMARK    5  A    between atoms: C_9  and  C_10
REMARK    6  A    between atoms: C_17  and  O_18
REMARK                            x       y       z     vdW  Elec       q    Type
REMARK                         _______ _______ _______ _____ _____    ______ ____
ROOT
ATOM      1  N   UNL     1      -7.668  -1.142 126.838  0.00  0.00    +0.000 N 
ENDROOT
BRANCH   1   6
ATOM      2  C   UNL     1      -5.515  -4.574 130.938  0.00  0.00    +0.000 C 
ATOM      3  C   UNL     1      -5.997  -3.642 129.874  0.00  0.00    +0.000 A 
ATOM      4  C   UNL     1      -7.338  -3.562 129.642  0.00  0.00    +0.000 A 
ATOM      5  C   UNL     1      -7.783  -2.972 128.462  0.00  0.00    +0.000 A 
ATOM      6  C   UNL     1      -7.054  -2.038 127.742  0.00  0.00    +0.000 A 
ATOM      7  C   UNL     1      -5.683  -2.128 127.984  0.00  0.00    +0.000 A 
ATOM      8  C   UNL     1      -5.146  -2.980 128.980  0.00  0.00    +0.000 A 
ENDBRANCH   1   6
BRANCH   1   9
ATOM      9  C   UNL     1      -7.847  -1.483 125.460  0.00  0.00    +0.000 A 
ATOM     10  C   UNL     1      -8.981  -2.226 125.067  0.00  0.00    +0.000 A 
ATOM     11  C   UNL     1      -9.109  -2.712 123.767  0.00  0.00    +0.000 A 
ATOM     12  C   UNL     1      -8.124  -2.469 122.822  0.00  0.00    +0.000 A 
ATOM     13  C   UNL     1      -7.003  -1.722 123.181  0.00  0.00    +0.000 A 
ATOM     14  C   UNL     1      -6.867  -1.226 124.487  0.00  0.00    +0.000 A 
BRANCH  11  15
ATOM     15  O   UNL     1     -10.182  -3.459 123.378  0.00  0.00    +0.000 OA
ATOM     16  H   UNL     1     -10.090  -4.354 123.745  0.00  0.00    +0.000 HD
ENDBRANCH  11  15
ENDBRANCH   1   9
BRANCH   1  17
ATOM     17  C   UNL     1      -8.159   0.274 127.201  0.00  0.00    +0.000 C 
BRANCH  17  18
ATOM     18  C   UNL     1      -8.563   1.265 126.058  0.00  0.00    +0.000 C 
ATOM     19  N   UNL     1      -9.780   1.291 125.542  0.00  0.00    +0.000 NA
ATOM     20  C   UNL     1      -9.537   1.869 124.183  0.00  0.00    +0.000 C 
ATOM     21  C   UNL     1      -8.533   2.946 124.485  0.00  0.00    +0.000 C 
ATOM     22  N   UNL     1      -7.715   2.198 125.448  0.00  0.00    +0.000 N 
ATOM     23  H   UNL     1      -7.083   2.740 126.026  0.00  0.00    +0.000 HD
ENDBRANCH  17  18
ENDBRANCH   1  17
TORSDOF 5
ENDMDL
MODEL 8
REMARK VINA RESULT:      -6.8      2.163      4.863
REMARK  Name = Phentolamine
REMARK  6 active torsions:
REMARK  status: ('A' for Active; 'I' for Inactive)
REMARK    1  A    between atoms: C_1  and  C_2
REMARK    2  A    between atoms: C_5  and  N_8
REMARK    3  A    between atoms: N_8  and  C_9
REMARK    4  A    between atoms: N_8  and  C_15
REMARK    5  A    between atoms: C_9  and  C_10
REMARK    6  A    between atoms: C_17  and  O_18
REMARK                            x       y       z     vdW  Elec       q    Type
REMARK                         _______ _______ _______ _____ _____    ______ ____
ROOT
ATOM      1  N   UNL     1      -8.126   2.523 123.188  0.00  0.00    +0.000 N 
ENDROOT
BRANCH   1   6
ATOM      2  C   UNL     1      -5.818   5.299 118.694  0.00  0.00    +0.000 C 
ATOM      3  C   UNL     1      -6.494   4.609 119.834  0.00  0.00    +0.000 A 
ATOM      4  C   UNL     1      -5.727   4.169 120.872  0.00  0.00    +0.000 A 
ATOM      5  C   UNL     1      -6.268   3.249 121.766  0.00  0.00    +0.000 A 
ATOM      6  C   UNL     1      -7.627   3.108 122.001  0.00  0.00    +0.000 A 
ATOM      7  C   UNL     1      -8.404   3.560 120.935  0.00  0.00    +0.000 A 
ATOM      8  C   UNL     1      -7.842   4.229 119.821  0.00  0.00    +0.000 A 
ENDBRANCH   1   6
BRANCH   1   9
ATOM      9  C   UNL     1      -7.602   2.882 124.470  0.00  0.00    +0.000 A 
ATOM     10  C   UNL     1      -8.310   3.793 125.283  0.00  0.00    +0.000 A 
ATOM     11  C   UNL     1      -7.757   4.287 126.463  0.00  0.00    +0.000 A 
ATOM     12  C   UNL     1      -6.494   3.887 126.873  0.00  0.00    +0.000 A 
ATOM     13  C   UNL     1      -5.782   2.974 126.096  0.00  0.00    +0.000 A 
ATOM     14  C   UNL     1      -6.333   2.468 124.908  0.00  0.00    +0.000 A 
BRANCH  11  15
ATOM     15  O   UNL     1      -8.414   5.192 127.244  0.00  0.00    +0.000 OA
ATOM     16  H   UNL     1      -7.985   6.059 127.147  0.00  0.00    +0.000 HD
ENDBRANCH  11  15
ENDBRANCH   1   9
BRANCH   1  17
ATOM     17  C   UNL     1      -9.219   1.436 123.240  0.00  0.00    +0.000 C 
BRANCH  17  18
ATOM     18  C   UNL     1      -8.885   0.039 123.862  0.00  0.00    +0.000 C 
ATOM     19  N   UNL     1      -8.304  -0.925 123.167  0.00  0.00    +0.000 NA
ATOM     20  C   UNL     1      -8.742  -2.153 123.900  0.00  0.00    +0.000 C 
ATOM     21  C   UNL     1      -8.621  -1.714 125.333  0.00  0.00    +0.000 C 
ATOM     22  N   UNL     1      -9.164  -0.358 125.176  0.00  0.00    +0.000 N 
ATOM     23  H   UNL     1      -8.992   0.292 125.933  0.00  0.00    +0.000 HD
ENDBRANCH  17  18
ENDBRANCH   1  17
TORSDOF 5
ENDMDL
MODEL 9
REMARK VINA RESULT:      -6.7      7.910     10.250
REMARK  Name = Phentolamine
REMARK  6 active torsions:
REMARK  status: ('A' for Active; 'I' for Inactive)
REMARK    1  A    between atoms: C_1  and  C_2
REMARK    2  A    between atoms: C_5  and  N_8
REMARK    3  A    between atoms: N_8  and  C_9
REMARK    4  A    between atoms: N_8  and  C_15
REMARK    5  A    between atoms: C_9  and  C_10
REMARK    6  A    between atoms: C_17  and  O_18
REMARK                            x       y       z     vdW  Elec       q    Type
REMARK                         _______ _______ _______ _____ _____    ______ ____
ROOT
ATOM      1  N   UNL     1      -9.411   5.688 131.076  0.00  0.00    +0.000 N 
ENDROOT
BRANCH   1   6
ATOM      2  C   UNL     1     -13.177   9.399 128.779  0.00  0.00    +0.000 C 
ATOM      3  C   UNL     1     -12.248   8.437 129.447  0.00  0.00    +0.000 A 
ATOM      4  C   UNL     1     -11.014   8.242 128.900  0.00  0.00    +0.000 A 
ATOM      5  C   UNL     1     -10.271   7.132 129.295  0.00  0.00    +0.000 A 
ATOM      6  C   UNL     1     -10.430   6.490 130.513  0.00  0.00    +0.000 A 
ATOM      7  C   UNL     1     -11.694   6.694 131.065  0.00  0.00    +0.000 A 
ATOM      8  C   UNL     1     -12.630   7.593 130.497  0.00  0.00    +0.000 A 
ENDBRANCH   1   6
BRANCH   1   9
ATOM      9  C   UNL     1      -9.230   4.326 130.674  0.00  0.00    +0.000 A 
ATOM     10  C   UNL     1      -9.753   3.288 131.475  0.00  0.00    +0.000 A 
ATOM     11  C   UNL     1      -9.461   1.952 131.203  0.00  0.00    +0.000 A 
ATOM     12  C   UNL     1      -8.653   1.610 130.130  0.00  0.00    +0.000 A 
ATOM     13  C   UNL     1      -8.140   2.616 129.314  0.00  0.00    +0.000 A 
ATOM     14  C   UNL     1      -8.431   3.964 129.578  0.00  0.00    +0.000 A 
BRANCH  11  15
ATOM     15  O   UNL     1      -9.931   0.937 131.985  0.00  0.00    +0.000 OA
ATOM     16  H   UNL     1      -9.813   0.097 131.512  0.00  0.00    +0.000 HD
ENDBRANCH  11  15
ENDBRANCH   1   9
BRANCH   1  17
ATOM     17  C   UNL     1      -8.440   6.148 132.182  0.00  0.00    +0.000 C 
BRANCH  17  18
ATOM     18  C   UNL     1      -6.959   6.494 131.810  0.00  0.00    +0.000 C 
ATOM     19  N   UNL     1      -6.647   7.228 130.755  0.00  0.00    +0.000 NA
ATOM     20  C   UNL     1      -5.249   6.784 130.461  0.00  0.00    +0.000 C 
ATOM     21  C   UNL     1      -4.664   6.682 131.842  0.00  0.00    +0.000 C 
ATOM     22  N   UNL     1      -5.821   6.070 132.509  0.00  0.00    +0.000 N 
ATOM     23  H   UNL     1      -5.828   6.095 133.521  0.00  0.00    +0.000 HD
ENDBRANCH  17  18
ENDBRANCH   1  17
TORSDOF 5
ENDMDL
