MODEL 1
REMARK VINA RESULT:      -6.1      0.000      0.000
REMARK  Name = Phenmetrazine
REMARK  2 active torsions:
REMARK  status: ('A' for Active; 'I' for Inactive)
REMARK    1  A    between atoms: C_1  and  C_2
REMARK    2  A    between atoms: C_7  and  C_8
REMARK                            x       y       z     vdW  Elec       q    Type
REMARK                         _______ _______ _______ _____ _____    ______ ____
ROOT
ATOM      1  C   UNL     1     -13.052   7.197 127.372  0.00  0.00    +0.000 C 
ATOM      2  C   UNL     1     -11.860   7.438 128.310  0.00  0.00    +0.000 C 
ATOM      3  N   UNL     1     -11.685   8.892 128.516  0.00  0.00    +0.000 NA
ATOM      4  C   UNL     1     -12.780   9.435 129.337  0.00  0.00    +0.000 C 
ATOM      5  C   UNL     1     -13.099   8.626 130.615  0.00  0.00    +0.000 C 
ATOM      6  O   UNL     1     -13.169   7.210 130.394  0.00  0.00    +0.000 OA
ATOM      7  C   UNL     1     -12.032   6.686 129.664  0.00  0.00    +0.000 C 
ATOM      8  H   UNL     1     -11.601   9.381 127.629  0.00  0.00    +0.000 HD
ENDROOT
BRANCH   7   9
ATOM      9  C   UNL     1     -10.766   6.668 130.523  0.00  0.00    +0.000 A 
ATOM     10  C   UNL     1      -9.535   7.115 130.023  0.00  0.00    +0.000 A 
ATOM     11  C   UNL     1      -8.369   6.929 130.779  0.00  0.00    +0.000 A 
ATOM     12  C   UNL     1      -8.415   6.324 132.033  0.00  0.00    +0.000 A 
ATOM     13  C   UNL     1      -9.632   5.935 132.566  0.00  0.00    +0.000 A 
ATOM     14  C   UNL     1     -10.783   6.154 131.829  0.00  0.00    +0.000 A 
ENDBRANCH   7   9
TORSDOF 1
ENDMDL
MODEL 2
REMARK VINA RESULT:      -6.1      1.610      2.638
REMARK  Name = Phenmetrazine
REMARK  2 active torsions:
REMARK  status: ('A' for Active; 'I' for Inactive)
REMARK    1  A    between atoms: C_1  and  C_2
REMARK    2  A    between atoms: C_7  and  C_8
REMARK                            x       y       z     vdW  Elec       q    Type
REMARK                         _______ _______ _______ _____ _____    ______ ____
ROOT
ATOM      1  C   UNL     1     -13.780   9.283 128.052  0.00  0.00    +0.000 C 
ATOM      2  C   UNL     1     -13.045   8.158 128.795  0.00  0.00    +0.000 C 
ATOM      3  N   UNL     1     -13.177   6.899 128.030  0.00  0.00    +0.000 NA
ATOM      4  C   UNL     1     -12.382   6.959 126.792  0.00  0.00    +0.000 C 
ATOM      5  C   UNL     1     -10.933   7.468 126.971  0.00  0.00    +0.000 C 
ATOM      6  O   UNL     1     -10.836   8.639 127.796  0.00  0.00    +0.000 OA
ATOM      7  C   UNL     1     -11.551   8.517 129.051  0.00  0.00    +0.000 C 
ATOM      8  H   UNL     1     -14.152   6.684 127.842  0.00  0.00    +0.000 HD
ENDROOT
BRANCH   7   9
ATOM      9  C   UNL     1     -10.844   7.562 130.015  0.00  0.00    +0.000 A 
ATOM     10  C   UNL     1     -11.554   6.851 130.993  0.00  0.00    +0.000 A 
ATOM     11  C   UNL     1     -10.857   6.117 131.962  0.00  0.00    +0.000 A 
ATOM     12  C   UNL     1      -9.464   6.064 131.959  0.00  0.00    +0.000 A 
ATOM     13  C   UNL     1      -8.753   6.709 130.962  0.00  0.00    +0.000 A 
ATOM     14  C   UNL     1      -9.450   7.403 129.987  0.00  0.00    +0.000 A 
ENDBRANCH   7   9
TORSDOF 1
ENDMDL
MODEL 3
REMARK VINA RESULT:      -5.9      8.437      9.949
REMARK  Name = Phenmetrazine
REMARK  2 active torsions:
REMARK  status: ('A' for Active; 'I' for Inactive)
REMARK    1  A    between atoms: C_1  and  C_2
REMARK    2  A    between atoms: C_7  and  C_8
REMARK                            x       y       z     vdW  Elec       q    Type
REMARK                         _______ _______ _______ _____ _____    ______ ____
ROOT
ATOM      1  C   UNL     1      -8.231   2.204 125.728  0.00  0.00    +0.000 C 
ATOM      2  C   UNL     1      -8.327   3.069 124.464  0.00  0.00    +0.000 C 
ATOM      3  N   UNL     1      -8.287   4.498 124.845  0.00  0.00    +0.000 NA
ATOM      4  C   UNL     1      -6.943   4.872 125.317  0.00  0.00    +0.000 C 
ATOM      5  C   UNL     1      -5.781   4.401 124.412  0.00  0.00    +0.000 C 
ATOM      6  O   UNL     1      -5.903   3.035 123.987  0.00  0.00    +0.000 OA
ATOM      7  C   UNL     1      -7.207   2.719 123.440  0.00  0.00    +0.000 C 
ATOM      8  H   UNL     1      -9.002   4.715 125.533  0.00  0.00    +0.000 HD
ENDROOT
BRANCH   7   9
ATOM      9  C   UNL     1      -7.412   3.352 122.062  0.00  0.00    +0.000 A 
ATOM     10  C   UNL     1      -8.689   3.479 121.497  0.00  0.00    +0.000 A 
ATOM     11  C   UNL     1      -8.822   3.909 120.170  0.00  0.00    +0.000 A 
ATOM     12  C   UNL     1      -7.704   4.234 119.404  0.00  0.00    +0.000 A 
ATOM     13  C   UNL     1      -6.441   4.174 119.969  0.00  0.00    +0.000 A 
ATOM     14  C   UNL     1      -6.320   3.782 121.292  0.00  0.00    +0.000 A 
ENDBRANCH   7   9
TORSDOF 1
ENDMDL
MODEL 4
REMARK VINA RESULT:      -5.9      2.064      4.725
REMARK  Name = Phenmetrazine
REMARK  2 active torsions:
REMARK  status: ('A' for Active; 'I' for Inactive)
REMARK    1  A    between atoms: C_1  and  C_2
REMARK    2  A    between atoms: C_7  and  C_8
REMARK                            x       y       z     vdW  Elec       q    Type
REMARK                         _______ _______ _______ _____ _____    ______ ____
ROOT
ATOM      1  C   UNL     1      -7.766   6.378 131.816  0.00  0.00    +0.000 C 
ATOM      2  C   UNL     1      -8.704   6.679 130.639  0.00  0.00    +0.000 C 
ATOM      3  N   UNL     1      -8.435   5.724 129.542  0.00  0.00    +0.000 NA
ATOM      4  C   UNL     1      -8.896   4.374 129.905  0.00  0.00    +0.000 C 
ATOM      5  C   UNL     1     -10.323   4.309 130.495  0.00  0.00    +0.000 C 
ATOM      6  O   UNL     1     -10.577   5.311 131.491  0.00  0.00    +0.000 OA
ATOM      7  C   UNL     1     -10.200   6.646 131.071  0.00  0.00    +0.000 C 
ATOM      8  H   UNL     1      -7.452   5.731 129.283  0.00  0.00    +0.000 HD
ENDROOT
BRANCH   7   9
ATOM      9  C   UNL     1     -11.159   7.200 130.015  0.00  0.00    +0.000 A 
ATOM     10  C   UNL     1     -12.517   6.851 130.005  0.00  0.00    +0.000 A 
ATOM     11  C   UNL     1     -13.327   7.243 128.930  0.00  0.00    +0.000 A 
ATOM     12  C   UNL     1     -12.809   7.994 127.876  0.00  0.00    +0.000 A 
ATOM     13  C   UNL     1     -11.485   8.399 127.905  0.00  0.00    +0.000 A 
ATOM     14  C   UNL     1     -10.701   8.039 128.987  0.00  0.00    +0.000 A 
ENDBRANCH   7   9
TORSDOF 1
ENDMDL
MODEL 5
REMARK VINA RESULT:      -5.6      2.399      4.701
REMARK  Name = Phenmetrazine
REMARK  2 active torsions:
REMARK  status: ('A' for Active; 'I' for Inactive)
REMARK    1  A    between atoms: C_1  and  C_2
REMARK    2  A    between atoms: C_7  and  C_8
REMARK                            x       y       z     vdW  Elec       q    Type
REMARK                         _______ _______ _______ _____ _____    ______ ____
ROOT
ATOM      1  C   UNL     1      -9.581   3.369 131.046  0.00  0.00    +0.000 C 
ATOM      2  C   UNL     1     -10.319   4.715 131.043  0.00  0.00    +0.000 C 
ATOM      3  N   UNL     1     -10.128   5.381 132.349  0.00  0.00    +0.000 NA
ATOM      4  C   UNL     1      -8.737   5.845 132.496  0.00  0.00    +0.000 C 
ATOM      5  C   UNL     1      -8.176   6.615 131.279  0.00  0.00    +0.000 C 
ATOM      6  O   UNL     1      -8.462   5.985 130.021  0.00  0.00    +0.000 OA
ATOM      7  C   UNL     1      -9.857   5.624 129.865  0.00  0.00    +0.000 C 
ATOM      8  H   UNL     1     -10.405   4.774 133.115  0.00  0.00    +0.000 HD
ENDROOT
BRANCH   7   9
ATOM      9  C   UNL     1     -10.740   6.854 129.652  0.00  0.00    +0.000 A 
ATOM     10  C   UNL     1     -11.830   7.127 130.491  0.00  0.00    +0.000 A 
ATOM     11  C   UNL     1     -12.713   8.166 130.167  0.00  0.00    +0.000 A 
ATOM     12  C   UNL     1     -12.515   8.950 129.032  0.00  0.00    +0.000 A 
ATOM     13  C   UNL     1     -11.408   8.732 128.229  0.00  0.00    +0.000 A 
ATOM     14  C   UNL     1     -10.521   7.727 128.575  0.00  0.00    +0.000 A 
ENDBRANCH   7   9
TORSDOF 1
ENDMDL
MODEL 6
REMARK VINA RESULT:      -5.4     10.261     10.833
REMARK  Name = Phenmetrazine
REMARK  2 active torsions:
REMARK  status: ('A' for Active; 'I' for Inactive)
REMARK    1  A    between atoms: C_1  and  C_2
REMARK    2  A    between atoms: C_7  and  C_8
REMARK                            x       y       z     vdW  Elec       q    Type
REMARK                         _______ _______ _______ _____ _____    ______ ____
ROOT
ATOM      1  C   UNL     1      -9.015   2.255 122.862  0.00  0.00    +0.000 C 
ATOM      2  C   UNL     1      -8.074   1.121 123.292  0.00  0.00    +0.000 C 
ATOM      3  N   UNL     1      -7.433   1.478 124.577  0.00  0.00    +0.000 NA
ATOM      4  C   UNL     1      -8.414   1.436 125.675  0.00  0.00    +0.000 C 
ATOM      5  C   UNL     1      -9.296   0.166 125.712  0.00  0.00    +0.000 C 
ATOM      6  O   UNL     1      -9.824  -0.202 124.429  0.00  0.00    +0.000 OA
ATOM      7  C   UNL     1      -8.819  -0.243 123.385  0.00  0.00    +0.000 C 
ATOM      8  H   UNL     1      -6.972   2.381 124.518  0.00  0.00    +0.000 HD
ENDROOT
BRANCH   7   9
ATOM      9  C   UNL     1      -7.887  -1.446 123.544  0.00  0.00    +0.000 A 
ATOM     10  C   UNL     1      -8.344  -2.662 124.069  0.00  0.00    +0.000 A 
ATOM     11  C   UNL     1      -7.428  -3.685 124.354  0.00  0.00    +0.000 A 
ATOM     12  C   UNL     1      -6.067  -3.520 124.104  0.00  0.00    +0.000 A 
ATOM     13  C   UNL     1      -5.610  -2.347 123.527  0.00  0.00    +0.000 A 
ATOM     14  C   UNL     1      -6.525  -1.357 123.215  0.00  0.00    +0.000 A 
ENDBRANCH   7   9
TORSDOF 1
ENDMDL
MODEL 7
REMARK VINA RESULT:      -5.2      2.405      2.964
REMARK  Name = Phenmetrazine
REMARK  2 active torsions:
REMARK  status: ('A' for Active; 'I' for Inactive)
REMARK    1  A    between atoms: C_1  and  C_2
REMARK    2  A    between atoms: C_7  and  C_8
REMARK                            x       y       z     vdW  Elec       q    Type
REMARK                         _______ _______ _______ _____ _____    ______ ____
ROOT
ATOM      1  C   UNL     1     -12.617   8.491 130.039  0.00  0.00    +0.000 C 
ATOM      2  C   UNL     1     -12.120   7.053 129.837  0.00  0.00    +0.000 C 
ATOM      3  N   UNL     1     -12.662   6.522 128.567  0.00  0.00    +0.000 NA
ATOM      4  C   UNL     1     -12.027   7.184 127.415  0.00  0.00    +0.000 C 
ATOM      5  C   UNL     1     -10.485   7.272 127.484  0.00  0.00    +0.000 C 
ATOM      6  O   UNL     1      -9.992   7.702 128.762  0.00  0.00    +0.000 OA
ATOM      7  C   UNL     1     -10.566   6.969 129.873  0.00  0.00    +0.000 C 
ATOM      8  H   UNL     1     -13.675   6.604 128.537  0.00  0.00    +0.000 HD
ENDROOT
BRANCH   7   9
ATOM      9  C   UNL     1     -10.027   5.539 129.948  0.00  0.00    +0.000 A 
ATOM     10  C   UNL     1      -8.796   5.190 129.373  0.00  0.00    +0.000 A 
ATOM     11  C   UNL     1      -8.414   3.842 129.316  0.00  0.00    +0.000 A 
ATOM     12  C   UNL     1      -9.229   2.841 129.841  0.00  0.00    +0.000 A 
ATOM     13  C   UNL     1     -10.417   3.178 130.468  0.00  0.00    +0.000 A 
ATOM     14  C   UNL     1     -10.771   4.514 130.552  0.00  0.00    +0.000 A 
ENDBRANCH   7   9
TORSDOF 1
ENDMDL
MODEL 8
REMARK VINA RESULT:      -5.0     10.754     12.027
REMARK  Name = Phenmetrazine
REMARK  2 active torsions:
REMARK  status: ('A' for Active; 'I' for Inactive)
REMARK    1  A    between atoms: C_1  and  C_2
REMARK    2  A    between atoms: C_7  and  C_8
REMARK                            x       y       z     vdW  Elec       q    Type
REMARK                         _______ _______ _______ _____ _____    ______ ____
ROOT
ATOM      1  C   UNL     1      -4.237  -0.810 130.681  0.00  0.00    +0.000 C 
ATOM      2  C   UNL     1      -5.025  -1.429 129.517  0.00  0.00    +0.000 C 
ATOM      3  N   UNL     1      -4.155  -2.379 128.789  0.00  0.00    +0.000 NA
ATOM      4  C   UNL     1      -3.902  -3.580 129.604  0.00  0.00    +0.000 C 
ATOM      5  C   UNL     1      -5.159  -4.205 130.250  0.00  0.00    +0.000 C 
ATOM      6  O   UNL     1      -6.026  -3.241 130.867  0.00  0.00    +0.000 OA
ATOM      7  C   UNL     1      -6.334  -2.115 130.008  0.00  0.00    +0.000 C 
ATOM      8  H   UNL     1      -3.290  -1.934 128.495  0.00  0.00    +0.000 HD
ENDROOT
BRANCH   7   9
ATOM      9  C   UNL     1      -7.285  -2.509 128.876  0.00  0.00    +0.000 A 
ATOM     10  C   UNL     1      -8.296  -3.462 129.067  0.00  0.00    +0.000 A 
ATOM     11  C   UNL     1      -9.038  -3.918 127.969  0.00  0.00    +0.000 A 
ATOM     12  C   UNL     1      -8.801  -3.425 126.687  0.00  0.00    +0.000 A 
ATOM     13  C   UNL     1      -7.849  -2.438 126.494  0.00  0.00    +0.000 A 
ATOM     14  C   UNL     1      -7.146  -1.967 127.589  0.00  0.00    +0.000 A 
ENDBRANCH   7   9
TORSDOF 1
ENDMDL
MODEL 9
REMARK VINA RESULT:      -5.0      2.774      4.801
REMARK  Name = Phenmetrazine
REMARK  2 active torsions:
REMARK  status: ('A' for Active; 'I' for Inactive)
REMARK    1  A    between atoms: C_1  and  C_2
REMARK    2  A    between atoms: C_7  and  C_8
REMARK                            x       y       z     vdW  Elec       q    Type
REMARK                         _______ _______ _______ _____ _____    ______ ____
ROOT
ATOM      1  C   UNL     1      -6.819   4.578 129.927  0.00  0.00    +0.000 C 
ATOM      2  C   UNL     1      -8.218   5.174 129.713  0.00  0.00    +0.000 C 
ATOM      3  N   UNL     1      -9.080   4.172 129.051  0.00  0.00    +0.000 NA
ATOM      4  C   UNL     1      -9.402   3.072 129.977  0.00  0.00    +0.000 C 
ATOM      5  C   UNL     1      -9.873   3.519 131.380  0.00  0.00    +0.000 C 
ATOM      6  O   UNL     1      -9.065   4.559 131.951  0.00  0.00    +0.000 OA
ATOM      7  C   UNL     1      -8.843   5.672 131.050  0.00  0.00    +0.000 C 
ATOM      8  H   UNL     1      -8.655   3.830 128.194  0.00  0.00    +0.000 HD
ENDROOT
BRANCH   7   9
ATOM      9  C   UNL     1     -10.107   6.513 130.864  0.00  0.00    +0.000 A 
ATOM     10  C   UNL     1     -11.198   6.398 131.737  0.00  0.00    +0.000 A 
ATOM     11  C   UNL     1     -12.398   7.058 131.442  0.00  0.00    +0.000 A 
ATOM     12  C   UNL     1     -12.521   7.847 130.299  0.00  0.00    +0.000 A 
ATOM     13  C   UNL     1     -11.433   8.020 129.461  0.00  0.00    +0.000 A 
ATOM     14  C   UNL     1     -10.240   7.394 129.779  0.00  0.00    +0.000 A 
ENDBRANCH   7   9
TORSDOF 1
ENDMDL
