MODEL 1
REMARK VINA RESULT:      -8.1      0.000      0.000
REMARK  Name = Pholcodine
REMARK  6 active torsions:
REMARK  status: ('A' for Active; 'I' for Inactive)
REMARK    1  A    between atoms: C_5  and  O_6
REMARK    2  A    between atoms: O_6  and  C_7
REMARK    3  A    between atoms: C_7  and  C_8
REMARK    4  A    between atoms: C_8  and  N_9
REMARK    5  A    between atoms: N_22  and  C_23
REMARK    6  A    between atoms: C_31  and  O_32
REMARK                            x       y       z     vdW  Elec       q    Type
REMARK                         _______ _______ _______ _____ _____    ______ ____
ROOT
ATOM      1  C   UNL     1      -8.408  -2.446 124.909  0.00  0.00    +0.000 C 
ATOM      2  O   UNL     1      -9.227  -1.265 124.667  0.00  0.00    +0.000 OA
ATOM      3  C   UNL     1      -8.973  -0.397 125.699  0.00  0.00    +0.000 A 
ATOM      4  C   UNL     1      -9.318   0.943 125.765  0.00  0.00    +0.000 A 
ATOM      5  C   UNL     1      -8.852   1.669 126.877  0.00  0.00    +0.000 A 
ATOM      6  C   UNL     1      -7.997   1.081 127.835  0.00  0.00    +0.000 A 
ATOM      7  C   UNL     1      -7.632  -0.258 127.718  0.00  0.00    +0.000 A 
ATOM      8  C   UNL     1      -8.215  -0.981 126.688  0.00  0.00    +0.000 A 
ATOM      9  C   UNL     1      -7.955  -2.422 126.381  0.00  0.00    +0.000 C 
ATOM     10  C   UNL     1      -8.833  -3.319 127.268  0.00  0.00    +0.000 C 
ATOM     11  C   UNL     1      -8.419  -3.273 128.742  0.00  0.00    +0.000 C 
ATOM     12  N   UNL     1      -6.968  -3.434 128.879  0.00  0.00    +0.000 NA
ATOM     13  C   UNL     1      -6.573  -3.531 130.279  0.00  0.00    +0.000 C 
ATOM     14  C   UNL     1      -6.207  -2.390 128.138  0.00  0.00    +0.000 C 
ATOM     15  C   UNL     1      -6.550  -0.909 128.547  0.00  0.00    +0.000 C 
ATOM     16  C   UNL     1      -6.452  -2.663 126.624  0.00  0.00    +0.000 C 
ATOM     17  C   UNL     1      -5.623  -1.827 125.658  0.00  0.00    +0.000 C 
ATOM     18  C   UNL     1      -6.025  -1.724 124.374  0.00  0.00    +0.000 C 
ATOM     19  C   UNL     1      -7.221  -2.508 123.915  0.00  0.00    +0.000 C 
ENDROOT
BRANCH  19  20
ATOM     20  O   UNL     1      -7.585  -2.094 122.605  0.00  0.00    +0.000 OA
ATOM     21  H   UNL     1      -7.063  -1.293 122.420  0.00  0.00    +0.000 HD
ENDBRANCH  19  20
BRANCH   4  22
ATOM     22  O   UNL     1     -10.032   1.649 124.831  0.00  0.00    +0.000 OA
BRANCH  22  23
ATOM     23  C   UNL     1      -9.453   1.673 123.519  0.00  0.00    +0.000 C 
BRANCH  23  24
ATOM     24  C   UNL     1      -8.510   2.864 123.370  0.00  0.00    +0.000 C 
BRANCH  24  25
ATOM     25  N   UNL     1      -7.108   2.408 123.452  0.00  0.00    +0.000 NA
ATOM     26  C   UNL     1      -6.301   3.087 124.492  0.00  0.00    +0.000 C 
ATOM     27  C   UNL     1      -5.879   4.527 124.138  0.00  0.00    +0.000 C 
ATOM     28  O   UNL     1      -5.249   4.592 122.850  0.00  0.00    +0.000 OA
ATOM     29  C   UNL     1      -6.115   4.047 121.848  0.00  0.00    +0.000 C 
ATOM     30  C   UNL     1      -6.435   2.578 122.151  0.00  0.00    +0.000 C 
ENDBRANCH  24  25
ENDBRANCH  23  24
ENDBRANCH  22  23
ENDBRANCH   4  22
TORSDOF 5
ENDMDL
MODEL 2
REMARK VINA RESULT:      -7.9      2.024      3.907
REMARK  Name = Pholcodine
REMARK  6 active torsions:
REMARK  status: ('A' for Active; 'I' for Inactive)
REMARK    1  A    between atoms: C_5  and  O_6
REMARK    2  A    between atoms: O_6  and  C_7
REMARK    3  A    between atoms: C_7  and  C_8
REMARK    4  A    between atoms: C_8  and  N_9
REMARK    5  A    between atoms: N_22  and  C_23
REMARK    6  A    between atoms: C_31  and  O_32
REMARK                            x       y       z     vdW  Elec       q    Type
REMARK                         _______ _______ _______ _____ _____    ______ ____
ROOT
ATOM      1  C   UNL     1      -5.256  -1.037 127.149  0.00  0.00    +0.000 C 
ATOM      2  O   UNL     1      -5.797  -1.622 125.930  0.00  0.00    +0.000 OA
ATOM      3  C   UNL     1      -6.843  -2.423 126.312  0.00  0.00    +0.000 A 
ATOM      4  C   UNL     1      -7.813  -2.976 125.493  0.00  0.00    +0.000 A 
ATOM      5  C   UNL     1      -8.860  -3.673 126.122  0.00  0.00    +0.000 A 
ATOM      6  C   UNL     1      -8.968  -3.730 127.529  0.00  0.00    +0.000 A 
ATOM      7  C   UNL     1      -7.999  -3.125 128.328  0.00  0.00    +0.000 A 
ATOM      8  C   UNL     1      -6.910  -2.563 127.680  0.00  0.00    +0.000 A 
ATOM      9  C   UNL     1      -5.769  -1.861 128.345  0.00  0.00    +0.000 C 
ATOM     10  C   UNL     1      -4.727  -2.883 128.829  0.00  0.00    +0.000 C 
ATOM     11  C   UNL     1      -5.240  -3.738 129.992  0.00  0.00    +0.000 C 
ATOM     12  N   UNL     1      -5.860  -2.897 131.021  0.00  0.00    +0.000 NA
ATOM     13  C   UNL     1      -6.229  -3.677 132.195  0.00  0.00    +0.000 C 
ATOM     14  C   UNL     1      -6.993  -2.089 130.489  0.00  0.00    +0.000 C 
ATOM     15  C   UNL     1      -8.144  -2.929 129.819  0.00  0.00    +0.000 C 
ATOM     16  C   UNL     1      -6.367  -1.049 129.512  0.00  0.00    +0.000 C 
ATOM     17  C   UNL     1      -7.318   0.014 128.979  0.00  0.00    +0.000 C 
ATOM     18  C   UNL     1      -6.971   0.702 127.870  0.00  0.00    +0.000 C 
ATOM     19  C   UNL     1      -5.623   0.465 127.251  0.00  0.00    +0.000 C 
ENDROOT
BRANCH  19  20
ATOM     20  O   UNL     1      -5.554   1.129 125.997  0.00  0.00    +0.000 OA
ATOM     21  H   UNL     1      -4.765   1.698 126.036  0.00  0.00    +0.000 HD
ENDBRANCH  19  20
BRANCH   4  22
ATOM     22  O   UNL     1      -7.881  -2.876 124.127  0.00  0.00    +0.000 OA
BRANCH  22  23
ATOM     23  C   UNL     1      -8.957  -2.065 123.633  0.00  0.00    +0.000 C 
BRANCH  23  24
ATOM     24  C   UNL     1      -8.546  -0.595 123.592  0.00  0.00    +0.000 C 
BRANCH  24  25
ATOM     25  N   UNL     1      -9.736   0.264 123.753  0.00  0.00    +0.000 NA
ATOM     26  C   UNL     1      -9.964   1.214 122.639  0.00  0.00    +0.000 C 
ATOM     27  C   UNL     1      -9.011   2.427 122.626  0.00  0.00    +0.000 C 
ATOM     28  O   UNL     1      -8.987   3.093 123.897  0.00  0.00    +0.000 OA
ATOM     29  C   UNL     1      -8.632   2.170 124.933  0.00  0.00    +0.000 C 
ATOM     30  C   UNL     1      -9.653   1.028 125.011  0.00  0.00    +0.000 C 
ENDBRANCH  24  25
ENDBRANCH  23  24
ENDBRANCH  22  23
ENDBRANCH   4  22
TORSDOF 5
ENDMDL
MODEL 3
REMARK VINA RESULT:      -7.7      3.071      6.958
REMARK  Name = Pholcodine
REMARK  6 active torsions:
REMARK  status: ('A' for Active; 'I' for Inactive)
REMARK    1  A    between atoms: C_5  and  O_6
REMARK    2  A    between atoms: O_6  and  C_7
REMARK    3  A    between atoms: C_7  and  C_8
REMARK    4  A    between atoms: C_8  and  N_9
REMARK    5  A    between atoms: N_22  and  C_23
REMARK    6  A    between atoms: C_31  and  O_32
REMARK                            x       y       z     vdW  Elec       q    Type
REMARK                         _______ _______ _______ _____ _____    ______ ____
ROOT
ATOM      1  C   UNL     1      -6.998   0.512 127.328  0.00  0.00    +0.000 C 
ATOM      2  O   UNL     1      -7.302  -0.445 128.385  0.00  0.00    +0.000 OA
ATOM      3  C   UNL     1      -7.984  -1.477 127.792  0.00  0.00    +0.000 A 
ATOM      4  C   UNL     1      -8.253  -2.721 128.338  0.00  0.00    +0.000 A 
ATOM      5  C   UNL     1      -8.870  -3.667 127.500  0.00  0.00    +0.000 A 
ATOM      6  C   UNL     1      -9.122  -3.392 126.137  0.00  0.00    +0.000 A 
ATOM      7  C   UNL     1      -8.799  -2.146 125.605  0.00  0.00    +0.000 A 
ATOM      8  C   UNL     1      -8.318  -1.191 126.487  0.00  0.00    +0.000 A 
ATOM      9  C   UNL     1      -7.906   0.200 126.123  0.00  0.00    +0.000 C 
ATOM     10  C   UNL     1      -9.135   1.122 126.077  0.00  0.00    +0.000 C 
ATOM     11  C   UNL     1     -10.069   0.797 124.907  0.00  0.00    +0.000 C 
ATOM     12  N   UNL     1      -9.309   0.654 123.661  0.00  0.00    +0.000 NA
ATOM     13  C   UNL     1     -10.193   0.481 122.515  0.00  0.00    +0.000 C 
ATOM     14  C   UNL     1      -8.268  -0.408 123.748  0.00  0.00    +0.000 C 
ATOM     15  C   UNL     1      -8.812  -1.835 124.127  0.00  0.00    +0.000 C 
ATOM     16  C   UNL     1      -7.199   0.111 124.756  0.00  0.00    +0.000 C 
ATOM     17  C   UNL     1      -5.935  -0.731 124.872  0.00  0.00    +0.000 C 
ATOM     18  C   UNL     1      -5.148  -0.579 125.958  0.00  0.00    +0.000 C 
ATOM     19  C   UNL     1      -5.490   0.477 126.970  0.00  0.00    +0.000 C 
ENDROOT
BRANCH  19  20
ATOM     20  O   UNL     1      -4.662   0.323 128.114  0.00  0.00    +0.000 OA
ATOM     21  H   UNL     1      -5.263   0.181 128.866  0.00  0.00    +0.000 HD
ENDBRANCH  19  20
BRANCH   4  22
ATOM     22  O   UNL     1      -7.937  -3.142 129.604  0.00  0.00    +0.000 OA
BRANCH  22  23
ATOM     23  C   UNL     1      -6.660  -3.783 129.727  0.00  0.00    +0.000 C 
BRANCH  23  24
ATOM     24  C   UNL     1      -6.041  -3.491 131.093  0.00  0.00    +0.000 C 
BRANCH  24  25
ATOM     25  N   UNL     1      -4.696  -4.093 131.174  0.00  0.00    +0.000 NA
ATOM     26  C   UNL     1      -4.018  -3.907 132.478  0.00  0.00    +0.000 C 
ATOM     27  C   UNL     1      -3.466  -2.487 132.717  0.00  0.00    +0.000 C 
ATOM     28  O   UNL     1      -2.646  -2.048 131.624  0.00  0.00    +0.000 OA
ATOM     29  C   UNL     1      -3.382  -2.116 130.396  0.00  0.00    +0.000 C 
ATOM     30  C   UNL     1      -3.826  -3.556 130.112  0.00  0.00    +0.000 C 
ENDBRANCH  24  25
ENDBRANCH  23  24
ENDBRANCH  22  23
ENDBRANCH   4  22
TORSDOF 5
ENDMDL
MODEL 4
REMARK VINA RESULT:      -7.6      4.284      6.436
REMARK  Name = Pholcodine
REMARK  6 active torsions:
REMARK  status: ('A' for Active; 'I' for Inactive)
REMARK    1  A    between atoms: C_5  and  O_6
REMARK    2  A    between atoms: O_6  and  C_7
REMARK    3  A    between atoms: C_7  and  C_8
REMARK    4  A    between atoms: C_8  and  N_9
REMARK    5  A    between atoms: N_22  and  C_23
REMARK    6  A    between atoms: C_31  and  O_32
REMARK                            x       y       z     vdW  Elec       q    Type
REMARK                         _______ _______ _______ _____ _____    ______ ____
ROOT
ATOM      1  C   UNL     1      -7.816   4.118 125.320  0.00  0.00    +0.000 C 
ATOM      2  O   UNL     1      -8.220   4.856 126.510  0.00  0.00    +0.000 OA
ATOM      3  C   UNL     1      -8.100   3.989 127.566  0.00  0.00    +0.000 A 
ATOM      4  C   UNL     1      -8.124   4.308 128.914  0.00  0.00    +0.000 A 
ATOM      5  C   UNL     1      -7.866   3.266 129.822  0.00  0.00    +0.000 A 
ATOM      6  C   UNL     1      -7.510   1.972 129.379  0.00  0.00    +0.000 A 
ATOM      7  C   UNL     1      -7.452   1.693 128.015  0.00  0.00    +0.000 A 
ATOM      8  C   UNL     1      -7.842   2.703 127.149  0.00  0.00    +0.000 A 
ATOM      9  C   UNL     1      -7.846   2.615 125.656  0.00  0.00    +0.000 C 
ATOM     10  C   UNL     1      -9.139   1.942 125.168  0.00  0.00    +0.000 C 
ATOM     11  C   UNL     1      -9.200   0.455 125.531  0.00  0.00    +0.000 C 
ATOM     12  N   UNL     1      -7.941  -0.215 125.188  0.00  0.00    +0.000 NA
ATOM     13  C   UNL     1      -8.030  -1.655 125.399  0.00  0.00    +0.000 C 
ATOM     14  C   UNL     1      -6.767   0.394 125.872  0.00  0.00    +0.000 C 
ATOM     15  C   UNL     1      -6.862   0.426 127.442  0.00  0.00    +0.000 C 
ATOM     16  C   UNL     1      -6.591   1.814 125.255  0.00  0.00    +0.000 C 
ATOM     17  C   UNL     1      -5.333   2.565 125.671  0.00  0.00    +0.000 C 
ATOM     18  C   UNL     1      -5.285   3.902 125.498  0.00  0.00    +0.000 C 
ATOM     19  C   UNL     1      -6.431   4.596 124.818  0.00  0.00    +0.000 C 
ENDROOT
BRANCH  19  20
ATOM     20  O   UNL     1      -6.266   6.003 124.927  0.00  0.00    +0.000 OA
ATOM     21  H   UNL     1      -5.608   6.144 125.630  0.00  0.00    +0.000 HD
ENDBRANCH  19  20
BRANCH   4  22
ATOM     22  O   UNL     1      -8.330   5.552 129.454  0.00  0.00    +0.000 OA
BRANCH  22  23
ATOM     23  C   UNL     1      -9.306   5.600 130.505  0.00  0.00    +0.000 C 
BRANCH  23  24
ATOM     24  C   UNL     1     -10.713   5.721 129.925  0.00  0.00    +0.000 C 
BRANCH  24  25
ATOM     25  N   UNL     1     -11.230   7.087 130.143  0.00  0.00    +0.000 NA
ATOM     26  C   UNL     1     -12.708   7.190 130.151  0.00  0.00    +0.000 C 
ATOM     27  C   UNL     1     -13.365   7.095 128.759  0.00  0.00    +0.000 C 
ATOM     28  O   UNL     1     -12.772   8.016 127.831  0.00  0.00    +0.000 OA
ATOM     29  C   UNL     1     -11.359   7.796 127.751  0.00  0.00    +0.000 C 
ATOM     30  C   UNL     1     -10.701   8.007 129.119  0.00  0.00    +0.000 C 
ENDBRANCH  24  25
ENDBRANCH  23  24
ENDBRANCH  22  23
ENDBRANCH   4  22
TORSDOF 5
ENDMDL
MODEL 5
REMARK VINA RESULT:      -7.5      3.835      5.845
REMARK  Name = Pholcodine
REMARK  6 active torsions:
REMARK  status: ('A' for Active; 'I' for Inactive)
REMARK    1  A    between atoms: C_5  and  O_6
REMARK    2  A    between atoms: O_6  and  C_7
REMARK    3  A    between atoms: C_7  and  C_8
REMARK    4  A    between atoms: C_8  and  N_9
REMARK    5  A    between atoms: N_22  and  C_23
REMARK    6  A    between atoms: C_31  and  O_32
REMARK                            x       y       z     vdW  Elec       q    Type
REMARK                         _______ _______ _______ _____ _____    ______ ____
ROOT
ATOM      1  C   UNL     1      -6.353  -2.389 128.299  0.00  0.00    +0.000 C 
ATOM      2  O   UNL     1      -6.442  -1.185 129.115  0.00  0.00    +0.000 OA
ATOM      3  C   UNL     1      -7.223  -0.298 128.417  0.00  0.00    +0.000 A 
ATOM      4  C   UNL     1      -7.793   0.869 128.899  0.00  0.00    +0.000 A 
ATOM      5  C   UNL     1      -8.653   1.565 128.031  0.00  0.00    +0.000 A 
ATOM      6  C   UNL     1      -8.992   1.052 126.759  0.00  0.00    +0.000 A 
ATOM      7  C   UNL     1      -8.436  -0.148 126.320  0.00  0.00    +0.000 A 
ATOM      8  C   UNL     1      -7.489  -0.740 127.141  0.00  0.00    +0.000 A 
ATOM      9  C   UNL     1      -6.780  -2.028 126.864  0.00  0.00    +0.000 C 
ATOM     10  C   UNL     1      -5.570  -1.780 125.949  0.00  0.00    +0.000 C 
ATOM     11  C   UNL     1      -5.980  -1.380 124.529  0.00  0.00    +0.000 C 
ATOM     12  N   UNL     1      -7.017  -2.280 124.015  0.00  0.00    +0.000 NA
ATOM     13  C   UNL     1      -7.321  -2.000 122.617  0.00  0.00    +0.000 C 
ATOM     14  C   UNL     1      -8.233  -2.297 124.874  0.00  0.00    +0.000 C 
ATOM     15  C   UNL     1      -8.906  -0.891 125.092  0.00  0.00    +0.000 C 
ATOM     16  C   UNL     1      -7.811  -2.972 126.214  0.00  0.00    +0.000 C 
ATOM     17  C   UNL     1      -8.942  -3.267 127.191  0.00  0.00    +0.000 C 
ATOM     18  C   UNL     1      -8.641  -3.490 128.487  0.00  0.00    +0.000 C 
ATOM     19  C   UNL     1      -7.200  -3.533 128.910  0.00  0.00    +0.000 C 
ENDROOT
BRANCH  19  20
ATOM     20  O   UNL     1      -7.123  -3.572 130.328  0.00  0.00    +0.000 OA
ATOM     21  H   UNL     1      -6.240  -3.923 130.540  0.00  0.00    +0.000 HD
ENDBRANCH  19  20
BRANCH   4  22
ATOM     22  O   UNL     1      -7.639   1.393 130.157  0.00  0.00    +0.000 OA
BRANCH  22  23
ATOM     23  C   UNL     1      -8.859   1.796 130.797  0.00  0.00    +0.000 C 
BRANCH  23  24
ATOM     24  C   UNL     1      -8.724   3.205 131.370  0.00  0.00    +0.000 C 
BRANCH  24  25
ATOM     25  N   UNL     1      -9.208   4.195 130.388  0.00  0.00    +0.000 NA
ATOM     26  C   UNL     1      -8.239   5.269 130.070  0.00  0.00    +0.000 C 
ATOM     27  C   UNL     1      -8.085   6.340 131.169  0.00  0.00    +0.000 C 
ATOM     28  O   UNL     1      -9.356   6.872 131.570  0.00  0.00    +0.000 OA
ATOM     29  C   UNL     1     -10.222   5.814 131.998  0.00  0.00    +0.000 C 
ATOM     30  C   UNL     1     -10.460   4.817 130.858  0.00  0.00    +0.000 C 
ENDBRANCH  24  25
ENDBRANCH  23  24
ENDBRANCH  22  23
ENDBRANCH   4  22
TORSDOF 5
ENDMDL
MODEL 6
REMARK VINA RESULT:      -7.4      3.142      7.162
REMARK  Name = Pholcodine
REMARK  6 active torsions:
REMARK  status: ('A' for Active; 'I' for Inactive)
REMARK    1  A    between atoms: C_5  and  O_6
REMARK    2  A    between atoms: O_6  and  C_7
REMARK    3  A    between atoms: C_7  and  C_8
REMARK    4  A    between atoms: C_8  and  N_9
REMARK    5  A    between atoms: N_22  and  C_23
REMARK    6  A    between atoms: C_31  and  O_32
REMARK                            x       y       z     vdW  Elec       q    Type
REMARK                         _______ _______ _______ _____ _____    ______ ____
ROOT
ATOM      1  C   UNL     1      -7.008   0.384 127.461  0.00  0.00    +0.000 C 
ATOM      2  O   UNL     1      -7.330  -0.618 128.470  0.00  0.00    +0.000 OA
ATOM      3  C   UNL     1      -8.011  -1.618 127.823  0.00  0.00    +0.000 A 
ATOM      4  C   UNL     1      -8.293  -2.884 128.309  0.00  0.00    +0.000 A 
ATOM      5  C   UNL     1      -8.905  -3.787 127.422  0.00  0.00    +0.000 A 
ATOM      6  C   UNL     1      -9.141  -3.449 126.071  0.00  0.00    +0.000 A 
ATOM      7  C   UNL     1      -8.806  -2.181 125.600  0.00  0.00    +0.000 A 
ATOM      8  C   UNL     1      -8.329  -1.271 126.529  0.00  0.00    +0.000 A 
ATOM      9  C   UNL     1      -7.905   0.133 126.234  0.00  0.00    +0.000 C 
ATOM     10  C   UNL     1      -9.129   1.063 126.216  0.00  0.00    +0.000 C 
ATOM     11  C   UNL     1     -10.051   0.797 125.023  0.00  0.00    +0.000 C 
ATOM     12  N   UNL     1      -9.279   0.706 123.779  0.00  0.00    +0.000 NA
ATOM     13  C   UNL     1     -10.151   0.591 122.618  0.00  0.00    +0.000 C 
ATOM     14  C   UNL     1      -8.245  -0.364 123.829  0.00  0.00    +0.000 C 
ATOM     15  C   UNL     1      -8.800  -1.804 124.137  0.00  0.00    +0.000 C 
ATOM     16  C   UNL     1      -7.184   0.102 124.872  0.00  0.00    +0.000 C 
ATOM     17  C   UNL     1      -5.926  -0.752 124.963  0.00  0.00    +0.000 C 
ATOM     18  C   UNL     1      -5.151  -0.655 126.063  0.00  0.00    +0.000 C 
ATOM     19  C   UNL     1      -5.498   0.357 127.118  0.00  0.00    +0.000 C 
ENDROOT
BRANCH  19  20
ATOM     20  O   UNL     1      -4.683   0.146 128.263  0.00  0.00    +0.000 OA
ATOM     21  H   UNL     1      -4.371  -0.774 128.207  0.00  0.00    +0.000 HD
ENDBRANCH  19  20
BRANCH   4  22
ATOM     22  O   UNL     1      -7.993  -3.363 129.559  0.00  0.00    +0.000 OA
BRANCH  22  23
ATOM     23  C   UNL     1      -6.592  -3.497 129.835  0.00  0.00    +0.000 C 
BRANCH  23  24
ATOM     24  C   UNL     1      -6.284  -3.072 131.269  0.00  0.00    +0.000 C 
BRANCH  24  25
ATOM     25  N   UNL     1      -7.484  -2.472 131.883  0.00  0.00    +0.000 NA
ATOM     26  C   UNL     1      -7.443  -0.995 131.998  0.00  0.00    +0.000 C 
ATOM     27  C   UNL     1      -6.526  -0.464 133.118  0.00  0.00    +0.000 C 
ATOM     28  O   UNL     1      -6.816  -1.088 134.378  0.00  0.00    +0.000 OA
ATOM     29  C   UNL     1      -6.715  -2.512 134.260  0.00  0.00    +0.000 C 
ATOM     30  C   UNL     1      -7.715  -3.040 133.224  0.00  0.00    +0.000 C 
ENDBRANCH  24  25
ENDBRANCH  23  24
ENDBRANCH  22  23
ENDBRANCH   4  22
TORSDOF 5
ENDMDL
MODEL 7
REMARK VINA RESULT:      -7.4      5.434      7.826
REMARK  Name = Pholcodine
REMARK  6 active torsions:
REMARK  status: ('A' for Active; 'I' for Inactive)
REMARK    1  A    between atoms: C_5  and  O_6
REMARK    2  A    between atoms: O_6  and  C_7
REMARK    3  A    between atoms: C_7  and  C_8
REMARK    4  A    between atoms: C_8  and  N_9
REMARK    5  A    between atoms: N_22  and  C_23
REMARK    6  A    between atoms: C_31  and  O_32
REMARK                            x       y       z     vdW  Elec       q    Type
REMARK                         _______ _______ _______ _____ _____    ______ ____
ROOT
ATOM      1  C   UNL     1      -8.190   6.194 130.336  0.00  0.00    +0.000 C 
ATOM      2  O   UNL     1      -8.254   5.105 129.370  0.00  0.00    +0.000 OA
ATOM      3  C   UNL     1      -8.403   3.949 130.094  0.00  0.00    +0.000 A 
ATOM      4  C   UNL     1      -8.762   2.702 129.610  0.00  0.00    +0.000 A 
ATOM      5  C   UNL     1      -8.966   1.683 130.558  0.00  0.00    +0.000 A 
ATOM      6  C   UNL     1      -8.897   1.942 131.945  0.00  0.00    +0.000 A 
ATOM      7  C   UNL     1      -8.577   3.218 132.402  0.00  0.00    +0.000 A 
ATOM      8  C   UNL     1      -8.249   4.165 131.445  0.00  0.00    +0.000 A 
ATOM      9  C   UNL     1      -7.885   5.590 131.720  0.00  0.00    +0.000 C 
ATOM     10  C   UNL     1      -6.394   5.697 132.077  0.00  0.00    +0.000 C 
ATOM     11  C   UNL     1      -6.069   5.064 133.433  0.00  0.00    +0.000 C 
ATOM     12  N   UNL     1      -7.022   5.508 134.456  0.00  0.00    +0.000 NA
ATOM     13  C   UNL     1      -6.647   5.025 135.779  0.00  0.00    +0.000 C 
ATOM     14  C   UNL     1      -8.431   5.178 134.102  0.00  0.00    +0.000 C 
ATOM     15  C   UNL     1      -8.705   3.650 133.844  0.00  0.00    +0.000 C 
ATOM     16  C   UNL     1      -8.791   6.066 132.873  0.00  0.00    +0.000 C 
ATOM     17  C   UNL     1     -10.251   6.036 132.440  0.00  0.00    +0.000 C 
ATOM     18  C   UNL     1     -10.572   6.455 131.199  0.00  0.00    +0.000 C 
ATOM     19  C   UNL     1      -9.498   7.025 130.316  0.00  0.00    +0.000 C 
ENDROOT
BRANCH  19  20
ATOM     20  O   UNL     1     -10.010   7.207 129.003  0.00  0.00    +0.000 OA
ATOM     21  H   UNL     1     -10.909   6.834 129.010  0.00  0.00    +0.000 HD
ENDBRANCH  19  20
BRANCH   4  22
ATOM     22  O   UNL     1      -8.983   2.369 128.298  0.00  0.00    +0.000 OA
BRANCH  22  23
ATOM     23  C   UNL     1      -7.797   2.123 127.529  0.00  0.00    +0.000 C 
BRANCH  23  24
ATOM     24  C   UNL     1      -8.152   1.517 126.173  0.00  0.00    +0.000 C 
BRANCH  24  25
ATOM     25  N   UNL     1      -9.071   2.415 125.447  0.00  0.00    +0.000 NA
ATOM     26  C   UNL     1      -9.810   1.771 124.336  0.00  0.00    +0.000 C 
ATOM     27  C   UNL     1      -8.967   1.508 123.072  0.00  0.00    +0.000 C 
ATOM     28  O   UNL     1      -8.281   2.692 122.639  0.00  0.00    +0.000 OA
ATOM     29  C   UNL     1      -7.472   3.212 123.701  0.00  0.00    +0.000 C 
ATOM     30  C   UNL     1      -8.339   3.577 124.911  0.00  0.00    +0.000 C 
ENDBRANCH  24  25
ENDBRANCH  23  24
ENDBRANCH  22  23
ENDBRANCH   4  22
TORSDOF 5
ENDMDL
MODEL 8
REMARK VINA RESULT:      -7.3      3.843      5.738
REMARK  Name = Pholcodine
REMARK  6 active torsions:
REMARK  status: ('A' for Active; 'I' for Inactive)
REMARK    1  A    between atoms: C_5  and  O_6
REMARK    2  A    between atoms: O_6  and  C_7
REMARK    3  A    between atoms: C_7  and  C_8
REMARK    4  A    between atoms: C_8  and  N_9
REMARK    5  A    between atoms: N_22  and  C_23
REMARK    6  A    between atoms: C_31  and  O_32
REMARK                            x       y       z     vdW  Elec       q    Type
REMARK                         _______ _______ _______ _____ _____    ______ ____
ROOT
ATOM      1  C   UNL     1      -9.052   1.516 125.661  0.00  0.00    +0.000 C 
ATOM      2  O   UNL     1      -9.057   1.935 127.057  0.00  0.00    +0.000 OA
ATOM      3  C   UNL     1      -7.985   1.321 127.652  0.00  0.00    +0.000 A 
ATOM      4  C   UNL     1      -7.438   1.613 128.890  0.00  0.00    +0.000 A 
ATOM      5  C   UNL     1      -6.264   0.927 129.249  0.00  0.00    +0.000 A 
ATOM      6  C   UNL     1      -5.621   0.046 128.351  0.00  0.00    +0.000 A 
ATOM      7  C   UNL     1      -6.171  -0.194 127.093  0.00  0.00    +0.000 A 
ATOM      8  C   UNL     1      -7.398   0.392 126.822  0.00  0.00    +0.000 A 
ATOM      9  C   UNL     1      -8.155   0.270 125.538  0.00  0.00    +0.000 C 
ATOM     10  C   UNL     1      -8.976  -1.030 125.527  0.00  0.00    +0.000 C 
ATOM     11  C   UNL     1      -8.094  -2.280 125.446  0.00  0.00    +0.000 C 
ATOM     12  N   UNL     1      -7.082  -2.134 124.395  0.00  0.00    +0.000 NA
ATOM     13  C   UNL     1      -6.324  -3.365 124.211  0.00  0.00    +0.000 C 
ATOM     14  C   UNL     1      -6.207  -0.947 124.607  0.00  0.00    +0.000 C 
ATOM     15  C   UNL     1      -5.450  -0.925 125.986  0.00  0.00    +0.000 C 
ATOM     16  C   UNL     1      -7.113   0.304 124.403  0.00  0.00    +0.000 C 
ATOM     17  C   UNL     1      -6.393   1.647 124.391  0.00  0.00    +0.000 C 
ATOM     18  C   UNL     1      -7.109   2.772 124.597  0.00  0.00    +0.000 C 
ATOM     19  C   UNL     1      -8.602   2.676 124.738  0.00  0.00    +0.000 C 
ENDROOT
BRANCH  19  20
ATOM     20  O   UNL     1      -9.121   3.934 125.149  0.00  0.00    +0.000 OA
ATOM     21  H   UNL     1      -9.964   3.744 125.597  0.00  0.00    +0.000 HD
ENDBRANCH  19  20
BRANCH   4  22
ATOM     22  O   UNL     1      -7.901   2.539 129.789  0.00  0.00    +0.000 OA
BRANCH  22  23
ATOM     23  C   UNL     1      -7.454   3.883 129.556  0.00  0.00    +0.000 C 
BRANCH  23  24
ATOM     24  C   UNL     1      -8.642   4.837 129.463  0.00  0.00    +0.000 C 
BRANCH  24  25
ATOM     25  N   UNL     1      -8.298   6.130 130.087  0.00  0.00    +0.000 NA
ATOM     26  C   UNL     1      -7.612   6.017 131.395  0.00  0.00    +0.000 C 
ATOM     27  C   UNL     1      -8.530   5.622 132.569  0.00  0.00    +0.000 C 
ATOM     28  O   UNL     1      -9.685   6.471 132.646  0.00  0.00    +0.000 OA
ATOM     29  C   UNL     1     -10.398   6.449 131.404  0.00  0.00    +0.000 C 
ATOM     30  C   UNL     1      -9.508   6.955 130.262  0.00  0.00    +0.000 C 
ENDBRANCH  24  25
ENDBRANCH  23  24
ENDBRANCH  22  23
ENDBRANCH   4  22
TORSDOF 5
ENDMDL
MODEL 9
REMARK VINA RESULT:      -7.1      2.655      5.000
REMARK  Name = Pholcodine
REMARK  6 active torsions:
REMARK  status: ('A' for Active; 'I' for Inactive)
REMARK    1  A    between atoms: C_5  and  O_6
REMARK    2  A    between atoms: O_6  and  C_7
REMARK    3  A    between atoms: C_7  and  C_8
REMARK    4  A    between atoms: C_8  and  N_9
REMARK    5  A    between atoms: N_22  and  C_23
REMARK    6  A    between atoms: C_31  and  O_32
REMARK                            x       y       z     vdW  Elec       q    Type
REMARK                         _______ _______ _______ _____ _____    ______ ____
ROOT
ATOM      1  C   UNL     1      -4.312  -1.414 129.486  0.00  0.00    +0.000 C 
ATOM      2  O   UNL     1      -4.888  -1.577 128.157  0.00  0.00    +0.000 OA
ATOM      3  C   UNL     1      -6.088  -2.219 128.328  0.00  0.00    +0.000 A 
ATOM      4  C   UNL     1      -7.099  -2.359 127.392  0.00  0.00    +0.000 A 
ATOM      5  C   UNL     1      -8.294  -2.960 127.828  0.00  0.00    +0.000 A 
ATOM      6  C   UNL     1      -8.487  -3.323 129.179  0.00  0.00    +0.000 A 
ATOM      7  C   UNL     1      -7.466  -3.128 130.108  0.00  0.00    +0.000 A 
ATOM      8  C   UNL     1      -6.256  -2.660 129.622  0.00  0.00    +0.000 A 
ATOM      9  C   UNL     1      -5.040  -2.376 130.445  0.00  0.00    +0.000 C 
ATOM     10  C   UNL     1      -4.242  -3.669 130.676  0.00  0.00    +0.000 C 
ATOM     11  C   UNL     1      -4.972  -4.653 131.595  0.00  0.00    +0.000 C 
ATOM     12  N   UNL     1      -5.476  -3.970 132.791  0.00  0.00    +0.000 NA
ATOM     13  C   UNL     1      -6.052  -4.914 133.741  0.00  0.00    +0.000 C 
ATOM     14  C   UNL     1      -6.401  -2.850 132.461  0.00  0.00    +0.000 C 
ATOM     15  C   UNL     1      -7.653  -3.262 131.601  0.00  0.00    +0.000 C 
ATOM     16  C   UNL     1      -5.533  -1.757 131.768  0.00  0.00    +0.000 C 
ATOM     17  C   UNL     1      -6.231  -0.430 131.499  0.00  0.00    +0.000 C 
ATOM     18  C   UNL     1      -5.698   0.414 130.591  0.00  0.00    +0.000 C 
ATOM     19  C   UNL     1      -4.389   0.065 129.944  0.00  0.00    +0.000 C 
ENDROOT
BRANCH  19  20
ATOM     20  O   UNL     1      -4.124   0.977 128.887  0.00  0.00    +0.000 OA
ATOM     21  H   UNL     1      -3.477   0.538 128.307  0.00  0.00    +0.000 HD
ENDBRANCH  19  20
BRANCH   4  22
ATOM     22  O   UNL     1      -7.071  -1.930 126.090  0.00  0.00    +0.000 OA
BRANCH  22  23
ATOM     23  C   UNL     1      -8.345  -1.919 125.430  0.00  0.00    +0.000 C 
BRANCH  23  24
ATOM     24  C   UNL     1      -8.468  -0.700 124.519  0.00  0.00    +0.000 C 
BRANCH  24  25
ATOM     25  N   UNL     1      -9.615   0.128 124.941  0.00  0.00    +0.000 NA
ATOM     26  C   UNL     1     -10.005   1.177 123.970  0.00  0.00    +0.000 C 
ATOM     27  C   UNL     1      -9.059   2.395 123.929  0.00  0.00    +0.000 C 
ATOM     28  O   UNL     1      -8.839   2.938 125.239  0.00  0.00    +0.000 OA
ATOM     29  C   UNL     1      -8.336   1.923 126.116  0.00  0.00    +0.000 C 
ATOM     30  C   UNL     1      -9.338   0.770 126.239  0.00  0.00    +0.000 C 
ENDBRANCH  24  25
ENDBRANCH  23  24
ENDBRANCH  22  23
ENDBRANCH   4  22
TORSDOF 5
ENDMDL
