MODEL 1
REMARK VINA RESULT:      -3.6      0.000      0.000
REMARK  Name = Phosphoric acid
REMARK  3 active torsions:
REMARK  status: ('A' for Active; 'I' for Inactive)
REMARK    1  A    between atoms: O_1  and  P_2
REMARK    2  A    between atoms: P_2  and  O_3
REMARK    3  A    between atoms: P_2  and  O_4
REMARK                            x       y       z     vdW  Elec       q    Type
REMARK                         _______ _______ _______ _____ _____    ______ ____
ROOT
ATOM      1  P   UNL     1     -10.938   7.427 126.783  0.00  0.00    +0.000 P 
ATOM      2  O   UNL     1     -11.099   6.807 128.193  0.00  0.00    +0.000 OA
ENDROOT
BRANCH   1   3
ATOM      3  O   UNL     1     -10.759   8.119 125.208  0.00  0.00    +0.000 OA
ATOM      4  H   UNL     1      -9.905   7.841 124.832  0.00  0.00    +0.000 HD
ENDBRANCH   1   3
BRANCH   1   5
ATOM      5  O   UNL     1     -12.164   6.639 126.033  0.00  0.00    +0.000 OA
ATOM      6  H   UNL     1     -12.756   7.194 125.494  0.00  0.00    +0.000 HD
ENDBRANCH   1   5
BRANCH   1   7
ATOM      7  O   UNL     1      -9.795   6.390 126.252  0.00  0.00    +0.000 OA
ATOM      8  H   UNL     1     -10.115   5.925 125.460  0.00  0.00    +0.000 HD
ENDBRANCH   1   7
TORSDOF 3
ENDMDL
MODEL 2
REMARK VINA RESULT:      -3.4      1.044      1.662
REMARK  Name = Phosphoric acid
REMARK  3 active torsions:
REMARK  status: ('A' for Active; 'I' for Inactive)
REMARK    1  A    between atoms: O_1  and  P_2
REMARK    2  A    between atoms: P_2  and  O_3
REMARK    3  A    between atoms: P_2  and  O_4
REMARK                            x       y       z     vdW  Elec       q    Type
REMARK                         _______ _______ _______ _____ _____    ______ ____
ROOT
ATOM      1  P   UNL     1     -10.986   7.567 127.230  0.00  0.00    +0.000 P 
ATOM      2  O   UNL     1     -10.118   8.382 128.221  0.00  0.00    +0.000 OA
ENDROOT
BRANCH   1   3
ATOM      3  O   UNL     1     -11.957   6.657 126.124  0.00  0.00    +0.000 OA
ATOM      4  H   UNL     1     -11.488   5.837 125.889  0.00  0.00    +0.000 HD
ENDBRANCH   1   3
BRANCH   1   5
ATOM      5  O   UNL     1     -11.703   6.562 128.308  0.00  0.00    +0.000 OA
ATOM      6  H   UNL     1     -11.650   6.836 129.241  0.00  0.00    +0.000 HD
ENDBRANCH   1   5
BRANCH   1   7
ATOM      7  O   UNL     1      -9.835   6.487 126.816  0.00  0.00    +0.000 OA
ATOM      8  H   UNL     1      -8.955   6.882 126.941  0.00  0.00    +0.000 HD
ENDBRANCH   1   7
TORSDOF 3
ENDMDL
MODEL 3
REMARK VINA RESULT:      -3.2      1.002      1.894
REMARK  Name = Phosphoric acid
REMARK  3 active torsions:
REMARK  status: ('A' for Active; 'I' for Inactive)
REMARK    1  A    between atoms: O_1  and  P_2
REMARK    2  A    between atoms: P_2  and  O_3
REMARK    3  A    between atoms: P_2  and  O_4
REMARK                            x       y       z     vdW  Elec       q    Type
REMARK                         _______ _______ _______ _____ _____    ______ ____
ROOT
ATOM      1  P   UNL     1     -10.921   7.508 127.326  0.00  0.00    +0.000 P 
ATOM      2  O   UNL     1     -11.993   8.521 127.799  0.00  0.00    +0.000 OA
ENDROOT
BRANCH   1   3
ATOM      3  O   UNL     1      -9.725   6.376 126.797  0.00  0.00    +0.000 OA
ATOM      4  H   UNL     1      -8.887   6.559 127.259  0.00  0.00    +0.000 HD
ENDBRANCH   1   3
BRANCH   1   5
ATOM      5  O   UNL     1     -11.809   6.733 126.188  0.00  0.00    +0.000 OA
ATOM      6  H   UNL     1     -11.305   6.190 125.555  0.00  0.00    +0.000 HD
ENDBRANCH   1   5
BRANCH   1   7
ATOM      7  O   UNL     1     -11.206   6.385 128.476  0.00  0.00    +0.000 OA
ATOM      8  H   UNL     1     -12.149   6.148 128.478  0.00  0.00    +0.000 HD
ENDBRANCH   1   7
TORSDOF 3
ENDMDL
MODEL 4
REMARK VINA RESULT:      -3.2      0.995      2.229
REMARK  Name = Phosphoric acid
REMARK  3 active torsions:
REMARK  status: ('A' for Active; 'I' for Inactive)
REMARK    1  A    between atoms: O_1  and  P_2
REMARK    2  A    between atoms: P_2  and  O_3
REMARK    3  A    between atoms: P_2  and  O_4
REMARK                            x       y       z     vdW  Elec       q    Type
REMARK                         _______ _______ _______ _____ _____    ______ ____
ROOT
ATOM      1  P   UNL     1     -10.850   7.321 126.961  0.00  0.00    +0.000 P 
ATOM      2  O   UNL     1      -9.767   6.397 126.349  0.00  0.00    +0.000 OA
ENDROOT
BRANCH   1   3
ATOM      3  O   UNL     1     -12.058   8.352 127.645  0.00  0.00    +0.000 OA
ATOM      4  H   UNL     1     -12.783   8.463 127.004  0.00  0.00    +0.000 HD
ENDBRANCH   1   3
BRANCH   1   5
ATOM      5  O   UNL     1     -11.160   6.460 128.320  0.00  0.00    +0.000 OA
ATOM      6  H   UNL     1     -11.010   5.499 128.256  0.00  0.00    +0.000 HD
ENDBRANCH   1   5
BRANCH   1   7
ATOM      7  O   UNL     1     -12.114   6.697 126.140  0.00  0.00    +0.000 OA
ATOM      8  H   UNL     1     -11.937   6.736 125.184  0.00  0.00    +0.000 HD
ENDBRANCH   1   7
TORSDOF 3
ENDMDL
MODEL 5
REMARK VINA RESULT:      -3.1      1.002      2.502
REMARK  Name = Phosphoric acid
REMARK  3 active torsions:
REMARK  status: ('A' for Active; 'I' for Inactive)
REMARK    1  A    between atoms: O_1  and  P_2
REMARK    2  A    between atoms: P_2  and  O_3
REMARK    3  A    between atoms: P_2  and  O_4
REMARK                            x       y       z     vdW  Elec       q    Type
REMARK                         _______ _______ _______ _____ _____    ______ ____
ROOT
ATOM      1  P   UNL     1     -11.142   7.396 126.779  0.00  0.00    +0.000 P 
ATOM      2  O   UNL     1     -10.795   8.092 125.439  0.00  0.00    +0.000 OA
ENDROOT
BRANCH   1   3
ATOM      3  O   UNL     1     -11.530   6.618 128.274  0.00  0.00    +0.000 OA
ATOM      4  H   UNL     1     -11.156   7.136 129.010  0.00  0.00    +0.000 HD
ENDBRANCH   1   3
BRANCH   1   5
ATOM      5  O   UNL     1     -10.537   8.524 127.801  0.00  0.00    +0.000 OA
ATOM      6  H   UNL     1     -10.683   9.451 127.542  0.00  0.00    +0.000 HD
ENDBRANCH   1   5
BRANCH   1   7
ATOM      7  O   UNL     1      -9.812   6.453 126.849  0.00  0.00    +0.000 OA
ATOM      8  H   UNL     1      -9.452   6.325 125.955  0.00  0.00    +0.000 HD
ENDBRANCH   1   7
TORSDOF 3
ENDMDL
MODEL 6
REMARK VINA RESULT:      -3.0      6.313      7.058
REMARK  Name = Phosphoric acid
REMARK  3 active torsions:
REMARK  status: ('A' for Active; 'I' for Inactive)
REMARK    1  A    between atoms: O_1  and  P_2
REMARK    2  A    between atoms: P_2  and  O_3
REMARK    3  A    between atoms: P_2  and  O_4
REMARK                            x       y       z     vdW  Elec       q    Type
REMARK                         _______ _______ _______ _____ _____    ______ ____
ROOT
ATOM      1  P   UNL     1     -10.201   1.160 123.436  0.00  0.00    +0.000 P 
ATOM      2  O   UNL     1     -10.559   0.116 122.349  0.00  0.00    +0.000 OA
ENDROOT
BRANCH   1   3
ATOM      3  O   UNL     1      -9.801   2.325 124.651  0.00  0.00    +0.000 OA
ATOM      4  H   UNL     1      -9.557   1.860 125.471  0.00  0.00    +0.000 HD
ENDBRANCH   1   3
BRANCH   1   5
ATOM      5  O   UNL     1      -9.781   0.124 124.634  0.00  0.00    +0.000 OA
ATOM      6  H   UNL     1      -8.824   0.015 124.783  0.00  0.00    +0.000 HD
ENDBRANCH   1   5
BRANCH   1   7
ATOM      7  O   UNL     1     -11.719   1.373 123.998  0.00  0.00    +0.000 OA
ATOM      8  H   UNL     1     -11.875   0.784 124.755  0.00  0.00    +0.000 HD
ENDBRANCH   1   7
TORSDOF 3
ENDMDL
MODEL 7
REMARK VINA RESULT:      -3.0      1.635      2.394
REMARK  Name = Phosphoric acid
REMARK  3 active torsions:
REMARK  status: ('A' for Active; 'I' for Inactive)
REMARK    1  A    between atoms: O_1  and  P_2
REMARK    2  A    between atoms: P_2  and  O_3
REMARK    3  A    between atoms: P_2  and  O_4
REMARK                            x       y       z     vdW  Elec       q    Type
REMARK                         _______ _______ _______ _____ _____    ______ ____
ROOT
ATOM      1  P   UNL     1     -10.759   7.366 128.257  0.00  0.00    +0.000 P 
ATOM      2  O   UNL     1      -9.637   7.957 129.146  0.00  0.00    +0.000 OA
ENDROOT
BRANCH   1   3
ATOM      3  O   UNL     1     -12.012   6.706 127.263  0.00  0.00    +0.000 OA
ATOM      4  H   UNL     1     -12.877   6.907 127.665  0.00  0.00    +0.000 HD
ENDBRANCH   1   3
BRANCH   1   5
ATOM      5  O   UNL     1      -9.820   6.527 127.209  0.00  0.00    +0.000 OA
ATOM      6  H   UNL     1     -10.048   6.621 126.267  0.00  0.00    +0.000 HD
ENDBRANCH   1   5
BRANCH   1   7
ATOM      7  O   UNL     1     -10.911   8.655 127.267  0.00  0.00    +0.000 OA
ATOM      8  H   UNL     1     -10.050   9.096 127.168  0.00  0.00    +0.000 HD
ENDBRANCH   1   7
TORSDOF 3
ENDMDL
MODEL 8
REMARK VINA RESULT:      -2.9      4.170      5.799
REMARK  Name = Phosphoric acid
REMARK  3 active torsions:
REMARK  status: ('A' for Active; 'I' for Inactive)
REMARK    1  A    between atoms: O_1  and  P_2
REMARK    2  A    between atoms: P_2  and  O_3
REMARK    3  A    between atoms: P_2  and  O_4
REMARK                            x       y       z     vdW  Elec       q    Type
REMARK                         _______ _______ _______ _____ _____    ______ ____
ROOT
ATOM      1  P   UNL     1     -10.660   5.953 131.274  0.00  0.00    +0.000 P 
ATOM      2  O   UNL     1     -11.050   5.536 129.834  0.00  0.00    +0.000 OA
ENDROOT
BRANCH   1   3
ATOM      3  O   UNL     1     -10.224   6.419 132.882  0.00  0.00    +0.000 OA
ATOM      4  H   UNL     1     -10.984   6.273 133.474  0.00  0.00    +0.000 HD
ENDBRANCH   1   3
BRANCH   1   5
ATOM      5  O   UNL     1     -10.430   4.459 131.904  0.00  0.00    +0.000 OA
ATOM      6  H   UNL     1      -9.598   4.017 131.654  0.00  0.00    +0.000 HD
ENDBRANCH   1   5
BRANCH   1   7
ATOM      7  O   UNL     1     -12.182   6.086 131.849  0.00  0.00    +0.000 OA
ATOM      8  H   UNL     1     -12.785   5.546 131.311  0.00  0.00    +0.000 HD
ENDBRANCH   1   7
TORSDOF 3
ENDMDL
MODEL 9
REMARK VINA RESULT:      -2.8      1.987      3.027
REMARK  Name = Phosphoric acid
REMARK  3 active torsions:
REMARK  status: ('A' for Active; 'I' for Inactive)
REMARK    1  A    between atoms: O_1  and  P_2
REMARK    2  A    between atoms: P_2  and  O_3
REMARK    3  A    between atoms: P_2  and  O_4
REMARK                            x       y       z     vdW  Elec       q    Type
REMARK                         _______ _______ _______ _____ _____    ______ ____
ROOT
ATOM      1  P   UNL     1     -10.718   7.397 128.448  0.00  0.00    +0.000 P 
ATOM      2  O   UNL     1      -9.889   6.550 127.451  0.00  0.00    +0.000 OA
ENDROOT
BRANCH   1   3
ATOM      3  O   UNL     1     -11.644   8.343 129.562  0.00  0.00    +0.000 OA
ATOM      4  H   UNL     1     -12.365   7.795 129.923  0.00  0.00    +0.000 HD
ENDBRANCH   1   3
BRANCH   1   5
ATOM      5  O   UNL     1     -10.764   8.795 127.596  0.00  0.00    +0.000 OA
ATOM      6  H   UNL     1     -11.639   9.218 127.523  0.00  0.00    +0.000 HD
ENDBRANCH   1   5
BRANCH   1   7
ATOM      7  O   UNL     1      -9.464   7.871 129.379  0.00  0.00    +0.000 OA
ATOM      8  H   UNL     1      -8.678   8.012 128.823  0.00  0.00    +0.000 HD
ENDBRANCH   1   7
TORSDOF 3
ENDMDL
