MODEL 1
REMARK VINA RESULT:      -8.0      0.000      0.000
REMARK  Name = Phthalylsulfathiazole
REMARK  6 active torsions:
REMARK  status: ('A' for Active; 'I' for Inactive)
REMARK    1  A    between atoms: O_1  and  C_2
REMARK    2  A    between atoms: C_2  and  C_4
REMARK    3  A    between atoms: C_9  and  C_10
REMARK    4  A    between atoms: N_12  and  C_13
REMARK    5  A    between atoms: C_16  and  S_19
REMARK    6  A    between atoms: S_19  and  N_22
REMARK                            x       y       z     vdW  Elec       q    Type
REMARK                         _______ _______ _______ _____ _____    ______ ____
ROOT
ATOM      1  C   UNL     1      -9.199   4.358 131.388  0.00  0.00    +0.000 A 
ATOM      2  C   UNL     1      -9.333   3.749 132.639  0.00  0.00    +0.000 A 
ATOM      3  C   UNL     1      -8.568   2.617 132.955  0.00  0.00    +0.000 A 
ATOM      4  C   UNL     1      -7.680   2.081 132.005  0.00  0.00    +0.000 A 
ATOM      5  C   UNL     1      -7.490   2.741 130.792  0.00  0.00    +0.000 A 
ATOM      6  C   UNL     1      -8.250   3.876 130.489  0.00  0.00    +0.000 A 
ENDROOT
BRANCH   1   9
ATOM      7  C   UNL     1     -11.110   5.493 130.282  0.00  0.00    +0.000 C 
ATOM      8  O   UNL     1     -11.662   4.467 129.890  0.00  0.00    +0.000 OA
ATOM      9  N   UNL     1      -9.993   5.486 131.103  0.00  0.00    +0.000 N 
ATOM     10  H   UNL     1      -9.746   6.307 131.646  0.00  0.00    +0.000 HD
BRANCH   7  16
ATOM     11  C   UNL     1     -11.579   7.367 128.551  0.00  0.00    +0.000 A 
ATOM     12  C   UNL     1     -12.177   8.612 128.270  0.00  0.00    +0.000 A 
ATOM     13  C   UNL     1     -12.858   9.321 129.257  0.00  0.00    +0.000 A 
ATOM     14  C   UNL     1     -13.006   8.764 130.519  0.00  0.00    +0.000 A 
ATOM     15  C   UNL     1     -12.424   7.524 130.804  0.00  0.00    +0.000 A 
ATOM     16  C   UNL     1     -11.680   6.808 129.835  0.00  0.00    +0.000 A 
BRANCH  11  17
ATOM     17  C   UNL     1     -10.773   6.814 127.452  0.00  0.00    +0.000 C 
ATOM     18  O   UNL     1      -9.604   6.479 127.620  0.00  0.00    +0.000 OA
BRANCH  17  19
ATOM     19  O   UNL     1     -11.404   6.664 126.277  0.00  0.00    +0.000 OA
ATOM     20  H   UNL     1     -11.044   7.150 125.505  0.00  0.00    +0.000 HD
ENDBRANCH  17  19
ENDBRANCH  11  17
ENDBRANCH   7  16
ENDBRANCH   1   9
BRANCH   4  21
ATOM     21  S   UNL     1      -6.930   0.479 132.358  0.00  0.00    +0.000 S 
ATOM     22  O   UNL     1      -5.655   0.507 131.675  0.00  0.00    +0.000 OA
ATOM     23  O   UNL     1      -7.036   0.332 133.796  0.00  0.00    +0.000 OA
BRANCH  21  24
ATOM     24  N   UNL     1      -7.916  -0.660 131.614  0.00  0.00    +0.000 N 
ATOM     25  C   UNL     1      -7.268  -1.841 131.176  0.00  0.00    +0.000 A 
ATOM     26  N   UNL     1      -6.482  -2.539 131.954  0.00  0.00    +0.000 NA
ATOM     27  C   UNL     1      -6.136  -3.726 131.335  0.00  0.00    +0.000 A 
ATOM     28  C   UNL     1      -6.608  -3.889 130.051  0.00  0.00    +0.000 A 
ATOM     29  S   UNL     1      -7.625  -2.561 129.656  0.00  0.00    +0.000 S 
ATOM     30  H   UNL     1      -8.702  -0.361 131.058  0.00  0.00    +0.000 HD
ENDBRANCH  21  24
ENDBRANCH   4  21
TORSDOF 6
ENDMDL
MODEL 2
REMARK VINA RESULT:      -7.9      1.973      2.559
REMARK  Name = Phthalylsulfathiazole
REMARK  6 active torsions:
REMARK  status: ('A' for Active; 'I' for Inactive)
REMARK    1  A    between atoms: O_1  and  C_2
REMARK    2  A    between atoms: C_2  and  C_4
REMARK    3  A    between atoms: C_9  and  C_10
REMARK    4  A    between atoms: N_12  and  C_13
REMARK    5  A    between atoms: C_16  and  S_19
REMARK    6  A    between atoms: S_19  and  N_22
REMARK                            x       y       z     vdW  Elec       q    Type
REMARK                         _______ _______ _______ _____ _____    ______ ____
ROOT
ATOM      1  C   UNL     1     -10.416   5.496 130.918  0.00  0.00    +0.000 A 
ATOM      2  C   UNL     1     -10.945   4.297 130.433  0.00  0.00    +0.000 A 
ATOM      3  C   UNL     1     -10.420   3.071 130.868  0.00  0.00    +0.000 A 
ATOM      4  C   UNL     1      -9.349   3.048 131.779  0.00  0.00    +0.000 A 
ATOM      5  C   UNL     1      -8.882   4.245 132.321  0.00  0.00    +0.000 A 
ATOM      6  C   UNL     1      -9.418   5.463 131.889  0.00  0.00    +0.000 A 
ENDROOT
BRANCH   1   9
ATOM      7  C   UNL     1     -12.167   7.255 130.852  0.00  0.00    +0.000 C 
ATOM      8  O   UNL     1     -12.791   6.855 131.833  0.00  0.00    +0.000 OA
ATOM      9  N   UNL     1     -10.960   6.708 130.447  0.00  0.00    +0.000 N 
ATOM     10  H   UNL     1     -10.332   7.230 129.844  0.00  0.00    +0.000 HD
BRANCH   7  16
ATOM     11  C   UNL     1     -13.162   8.343 128.718  0.00  0.00    +0.000 A 
ATOM     12  C   UNL     1     -13.714   9.486 128.105  0.00  0.00    +0.000 A 
ATOM     13  C   UNL     1     -13.851  10.681 128.807  0.00  0.00    +0.000 A 
ATOM     14  C   UNL     1     -13.499  10.731 130.148  0.00  0.00    +0.000 A 
ATOM     15  C   UNL     1     -12.959   9.598 130.766  0.00  0.00    +0.000 A 
ATOM     16  C   UNL     1     -12.758   8.387 130.062  0.00  0.00    +0.000 A 
BRANCH  11  17
ATOM     17  C   UNL     1     -12.946   7.206 127.809  0.00  0.00    +0.000 C 
ATOM     18  O   UNL     1     -13.887   6.557 127.361  0.00  0.00    +0.000 OA
BRANCH  17  19
ATOM     19  O   UNL     1     -11.672   6.955 127.473  0.00  0.00    +0.000 OA
ATOM     20  H   UNL     1     -11.458   6.052 127.157  0.00  0.00    +0.000 HD
ENDBRANCH  17  19
ENDBRANCH  11  17
ENDBRANCH   7  16
ENDBRANCH   1   9
BRANCH   4  21
ATOM     21  S   UNL     1      -8.539   1.467 132.093  0.00  0.00    +0.000 S 
ATOM     22  O   UNL     1      -7.888   1.631 133.374  0.00  0.00    +0.000 OA
ATOM     23  O   UNL     1      -9.572   0.475 131.869  0.00  0.00    +0.000 OA
BRANCH  21  24
ATOM     24  N   UNL     1      -7.362   1.313 130.905  0.00  0.00    +0.000 N 
ATOM     25  C   UNL     1      -6.356   0.350 131.158  0.00  0.00    +0.000 A 
ATOM     26  N   UNL     1      -6.635  -0.879 131.510  0.00  0.00    +0.000 NA
ATOM     27  C   UNL     1      -5.483  -1.645 131.512  0.00  0.00    +0.000 A 
ATOM     28  C   UNL     1      -4.317  -0.968 131.229  0.00  0.00    +0.000 A 
ATOM     29  S   UNL     1      -4.698   0.658 130.823  0.00  0.00    +0.000 S 
ATOM     30  H   UNL     1      -7.069   2.121 130.375  0.00  0.00    +0.000 HD
ENDBRANCH  21  24
ENDBRANCH   4  21
TORSDOF 6
ENDMDL
MODEL 3
REMARK VINA RESULT:      -7.8      4.874      9.489
REMARK  Name = Phthalylsulfathiazole
REMARK  6 active torsions:
REMARK  status: ('A' for Active; 'I' for Inactive)
REMARK    1  A    between atoms: O_1  and  C_2
REMARK    2  A    between atoms: C_2  and  C_4
REMARK    3  A    between atoms: C_9  and  C_10
REMARK    4  A    between atoms: N_12  and  C_13
REMARK    5  A    between atoms: C_16  and  S_19
REMARK    6  A    between atoms: S_19  and  N_22
REMARK                            x       y       z     vdW  Elec       q    Type
REMARK                         _______ _______ _______ _____ _____    ______ ____
ROOT
ATOM      1  C   UNL     1      -7.491   1.648 127.374  0.00  0.00    +0.000 A 
ATOM      2  C   UNL     1      -8.233   1.340 128.517  0.00  0.00    +0.000 A 
ATOM      3  C   UNL     1      -8.700   2.366 129.351  0.00  0.00    +0.000 A 
ATOM      4  C   UNL     1      -8.404   3.707 129.048  0.00  0.00    +0.000 A 
ATOM      5  C   UNL     1      -7.735   4.013 127.863  0.00  0.00    +0.000 A 
ATOM      6  C   UNL     1      -7.282   2.983 127.032  0.00  0.00    +0.000 A 
ENDROOT
BRANCH   1   9
ATOM      7  C   UNL     1      -7.814  -0.173 125.719  0.00  0.00    +0.000 C 
ATOM      8  O   UNL     1      -8.962   0.137 125.406  0.00  0.00    +0.000 OA
ATOM      9  N   UNL     1      -7.029   0.590 126.568  0.00  0.00    +0.000 N 
ATOM     10  H   UNL     1      -6.018   0.486 126.571  0.00  0.00    +0.000 HD
BRANCH   7  16
ATOM     11  C   UNL     1      -7.819  -2.725 125.257  0.00  0.00    +0.000 A 
ATOM     12  C   UNL     1      -7.184  -3.833 124.660  0.00  0.00    +0.000 A 
ATOM     13  C   UNL     1      -5.981  -3.688 123.974  0.00  0.00    +0.000 A 
ATOM     14  C   UNL     1      -5.430  -2.424 123.820  0.00  0.00    +0.000 A 
ATOM     15  C   UNL     1      -6.059  -1.317 124.402  0.00  0.00    +0.000 A 
ATOM     16  C   UNL     1      -7.254  -1.445 125.150  0.00  0.00    +0.000 A 
BRANCH  11  17
ATOM     17  C   UNL     1      -8.999  -3.061 126.068  0.00  0.00    +0.000 C 
ATOM     18  O   UNL     1      -8.887  -3.544 127.192  0.00  0.00    +0.000 OA
BRANCH  17  19
ATOM     19  O   UNL     1     -10.190  -2.772 125.523  0.00  0.00    +0.000 OA
ATOM     20  H   UNL     1     -10.870  -3.479 125.520  0.00  0.00    +0.000 HD
ENDBRANCH  17  19
ENDBRANCH  11  17
ENDBRANCH   7  16
ENDBRANCH   1   9
BRANCH   4  21
ATOM     21  S   UNL     1      -8.789   4.960 130.287  0.00  0.00    +0.000 S 
ATOM     22  O   UNL     1      -8.660   4.279 131.557  0.00  0.00    +0.000 OA
ATOM     23  O   UNL     1      -7.965   6.097 129.929  0.00  0.00    +0.000 OA
BRANCH  21  24
ATOM     24  N   UNL     1     -10.405   5.355 130.049  0.00  0.00    +0.000 N 
ATOM     25  C   UNL     1     -10.646   6.497 129.247  0.00  0.00    +0.000 A 
ATOM     26  N   UNL     1     -10.087   6.661 128.075  0.00  0.00    +0.000 NA
ATOM     27  C   UNL     1     -10.636   7.759 127.439  0.00  0.00    +0.000 A 
ATOM     28  C   UNL     1     -11.563   8.470 128.169  0.00  0.00    +0.000 A 
ATOM     29  S   UNL     1     -11.848   7.656 129.656  0.00  0.00    +0.000 S 
ATOM     30  H   UNL     1     -11.079   5.184 130.779  0.00  0.00    +0.000 HD
ENDBRANCH  21  24
ENDBRANCH   4  21
TORSDOF 6
ENDMDL
MODEL 4
REMARK VINA RESULT:      -7.7      1.644      2.521
REMARK  Name = Phthalylsulfathiazole
REMARK  6 active torsions:
REMARK  status: ('A' for Active; 'I' for Inactive)
REMARK    1  A    between atoms: O_1  and  C_2
REMARK    2  A    between atoms: C_2  and  C_4
REMARK    3  A    between atoms: C_9  and  C_10
REMARK    4  A    between atoms: N_12  and  C_13
REMARK    5  A    between atoms: C_16  and  S_19
REMARK    6  A    between atoms: S_19  and  N_22
REMARK                            x       y       z     vdW  Elec       q    Type
REMARK                         _______ _______ _______ _____ _____    ______ ____
ROOT
ATOM      1  C   UNL     1      -9.524   3.207 130.593  0.00  0.00    +0.000 A 
ATOM      2  C   UNL     1      -8.923   2.267 129.751  0.00  0.00    +0.000 A 
ATOM      3  C   UNL     1      -8.232   1.175 130.297  0.00  0.00    +0.000 A 
ATOM      4  C   UNL     1      -8.125   1.036 131.692  0.00  0.00    +0.000 A 
ATOM      5  C   UNL     1      -8.797   1.930 132.525  0.00  0.00    +0.000 A 
ATOM      6  C   UNL     1      -9.493   3.011 131.972  0.00  0.00    +0.000 A 
ENDROOT
BRANCH   1   9
ATOM      7  C   UNL     1      -9.619   5.506 129.661  0.00  0.00    +0.000 C 
ATOM      8  O   UNL     1      -8.402   5.680 129.619  0.00  0.00    +0.000 OA
ATOM      9  N   UNL     1     -10.199   4.296 130.008  0.00  0.00    +0.000 N 
ATOM     10  H   UNL     1     -11.158   4.090 129.749  0.00  0.00    +0.000 HD
BRANCH   7  16
ATOM     11  C   UNL     1     -11.403   7.312 130.191  0.00  0.00    +0.000 A 
ATOM     12  C   UNL     1     -12.166   8.407 129.738  0.00  0.00    +0.000 A 
ATOM     13  C   UNL     1     -12.061   8.863 128.426  0.00  0.00    +0.000 A 
ATOM     14  C   UNL     1     -11.145   8.271 127.569  0.00  0.00    +0.000 A 
ATOM     15  C   UNL     1     -10.377   7.188 128.013  0.00  0.00    +0.000 A 
ATOM     16  C   UNL     1     -10.503   6.672 129.325  0.00  0.00    +0.000 A 
BRANCH  11  17
ATOM     17  C   UNL     1     -11.733   6.858 131.551  0.00  0.00    +0.000 C 
ATOM     18  O   UNL     1     -10.859   6.505 132.338  0.00  0.00    +0.000 OA
BRANCH  17  19
ATOM     19  O   UNL     1     -13.033   6.894 131.884  0.00  0.00    +0.000 OA
ATOM     20  H   UNL     1     -13.677   7.088 131.170  0.00  0.00    +0.000 HD
ENDBRANCH  17  19
ENDBRANCH  11  17
ENDBRANCH   7  16
ENDBRANCH   1   9
BRANCH   4  21
ATOM     21  S   UNL     1      -7.004  -0.222 132.334  0.00  0.00    +0.000 S 
ATOM     22  O   UNL     1      -5.725   0.075 131.726  0.00  0.00    +0.000 OA
ATOM     23  O   UNL     1      -7.206  -0.196 133.769  0.00  0.00    +0.000 OA
BRANCH  21  24
ATOM     24  N   UNL     1      -7.563  -1.685 131.726  0.00  0.00    +0.000 N 
ATOM     25  C   UNL     1      -6.589  -2.700 131.574  0.00  0.00    +0.000 A 
ATOM     26  N   UNL     1      -5.767  -3.032 132.537  0.00  0.00    +0.000 NA
ATOM     27  C   UNL     1      -5.055  -4.164 132.182  0.00  0.00    +0.000 A 
ATOM     28  C   UNL     1      -5.291  -4.644 130.912  0.00  0.00    +0.000 A 
ATOM     29  S   UNL     1      -6.543  -3.716 130.188  0.00  0.00    +0.000 S 
ATOM     30  H   UNL     1      -8.316  -1.698 131.054  0.00  0.00    +0.000 HD
ENDBRANCH  21  24
ENDBRANCH   4  21
TORSDOF 6
ENDMDL
MODEL 5
REMARK VINA RESULT:      -7.7      2.792      9.938
REMARK  Name = Phthalylsulfathiazole
REMARK  6 active torsions:
REMARK  status: ('A' for Active; 'I' for Inactive)
REMARK    1  A    between atoms: O_1  and  C_2
REMARK    2  A    between atoms: C_2  and  C_4
REMARK    3  A    between atoms: C_9  and  C_10
REMARK    4  A    between atoms: N_12  and  C_13
REMARK    5  A    between atoms: C_16  and  S_19
REMARK    6  A    between atoms: S_19  and  N_22
REMARK                            x       y       z     vdW  Elec       q    Type
REMARK                         _______ _______ _______ _____ _____    ______ ____
ROOT
ATOM      1  C   UNL     1      -8.087   0.680 131.054  0.00  0.00    +0.000 A 
ATOM      2  C   UNL     1      -9.110   0.997 131.952  0.00  0.00    +0.000 A 
ATOM      3  C   UNL     1      -9.899   2.137 131.744  0.00  0.00    +0.000 A 
ATOM      4  C   UNL     1      -9.649   2.975 130.643  0.00  0.00    +0.000 A 
ATOM      5  C   UNL     1      -8.683   2.608 129.706  0.00  0.00    +0.000 A 
ATOM      6  C   UNL     1      -7.907   1.463 129.916  0.00  0.00    +0.000 A 
ENDROOT
BRANCH   1   9
ATOM      7  C   UNL     1      -7.567  -1.735 130.809  0.00  0.00    +0.000 C 
ATOM      8  O   UNL     1      -8.382  -1.954 129.915  0.00  0.00    +0.000 OA
ATOM      9  N   UNL     1      -7.307  -0.466 131.303  0.00  0.00    +0.000 N 
ATOM     10  H   UNL     1      -6.445  -0.273 131.803  0.00  0.00    +0.000 HD
BRANCH   7  16
ATOM     11  C   UNL     1      -6.918  -3.379 132.707  0.00  0.00    +0.000 A 
ATOM     12  C   UNL     1      -6.172  -4.506 133.110  0.00  0.00    +0.000 A 
ATOM     13  C   UNL     1      -5.325  -5.161 132.220  0.00  0.00    +0.000 A 
ATOM     14  C   UNL     1      -5.260  -4.738 130.900  0.00  0.00    +0.000 A 
ATOM     15  C   UNL     1      -6.003  -3.626 130.490  0.00  0.00    +0.000 A 
ATOM     16  C   UNL     1      -6.831  -2.909 131.387  0.00  0.00    +0.000 A 
BRANCH  11  17
ATOM     17  C   UNL     1      -7.650  -2.711 133.794  0.00  0.00    +0.000 C 
ATOM     18  O   UNL     1      -7.305  -1.611 134.217  0.00  0.00    +0.000 OA
BRANCH  17  19
ATOM     19  O   UNL     1      -8.730  -3.356 134.259  0.00  0.00    +0.000 OA
ATOM     20  H   UNL     1      -8.656  -3.788 135.137  0.00  0.00    +0.000 HD
ENDBRANCH  17  19
ENDBRANCH  11  17
ENDBRANCH   7  16
ENDBRANCH   1   9
BRANCH   4  21
ATOM     21  S   UNL     1     -10.505   4.561 130.574  0.00  0.00    +0.000 S 
ATOM     22  O   UNL     1     -11.820   4.251 130.057  0.00  0.00    +0.000 OA
ATOM     23  O   UNL     1     -10.304   5.144 131.885  0.00  0.00    +0.000 OA
BRANCH  21  24
ATOM     24  N   UNL     1      -9.679   5.476 129.432  0.00  0.00    +0.000 N 
ATOM     25  C   UNL     1     -10.383   6.587 128.909  0.00  0.00    +0.000 A 
ATOM     26  N   UNL     1     -10.974   7.467 129.677  0.00  0.00    +0.000 NA
ATOM     27  C   UNL     1     -11.421   8.533 128.917  0.00  0.00    +0.000 A 
ATOM     28  C   UNL     1     -11.229   8.419 127.558  0.00  0.00    +0.000 A 
ATOM     29  S   UNL     1     -10.343   6.982 127.236  0.00  0.00    +0.000 S 
ATOM     30  H   UNL     1      -9.033   5.030 128.798  0.00  0.00    +0.000 HD
ENDBRANCH  21  24
ENDBRANCH   4  21
TORSDOF 6
ENDMDL
MODEL 6
REMARK VINA RESULT:      -7.6      4.974      6.652
REMARK  Name = Phthalylsulfathiazole
REMARK  6 active torsions:
REMARK  status: ('A' for Active; 'I' for Inactive)
REMARK    1  A    between atoms: O_1  and  C_2
REMARK    2  A    between atoms: C_2  and  C_4
REMARK    3  A    between atoms: C_9  and  C_10
REMARK    4  A    between atoms: N_12  and  C_13
REMARK    5  A    between atoms: C_16  and  S_19
REMARK    6  A    between atoms: S_19  and  N_22
REMARK                            x       y       z     vdW  Elec       q    Type
REMARK                         _______ _______ _______ _____ _____    ______ ____
ROOT
ATOM      1  C   UNL     1      -8.043   5.792 130.955  0.00  0.00    +0.000 A 
ATOM      2  C   UNL     1      -6.829   5.405 130.383  0.00  0.00    +0.000 A 
ATOM      3  C   UNL     1      -5.679   5.298 131.179  0.00  0.00    +0.000 A 
ATOM      4  C   UNL     1      -5.743   5.600 132.551  0.00  0.00    +0.000 A 
ATOM      5  C   UNL     1      -6.974   5.904 133.131  0.00  0.00    +0.000 A 
ATOM      6  C   UNL     1      -8.118   5.998 132.331  0.00  0.00    +0.000 A 
ENDROOT
BRANCH   1   9
ATOM      7  C   UNL     1      -9.669   7.081 129.592  0.00  0.00    +0.000 C 
ATOM      8  O   UNL     1      -9.044   8.140 129.610  0.00  0.00    +0.000 OA
ATOM      9  N   UNL     1      -9.174   5.900 130.122  0.00  0.00    +0.000 N 
ATOM     10  H   UNL     1      -9.557   5.004 129.835  0.00  0.00    +0.000 HD
BRANCH   7  16
ATOM     11  C   UNL     1     -12.262   7.031 129.652  0.00  0.00    +0.000 A 
ATOM     12  C   UNL     1     -13.475   7.055 128.935  0.00  0.00    +0.000 A 
ATOM     13  C   UNL     1     -13.485   7.114 127.544  0.00  0.00    +0.000 A 
ATOM     14  C   UNL     1     -12.285   7.214 126.855  0.00  0.00    +0.000 A 
ATOM     15  C   UNL     1     -11.076   7.200 127.560  0.00  0.00    +0.000 A 
ATOM     16  C   UNL     1     -11.037   7.087 128.971  0.00  0.00    +0.000 A 
BRANCH  11  17
ATOM     17  C   UNL     1     -12.413   6.819 131.100  0.00  0.00    +0.000 C 
ATOM     18  O   UNL     1     -13.111   7.560 131.787  0.00  0.00    +0.000 OA
BRANCH  17  19
ATOM     19  O   UNL     1     -11.779   5.751 131.608  0.00  0.00    +0.000 OA
ATOM     20  H   UNL     1     -10.850   5.873 131.898  0.00  0.00    +0.000 HD
ENDBRANCH  17  19
ENDBRANCH  11  17
ENDBRANCH   7  16
ENDBRANCH   1   9
BRANCH   4  21
ATOM     21  S   UNL     1      -4.193   5.711 133.466  0.00  0.00    +0.000 S 
ATOM     22  O   UNL     1      -4.546   6.336 134.721  0.00  0.00    +0.000 OA
ATOM     23  O   UNL     1      -3.628   4.379 133.394  0.00  0.00    +0.000 OA
BRANCH  21  24
ATOM     24  N   UNL     1      -3.222   6.768 132.592  0.00  0.00    +0.000 N 
ATOM     25  C   UNL     1      -2.085   7.265 133.274  0.00  0.00    +0.000 A 
ATOM     26  N   UNL     1      -1.245   6.481 133.899  0.00  0.00    +0.000 NA
ATOM     27  C   UNL     1      -0.142   7.205 134.314  0.00  0.00    +0.000 A 
ATOM     28  C   UNL     1      -0.187   8.558 134.063  0.00  0.00    +0.000 A 
ATOM     29  S   UNL     1      -1.607   8.913 133.162  0.00  0.00    +0.000 S 
ATOM     30  H   UNL     1      -3.636   7.395 131.919  0.00  0.00    +0.000 HD
ENDBRANCH  21  24
ENDBRANCH   4  21
TORSDOF 6
ENDMDL
MODEL 7
REMARK VINA RESULT:      -7.5      7.042     10.956
REMARK  Name = Phthalylsulfathiazole
REMARK  6 active torsions:
REMARK  status: ('A' for Active; 'I' for Inactive)
REMARK    1  A    between atoms: O_1  and  C_2
REMARK    2  A    between atoms: C_2  and  C_4
REMARK    3  A    between atoms: C_9  and  C_10
REMARK    4  A    between atoms: N_12  and  C_13
REMARK    5  A    between atoms: C_16  and  S_19
REMARK    6  A    between atoms: S_19  and  N_22
REMARK                            x       y       z     vdW  Elec       q    Type
REMARK                         _______ _______ _______ _____ _____    ______ ____
ROOT
ATOM      1  C   UNL     1      -6.735  -3.088 129.709  0.00  0.00    +0.000 A 
ATOM      2  C   UNL     1      -8.034  -3.502 129.405  0.00  0.00    +0.000 A 
ATOM      3  C   UNL     1      -8.570  -3.255 128.133  0.00  0.00    +0.000 A 
ATOM      4  C   UNL     1      -7.807  -2.573 127.168  0.00  0.00    +0.000 A 
ATOM      5  C   UNL     1      -6.484  -2.238 127.450  0.00  0.00    +0.000 A 
ATOM      6  C   UNL     1      -5.953  -2.497 128.719  0.00  0.00    +0.000 A 
ENDROOT
BRANCH   1   9
ATOM      7  C   UNL     1      -5.840  -4.581 131.479  0.00  0.00    +0.000 C 
ATOM      8  O   UNL     1      -5.671  -5.558 130.753  0.00  0.00    +0.000 OA
ATOM      9  N   UNL     1      -6.235  -3.342 131.002  0.00  0.00    +0.000 N 
ATOM     10  H   UNL     1      -6.077  -2.502 131.550  0.00  0.00    +0.000 HD
BRANCH   7  16
ATOM     11  C   UNL     1      -6.433  -4.285 133.987  0.00  0.00    +0.000 A 
ATOM     12  C   UNL     1      -6.096  -4.535 135.333  0.00  0.00    +0.000 A 
ATOM     13  C   UNL     1      -4.938  -5.234 135.665  0.00  0.00    +0.000 A 
ATOM     14  C   UNL     1      -4.136  -5.748 134.656  0.00  0.00    +0.000 A 
ATOM     15  C   UNL     1      -4.468  -5.511 133.317  0.00  0.00    +0.000 A 
ATOM     16  C   UNL     1      -5.610  -4.758 132.953  0.00  0.00    +0.000 A 
BRANCH  11  17
ATOM     17  C   UNL     1      -7.601  -3.411 133.803  0.00  0.00    +0.000 C 
ATOM     18  O   UNL     1      -7.493  -2.292 133.308  0.00  0.00    +0.000 OA
BRANCH  17  19
ATOM     19  O   UNL     1      -8.785  -3.925 134.169  0.00  0.00    +0.000 OA
ATOM     20  H   UNL     1      -8.984  -3.963 135.129  0.00  0.00    +0.000 HD
ENDBRANCH  17  19
ENDBRANCH  11  17
ENDBRANCH   7  16
ENDBRANCH   1   9
BRANCH   4  21
ATOM     21  S   UNL     1      -8.634  -2.045 125.654  0.00  0.00    +0.000 S 
ATOM     22  O   UNL     1      -7.629  -2.166 124.621  0.00  0.00    +0.000 OA
ATOM     23  O   UNL     1      -9.870  -2.801 125.627  0.00  0.00    +0.000 OA
BRANCH  21  24
ATOM     24  N   UNL     1      -8.989  -0.417 125.873  0.00  0.00    +0.000 N 
ATOM     25  C   UNL     1      -9.133   0.345 124.689  0.00  0.00    +0.000 A 
ATOM     26  N   UNL     1      -9.903  -0.034 123.701  0.00  0.00    +0.000 NA
ATOM     27  C   UNL     1      -9.999   0.976 122.761  0.00  0.00    +0.000 A 
ATOM     28  C   UNL     1      -9.236   2.096 123.009  0.00  0.00    +0.000 A 
ATOM     29  S   UNL     1      -8.472   1.924 124.539  0.00  0.00    +0.000 S 
ATOM     30  H   UNL     1      -8.617   0.079 126.669  0.00  0.00    +0.000 HD
ENDBRANCH  21  24
ENDBRANCH   4  21
TORSDOF 6
ENDMDL
MODEL 8
REMARK VINA RESULT:      -7.4      4.852      8.700
REMARK  Name = Phthalylsulfathiazole
REMARK  6 active torsions:
REMARK  status: ('A' for Active; 'I' for Inactive)
REMARK    1  A    between atoms: O_1  and  C_2
REMARK    2  A    between atoms: C_2  and  C_4
REMARK    3  A    between atoms: C_9  and  C_10
REMARK    4  A    between atoms: N_12  and  C_13
REMARK    5  A    between atoms: C_16  and  S_19
REMARK    6  A    between atoms: S_19  and  N_22
REMARK                            x       y       z     vdW  Elec       q    Type
REMARK                         _______ _______ _______ _____ _____    ______ ____
ROOT
ATOM      1  C   UNL     1      -8.190   1.874 127.897  0.00  0.00    +0.000 A 
ATOM      2  C   UNL     1      -8.814   1.729 129.139  0.00  0.00    +0.000 A 
ATOM      3  C   UNL     1      -8.978   2.842 129.976  0.00  0.00    +0.000 A 
ATOM      4  C   UNL     1      -8.497   4.101 129.576  0.00  0.00    +0.000 A 
ATOM      5  C   UNL     1      -7.951   4.254 128.302  0.00  0.00    +0.000 A 
ATOM      6  C   UNL     1      -7.800   3.141 127.468  0.00  0.00    +0.000 A 
ENDROOT
BRANCH   1   9
ATOM      7  C   UNL     1      -8.992   0.214 126.234  0.00  0.00    +0.000 C 
ATOM      8  O   UNL     1     -10.011   0.826 125.919  0.00  0.00    +0.000 OA
ATOM      9  N   UNL     1      -8.031   0.731 127.089  0.00  0.00    +0.000 N 
ATOM     10  H   UNL     1      -7.088   0.355 127.093  0.00  0.00    +0.000 HD
BRANCH   7  16
ATOM     11  C   UNL     1      -8.705  -1.492 124.302  0.00  0.00    +0.000 A 
ATOM     12  C   UNL     1      -8.512  -2.832 123.909  0.00  0.00    +0.000 A 
ATOM     13  C   UNL     1      -8.430  -3.853 124.853  0.00  0.00    +0.000 A 
ATOM     14  C   UNL     1      -8.476  -3.539 126.204  0.00  0.00    +0.000 A 
ATOM     15  C   UNL     1      -8.658  -2.210 126.603  0.00  0.00    +0.000 A 
ATOM     16  C   UNL     1      -8.798  -1.161 125.663  0.00  0.00    +0.000 A 
BRANCH  11  17
ATOM     17  C   UNL     1      -8.918  -0.554 123.189  0.00  0.00    +0.000 C 
ATOM     18  O   UNL     1      -8.069   0.277 122.880  0.00  0.00    +0.000 OA
BRANCH  17  19
ATOM     19  O   UNL     1     -10.071  -0.693 122.515  0.00  0.00    +0.000 OA
ATOM     20  H   UNL     1     -10.600   0.117 122.354  0.00  0.00    +0.000 HD
ENDBRANCH  17  19
ENDBRANCH  11  17
ENDBRANCH   7  16
ENDBRANCH   1   9
BRANCH   4  21
ATOM     21  S   UNL     1      -8.489   5.431 130.794  0.00  0.00    +0.000 S 
ATOM     22  O   UNL     1      -7.524   5.016 131.790  0.00  0.00    +0.000 OA
ATOM     23  O   UNL     1      -8.328   6.642 130.015  0.00  0.00    +0.000 OA
BRANCH  21  24
ATOM     24  N   UNL     1     -10.018   5.422 131.489  0.00  0.00    +0.000 N 
ATOM     25  C   UNL     1     -11.044   6.029 130.724  0.00  0.00    +0.000 A 
ATOM     26  N   UNL     1     -11.248   5.733 129.466  0.00  0.00    +0.000 NA
ATOM     27  C   UNL     1     -12.415   6.329 129.023  0.00  0.00    +0.000 A 
ATOM     28  C   UNL     1     -13.055   7.139 129.935  0.00  0.00    +0.000 A 
ATOM     29  S   UNL     1     -12.229   7.048 131.440  0.00  0.00    +0.000 S 
ATOM     30  H   UNL     1     -10.119   5.496 132.490  0.00  0.00    +0.000 HD
ENDBRANCH  21  24
ENDBRANCH   4  21
TORSDOF 6
ENDMDL
MODEL 9
REMARK VINA RESULT:      -7.3      6.658      8.520
REMARK  Name = Phthalylsulfathiazole
REMARK  6 active torsions:
REMARK  status: ('A' for Active; 'I' for Inactive)
REMARK    1  A    between atoms: O_1  and  C_2
REMARK    2  A    between atoms: C_2  and  C_4
REMARK    3  A    between atoms: C_9  and  C_10
REMARK    4  A    between atoms: N_12  and  C_13
REMARK    5  A    between atoms: C_16  and  S_19
REMARK    6  A    between atoms: S_19  and  N_22
REMARK                            x       y       z     vdW  Elec       q    Type
REMARK                         _______ _______ _______ _____ _____    ______ ____
ROOT
ATOM      1  C   UNL     1      -7.147  -2.629 128.976  0.00  0.00    +0.000 A 
ATOM      2  C   UNL     1      -6.504  -3.596 129.753  0.00  0.00    +0.000 A 
ATOM      3  C   UNL     1      -6.592  -3.546 131.152  0.00  0.00    +0.000 A 
ATOM      4  C   UNL     1      -7.311  -2.510 131.775  0.00  0.00    +0.000 A 
ATOM      5  C   UNL     1      -8.018  -1.598 130.993  0.00  0.00    +0.000 A 
ATOM      6  C   UNL     1      -7.934  -1.662 129.598  0.00  0.00    +0.000 A 
ENDROOT
BRANCH   1   9
ATOM      7  C   UNL     1      -6.142  -1.966 126.805  0.00  0.00    +0.000 C 
ATOM      8  O   UNL     1      -5.209  -1.323 127.284  0.00  0.00    +0.000 OA
ATOM      9  N   UNL     1      -7.026  -2.705 127.575  0.00  0.00    +0.000 N 
ATOM     10  H   UNL     1      -7.579  -3.447 127.157  0.00  0.00    +0.000 HD
BRANCH   7  16
ATOM     11  C   UNL     1      -7.306  -1.219 124.611  0.00  0.00    +0.000 A 
ATOM     12  C   UNL     1      -7.350  -1.271 123.203  0.00  0.00    +0.000 A 
ATOM     13  C   UNL     1      -6.437  -2.039 122.485  0.00  0.00    +0.000 A 
ATOM     14  C   UNL     1      -5.430  -2.714 123.160  0.00  0.00    +0.000 A 
ATOM     15  C   UNL     1      -5.375  -2.660 124.557  0.00  0.00    +0.000 A 
ATOM     16  C   UNL     1      -6.323  -1.931 125.315  0.00  0.00    +0.000 A 
BRANCH  11  17
ATOM     17  C   UNL     1      -8.422  -0.487 125.230  0.00  0.00    +0.000 C 
ATOM     18  O   UNL     1      -8.447   0.741 125.256  0.00  0.00    +0.000 OA
BRANCH  17  19
ATOM     19  O   UNL     1      -9.420  -1.239 125.721  0.00  0.00    +0.000 OA
ATOM     20  H   UNL     1      -9.340  -2.212 125.626  0.00  0.00    +0.000 HD
ENDBRANCH  17  19
ENDBRANCH  11  17
ENDBRANCH   7  16
ENDBRANCH   1   9
BRANCH   4  21
ATOM     21  S   UNL     1      -7.165  -2.336 133.564  0.00  0.00    +0.000 S 
ATOM     22  O   UNL     1      -5.982  -3.090 133.916  0.00  0.00    +0.000 OA
ATOM     23  O   UNL     1      -7.277  -0.911 133.805  0.00  0.00    +0.000 OA
BRANCH  21  24
ATOM     24  N   UNL     1      -8.510  -3.110 134.208  0.00  0.00    +0.000 N 
ATOM     25  C   UNL     1      -8.423  -3.453 135.580  0.00  0.00    +0.000 A 
ATOM     26  N   UNL     1      -8.065  -2.590 136.496  0.00  0.00    +0.000 NA
ATOM     27  C   UNL     1      -8.242  -3.136 137.755  0.00  0.00    +0.000 A 
ATOM     28  C   UNL     1      -8.669  -4.445 137.782  0.00  0.00    +0.000 A 
ATOM     29  S   UNL     1      -8.979  -4.967 136.174  0.00  0.00    +0.000 S 
ATOM     30  H   UNL     1      -9.055  -3.736 133.636  0.00  0.00    +0.000 HD
ENDBRANCH  21  24
ENDBRANCH   4  21
TORSDOF 6
ENDMDL
