MODEL 1
REMARK VINA RESULT:      -7.7      0.000      0.000
REMARK  Name = Phylloquinone
REMARK  20 active torsions:
REMARK  status: ('A' for Active; 'I' for Inactive)
REMARK    1  A    between atoms: C_1  and  C_2
REMARK    2  A    between atoms: C_2  and  C_3
REMARK    3  A    between atoms: C_2  and  C_4
REMARK    4  A    between atoms: C_4  and  C_5
REMARK    5  A    between atoms: C_5  and  C_6
REMARK    6  A    between atoms: C_6  and  C_7
REMARK    7  A    between atoms: C_7  and  C_8
REMARK    8  A    between atoms: C_7  and  C_9
REMARK    9  A    between atoms: C_9  and  C_10
REMARK   10  A    between atoms: C_10  and  C_11
REMARK   11  A    between atoms: C_11  and  C_12
REMARK   12  A    between atoms: C_12  and  C_13
REMARK   13  A    between atoms: C_12  and  C_14
REMARK   14  A    between atoms: C_14  and  C_15
REMARK   15  A    between atoms: C_15  and  C_16
REMARK   16  A    between atoms: C_16  and  C_17
REMARK   17  A    between atoms: C_17  and  C_18
REMARK   18  A    between atoms: C_19  and  C_20
REMARK   19  A    between atoms: C_20  and  C_21
REMARK   20  A    between atoms: C_22  and  C_23
REMARK                            x       y       z     vdW  Elec       q    Type
REMARK                         _______ _______ _______ _____ _____    ______ ____
ROOT
ATOM      1  C   UNL     1      -9.409  -0.442 124.035  0.00  0.00    +0.000 C 
ATOM      2  C   UNL     1      -8.947  -0.256 125.492  0.00  0.00    +0.000 C 
ATOM      3  C   UNL     1      -9.669   0.615 123.221  0.00  0.00    +0.000 C 
ENDROOT
BRANCH   1   4
ATOM      4  C   UNL     1      -9.218  -1.802 123.328  0.00  0.00    +0.000 C 
BRANCH   4   5
ATOM      5  C   UNL     1      -7.891  -2.458 123.664  0.00  0.00    +0.000 C 
BRANCH   5   6
ATOM      6  C   UNL     1      -6.684  -1.811 123.037  0.00  0.00    +0.000 C 
BRANCH   6   7
ATOM      7  C   UNL     1      -5.456  -2.160 123.887  0.00  0.00    +0.000 C 
ATOM      8  C   UNL     1      -4.748  -3.438 123.394  0.00  0.00    +0.000 C 
BRANCH   7   9
ATOM      9  C   UNL     1      -5.922  -2.285 125.332  0.00  0.00    +0.000 C 
BRANCH   9  10
ATOM     10  C   UNL     1      -5.418  -1.115 126.138  0.00  0.00    +0.000 C 
BRANCH  10  11
ATOM     11  C   UNL     1      -5.397  -1.434 127.613  0.00  0.00    +0.000 C 
BRANCH  11  12
ATOM     12  C   UNL     1      -6.330  -0.483 128.360  0.00  0.00    +0.000 C 
ATOM     13  C   UNL     1      -5.613   0.203 129.539  0.00  0.00    +0.000 C 
BRANCH  12  14
ATOM     14  C   UNL     1      -7.543  -1.288 128.830  0.00  0.00    +0.000 C 
BRANCH  14  15
ATOM     15  C   UNL     1      -7.168  -2.744 128.990  0.00  0.00    +0.000 C 
BRANCH  15  16
ATOM     16  C   UNL     1      -7.527  -3.271 130.363  0.00  0.00    +0.000 C 
BRANCH  16  18
ATOM     17  C   UNL     1      -5.143  -3.921 130.059  0.00  0.00    +0.000 C 
ATOM     18  C   UNL     1      -6.287  -3.842 131.061  0.00  0.00    +0.000 C 
ATOM     19  C   UNL     1      -5.863  -2.995 132.266  0.00  0.00    +0.000 C 
ENDBRANCH  16  18
ENDBRANCH  15  16
ENDBRANCH  14  15
ENDBRANCH  12  14
ENDBRANCH  11  12
ENDBRANCH  10  11
ENDBRANCH   9  10
ENDBRANCH   7   9
ENDBRANCH   6   7
ENDBRANCH   5   6
ENDBRANCH   4   5
ENDBRANCH   1   4
BRANCH   3  20
ATOM     20  C   UNL     1      -9.329   2.070 123.484  0.00  0.00    +0.000 C 
BRANCH  20  21
ATOM     21  C   UNL     1      -8.067   2.593 122.777  0.00  0.00    +0.000 C 
ATOM     22  C   UNL     1      -6.813   2.691 123.287  0.00  0.00    +0.000 C 
ATOM     23  C   UNL     1      -6.332   2.171 124.611  0.00  0.00    +0.000 C 
ATOM     24  C   UNL     1      -5.865   3.712 122.750  0.00  0.00    +0.000 C 
ATOM     25  O   UNL     1      -4.945   4.146 123.424  0.00  0.00    +0.000 OA
ATOM     26  C   UNL     1      -6.114   4.245 121.417  0.00  0.00    +0.000 A 
ATOM     27  C   UNL     1      -7.278   3.917 120.739  0.00  0.00    +0.000 A 
ATOM     28  C   UNL     1      -7.428   4.331 119.412  0.00  0.00    +0.000 A 
ATOM     29  C   UNL     1      -6.416   5.076 118.796  0.00  0.00    +0.000 A 
ATOM     30  C   UNL     1      -5.273   5.442 119.507  0.00  0.00    +0.000 A 
ATOM     31  C   UNL     1      -5.124   5.036 120.826  0.00  0.00    +0.000 A 
ATOM     32  C   UNL     1      -8.341   3.131 121.403  0.00  0.00    +0.000 C 
ATOM     33  O   UNL     1      -9.392   2.905 120.830  0.00  0.00    +0.000 OA
ENDBRANCH  20  21
ENDBRANCH   3  20
TORSDOF 14
ENDMDL
MODEL 2
REMARK VINA RESULT:      -7.6      5.244      7.284
REMARK  Name = Phylloquinone
REMARK  20 active torsions:
REMARK  status: ('A' for Active; 'I' for Inactive)
REMARK    1  A    between atoms: C_1  and  C_2
REMARK    2  A    between atoms: C_2  and  C_3
REMARK    3  A    between atoms: C_2  and  C_4
REMARK    4  A    between atoms: C_4  and  C_5
REMARK    5  A    between atoms: C_5  and  C_6
REMARK    6  A    between atoms: C_6  and  C_7
REMARK    7  A    between atoms: C_7  and  C_8
REMARK    8  A    between atoms: C_7  and  C_9
REMARK    9  A    between atoms: C_9  and  C_10
REMARK   10  A    between atoms: C_10  and  C_11
REMARK   11  A    between atoms: C_11  and  C_12
REMARK   12  A    between atoms: C_12  and  C_13
REMARK   13  A    between atoms: C_12  and  C_14
REMARK   14  A    between atoms: C_14  and  C_15
REMARK   15  A    between atoms: C_15  and  C_16
REMARK   16  A    between atoms: C_16  and  C_17
REMARK   17  A    between atoms: C_17  and  C_18
REMARK   18  A    between atoms: C_19  and  C_20
REMARK   19  A    between atoms: C_20  and  C_21
REMARK   20  A    between atoms: C_22  and  C_23
REMARK                            x       y       z     vdW  Elec       q    Type
REMARK                         _______ _______ _______ _____ _____    ______ ____
ROOT
ATOM      1  C   UNL     1      -7.850   2.139 128.106  0.00  0.00    +0.000 C 
ATOM      2  C   UNL     1      -6.390   2.214 127.621  0.00  0.00    +0.000 C 
ATOM      3  C   UNL     1      -8.368   3.045 128.975  0.00  0.00    +0.000 C 
ENDROOT
BRANCH   1   4
ATOM      4  C   UNL     1      -8.879   1.282 127.338  0.00  0.00    +0.000 C 
BRANCH   4   5
ATOM      5  C   UNL     1      -8.497   1.066 125.885  0.00  0.00    +0.000 C 
BRANCH   5   6
ATOM      6  C   UNL     1      -9.233  -0.050 125.192  0.00  0.00    +0.000 C 
BRANCH   6   7
ATOM      7  C   UNL     1      -8.882  -0.004 123.700  0.00  0.00    +0.000 C 
ATOM      8  C   UNL     1      -9.664   1.091 122.948  0.00  0.00    +0.000 C 
BRANCH   7   9
ATOM      9  C   UNL     1      -9.146  -1.391 123.127  0.00  0.00    +0.000 C 
BRANCH   9  10
ATOM     10  C   UNL     1      -7.883  -2.213 123.169  0.00  0.00    +0.000 C 
BRANCH  10  11
ATOM     11  C   UNL     1      -6.656  -1.335 123.120  0.00  0.00    +0.000 C 
BRANCH  11  12
ATOM     12  C   UNL     1      -5.553  -1.942 123.985  0.00  0.00    +0.000 C 
ATOM     13  C   UNL     1      -5.662  -3.477 124.050  0.00  0.00    +0.000 C 
BRANCH  12  14
ATOM     14  C   UNL     1      -5.645  -1.311 125.375  0.00  0.00    +0.000 C 
BRANCH  14  15
ATOM     15  C   UNL     1      -6.108  -2.341 126.381  0.00  0.00    +0.000 C 
BRANCH  15  16
ATOM     16  C   UNL     1      -6.828  -1.703 127.550  0.00  0.00    +0.000 C 
BRANCH  16  18
ATOM     17  C   UNL     1      -8.503  -3.320 126.670  0.00  0.00    +0.000 C 
ATOM     18  C   UNL     1      -8.114  -2.472 127.873  0.00  0.00    +0.000 C 
ATOM     19  C   UNL     1      -7.956  -3.366 129.108  0.00  0.00    +0.000 C 
ENDBRANCH  16  18
ENDBRANCH  15  16
ENDBRANCH  14  15
ENDBRANCH  12  14
ENDBRANCH  11  12
ENDBRANCH  10  11
ENDBRANCH   9  10
ENDBRANCH   7   9
ENDBRANCH   6   7
ENDBRANCH   5   6
ENDBRANCH   4   5
ENDBRANCH   1   4
BRANCH   3  20
ATOM     20  C   UNL     1      -7.739   4.359 129.401  0.00  0.00    +0.000 C 
BRANCH  20  21
ATOM     21  C   UNL     1      -8.727   5.465 129.809  0.00  0.00    +0.000 C 
ATOM     22  C   UNL     1      -9.020   5.891 131.064  0.00  0.00    +0.000 C 
ATOM     23  C   UNL     1      -8.339   5.486 132.339  0.00  0.00    +0.000 C 
ATOM     24  C   UNL     1     -10.352   6.502 131.354  0.00  0.00    +0.000 C 
ATOM     25  O   UNL     1     -10.833   6.483 132.475  0.00  0.00    +0.000 OA
ATOM     26  C   UNL     1     -11.108   7.057 130.240  0.00  0.00    +0.000 A 
ATOM     27  C   UNL     1     -10.664   6.886 128.937  0.00  0.00    +0.000 A 
ATOM     28  C   UNL     1     -11.334   7.542 127.901  0.00  0.00    +0.000 A 
ATOM     29  C   UNL     1     -12.443   8.347 128.189  0.00  0.00    +0.000 A 
ATOM     30  C   UNL     1     -12.910   8.470 129.497  0.00  0.00    +0.000 A 
ATOM     31  C   UNL     1     -12.249   7.814 130.527  0.00  0.00    +0.000 A 
ATOM     32  C   UNL     1      -9.492   6.030 128.648  0.00  0.00    +0.000 C 
ATOM     33  O   UNL     1      -9.147   5.823 127.499  0.00  0.00    +0.000 OA
ENDBRANCH  20  21
ENDBRANCH   3  20
TORSDOF 14
ENDMDL
MODEL 3
REMARK VINA RESULT:      -7.6      2.224      6.128
REMARK  Name = Phylloquinone
REMARK  20 active torsions:
REMARK  status: ('A' for Active; 'I' for Inactive)
REMARK    1  A    between atoms: C_1  and  C_2
REMARK    2  A    between atoms: C_2  and  C_3
REMARK    3  A    between atoms: C_2  and  C_4
REMARK    4  A    between atoms: C_4  and  C_5
REMARK    5  A    between atoms: C_5  and  C_6
REMARK    6  A    between atoms: C_6  and  C_7
REMARK    7  A    between atoms: C_7  and  C_8
REMARK    8  A    between atoms: C_7  and  C_9
REMARK    9  A    between atoms: C_9  and  C_10
REMARK   10  A    between atoms: C_10  and  C_11
REMARK   11  A    between atoms: C_11  and  C_12
REMARK   12  A    between atoms: C_12  and  C_13
REMARK   13  A    between atoms: C_12  and  C_14
REMARK   14  A    between atoms: C_14  and  C_15
REMARK   15  A    between atoms: C_15  and  C_16
REMARK   16  A    between atoms: C_16  and  C_17
REMARK   17  A    between atoms: C_17  and  C_18
REMARK   18  A    between atoms: C_19  and  C_20
REMARK   19  A    between atoms: C_20  and  C_21
REMARK   20  A    between atoms: C_22  and  C_23
REMARK                            x       y       z     vdW  Elec       q    Type
REMARK                         _______ _______ _______ _____ _____    ______ ____
ROOT
ATOM      1  C   UNL     1      -4.622  -0.784 129.764  0.00  0.00    +0.000 C 
ATOM      2  C   UNL     1      -4.162  -0.004 131.010  0.00  0.00    +0.000 C 
ATOM      3  C   UNL     1      -5.194  -0.166 128.698  0.00  0.00    +0.000 C 
ENDROOT
BRANCH   1   4
ATOM      4  C   UNL     1      -4.103  -2.216 129.510  0.00  0.00    +0.000 C 
BRANCH   4   5
ATOM      5  C   UNL     1      -4.606  -3.214 130.536  0.00  0.00    +0.000 C 
BRANCH   5   6
ATOM      6  C   UNL     1      -5.946  -3.827 130.226  0.00  0.00    +0.000 C 
BRANCH   6   7
ATOM      7  C   UNL     1      -7.038  -2.854 130.689  0.00  0.00    +0.000 C 
ATOM      8  C   UNL     1      -7.403  -3.049 132.174  0.00  0.00    +0.000 C 
BRANCH   7   9
ATOM      9  C   UNL     1      -8.240  -3.051 129.774  0.00  0.00    +0.000 C 
BRANCH   9  10
ATOM     10  C   UNL     1      -7.776  -3.397 128.382  0.00  0.00    +0.000 C 
BRANCH  10  11
ATOM     11  C   UNL     1      -8.943  -3.686 127.471  0.00  0.00    +0.000 C 
BRANCH  11  12
ATOM     12  C   UNL     1      -8.846  -2.820 126.216  0.00  0.00    +0.000 C 
ATOM     13  C   UNL     1      -8.645  -3.675 124.951  0.00  0.00    +0.000 C 
BRANCH  12  14
ATOM     14  C   UNL     1      -7.697  -1.831 126.416  0.00  0.00    +0.000 C 
BRANCH  14  15
ATOM     15  C   UNL     1      -7.099  -1.454 125.079  0.00  0.00    +0.000 C 
BRANCH  15  16
ATOM     16  C   UNL     1      -5.604  -1.685 125.044  0.00  0.00    +0.000 C 
BRANCH  16  18
ATOM     17  C   UNL     1      -5.046  -3.832 123.916  0.00  0.00    +0.000 C 
ATOM     18  C   UNL     1      -5.190  -2.330 123.716  0.00  0.00    +0.000 C 
ATOM     19  C   UNL     1      -6.204  -2.051 122.600  0.00  0.00    +0.000 C 
ENDBRANCH  16  18
ENDBRANCH  15  16
ENDBRANCH  14  15
ENDBRANCH  12  14
ENDBRANCH  11  12
ENDBRANCH  10  11
ENDBRANCH   9  10
ENDBRANCH   7   9
ENDBRANCH   6   7
ENDBRANCH   5   6
ENDBRANCH   4   5
ENDBRANCH   1   4
BRANCH   3  20
ATOM     20  C   UNL     1      -5.249   1.327 128.434  0.00  0.00    +0.000 C 
BRANCH  20  21
ATOM     21  C   UNL     1      -6.314   1.782 127.421  0.00  0.00    +0.000 C 
ATOM     22  C   UNL     1      -7.663   1.738 127.563  0.00  0.00    +0.000 C 
ATOM     23  C   UNL     1      -8.432   1.375 128.801  0.00  0.00    +0.000 C 
ATOM     24  C   UNL     1      -8.539   1.642 126.357  0.00  0.00    +0.000 C 
ATOM     25  O   UNL     1      -9.658   1.160 126.418  0.00  0.00    +0.000 OA
ATOM     26  C   UNL     1      -7.991   2.068 125.076  0.00  0.00    +0.000 A 
ATOM     27  C   UNL     1      -6.652   2.409 124.967  0.00  0.00    +0.000 A 
ATOM     28  C   UNL     1      -6.185   2.942 123.762  0.00  0.00    +0.000 A 
ATOM     29  C   UNL     1      -7.066   3.110 122.687  0.00  0.00    +0.000 A 
ATOM     30  C   UNL     1      -8.399   2.715 122.795  0.00  0.00    +0.000 A 
ATOM     31  C   UNL     1      -8.864   2.180 123.989  0.00  0.00    +0.000 A 
ATOM     32  C   UNL     1      -5.731   2.223 126.110  0.00  0.00    +0.000 C 
ATOM     33  O   UNL     1      -4.542   2.457 125.990  0.00  0.00    +0.000 OA
ENDBRANCH  20  21
ENDBRANCH   3  20
TORSDOF 14
ENDMDL
MODEL 4
REMARK VINA RESULT:      -7.6      3.792      8.174
REMARK  Name = Phylloquinone
REMARK  20 active torsions:
REMARK  status: ('A' for Active; 'I' for Inactive)
REMARK    1  A    between atoms: C_1  and  C_2
REMARK    2  A    between atoms: C_2  and  C_3
REMARK    3  A    between atoms: C_2  and  C_4
REMARK    4  A    between atoms: C_4  and  C_5
REMARK    5  A    between atoms: C_5  and  C_6
REMARK    6  A    between atoms: C_6  and  C_7
REMARK    7  A    between atoms: C_7  and  C_8
REMARK    8  A    between atoms: C_7  and  C_9
REMARK    9  A    between atoms: C_9  and  C_10
REMARK   10  A    between atoms: C_10  and  C_11
REMARK   11  A    between atoms: C_11  and  C_12
REMARK   12  A    between atoms: C_12  and  C_13
REMARK   13  A    between atoms: C_12  and  C_14
REMARK   14  A    between atoms: C_14  and  C_15
REMARK   15  A    between atoms: C_15  and  C_16
REMARK   16  A    between atoms: C_16  and  C_17
REMARK   17  A    between atoms: C_17  and  C_18
REMARK   18  A    between atoms: C_19  and  C_20
REMARK   19  A    between atoms: C_20  and  C_21
REMARK   20  A    between atoms: C_22  and  C_23
REMARK                            x       y       z     vdW  Elec       q    Type
REMARK                         _______ _______ _______ _____ _____    ______ ____
ROOT
ATOM      1  C   UNL     1      -7.832  -2.883 129.411  0.00  0.00    +0.000 C 
ATOM      2  C   UNL     1      -6.410  -3.394 129.712  0.00  0.00    +0.000 C 
ATOM      3  C   UNL     1      -8.237  -1.633 129.756  0.00  0.00    +0.000 C 
ENDROOT
BRANCH   1   4
ATOM      4  C   UNL     1      -8.714  -3.611 128.373  0.00  0.00    +0.000 C 
BRANCH   4   5
ATOM      5  C   UNL     1      -8.268  -3.362 126.944  0.00  0.00    +0.000 C 
BRANCH   5   6
ATOM      6  C   UNL     1      -9.385  -3.227 125.942  0.00  0.00    +0.000 C 
BRANCH   6   7
ATOM      7  C   UNL     1      -8.766  -2.969 124.563  0.00  0.00    +0.000 C 
ATOM      8  C   UNL     1      -9.751  -3.264 123.415  0.00  0.00    +0.000 C 
BRANCH   7   9
ATOM      9  C   UNL     1      -7.502  -3.815 124.465  0.00  0.00    +0.000 C 
BRANCH   9  10
ATOM     10  C   UNL     1      -6.396  -3.014 123.828  0.00  0.00    +0.000 C 
BRANCH  10  11
ATOM     11  C   UNL     1      -5.379  -2.572 124.852  0.00  0.00    +0.000 C 
BRANCH  11  12
ATOM     12  C   UNL     1      -5.492  -1.066 125.078  0.00  0.00    +0.000 C 
ATOM     13  C   UNL     1      -6.014  -0.742 126.490  0.00  0.00    +0.000 C 
BRANCH  12  14
ATOM     14  C   UNL     1      -6.409  -0.497 123.994  0.00  0.00    +0.000 C 
BRANCH  14  15
ATOM     15  C   UNL     1      -7.327   0.549 124.588  0.00  0.00    +0.000 C 
BRANCH  15  16
ATOM     16  C   UNL     1      -8.014   1.370 123.518  0.00  0.00    +0.000 C 
BRANCH  16  18
ATOM     17  C   UNL     1     -10.137   0.527 122.529  0.00  0.00    +0.000 C 
ATOM     18  C   UNL     1      -9.536   1.309 123.689  0.00  0.00    +0.000 C 
ATOM     19  C   UNL     1      -9.941   0.660 125.017  0.00  0.00    +0.000 C 
ENDBRANCH  16  18
ENDBRANCH  15  16
ENDBRANCH  14  15
ENDBRANCH  12  14
ENDBRANCH  11  12
ENDBRANCH  10  11
ENDBRANCH   9  10
ENDBRANCH   7   9
ENDBRANCH   6   7
ENDBRANCH   5   6
ENDBRANCH   4   5
ENDBRANCH   1   4
BRANCH   3  20
ATOM     20  C   UNL     1      -7.357  -0.491 130.231  0.00  0.00    +0.000 C 
BRANCH  20  21
ATOM     21  C   UNL     1      -8.075   0.852 130.446  0.00  0.00    +0.000 C 
ATOM     22  C   UNL     1      -8.515   1.716 129.496  0.00  0.00    +0.000 C 
ATOM     23  C   UNL     1      -8.538   1.494 128.011  0.00  0.00    +0.000 C 
ATOM     24  C   UNL     1      -8.638   3.171 129.809  0.00  0.00    +0.000 C 
ATOM     25  O   UNL     1      -8.582   4.020 128.934  0.00  0.00    +0.000 OA
ATOM     26  C   UNL     1      -8.746   3.565 131.207  0.00  0.00    +0.000 A 
ATOM     27  C   UNL     1      -8.590   2.623 132.214  0.00  0.00    +0.000 A 
ATOM     28  C   UNL     1      -8.834   3.001 133.537  0.00  0.00    +0.000 A 
ATOM     29  C   UNL     1      -9.215   4.316 133.828  0.00  0.00    +0.000 A 
ATOM     30  C   UNL     1      -9.318   5.265 132.812  0.00  0.00    +0.000 A 
ATOM     31  C   UNL     1      -9.072   4.894 131.496  0.00  0.00    +0.000 A 
ATOM     32  C   UNL     1      -8.184   1.238 131.892  0.00  0.00    +0.000 C 
ATOM     33  O   UNL     1      -7.979   0.432 132.782  0.00  0.00    +0.000 OA
ENDBRANCH  20  21
ENDBRANCH   3  20
TORSDOF 14
ENDMDL
MODEL 5
REMARK VINA RESULT:      -7.6      1.733      4.874
REMARK  Name = Phylloquinone
REMARK  20 active torsions:
REMARK  status: ('A' for Active; 'I' for Inactive)
REMARK    1  A    between atoms: C_1  and  C_2
REMARK    2  A    between atoms: C_2  and  C_3
REMARK    3  A    between atoms: C_2  and  C_4
REMARK    4  A    between atoms: C_4  and  C_5
REMARK    5  A    between atoms: C_5  and  C_6
REMARK    6  A    between atoms: C_6  and  C_7
REMARK    7  A    between atoms: C_7  and  C_8
REMARK    8  A    between atoms: C_7  and  C_9
REMARK    9  A    between atoms: C_9  and  C_10
REMARK   10  A    between atoms: C_10  and  C_11
REMARK   11  A    between atoms: C_11  and  C_12
REMARK   12  A    between atoms: C_12  and  C_13
REMARK   13  A    between atoms: C_12  and  C_14
REMARK   14  A    between atoms: C_14  and  C_15
REMARK   15  A    between atoms: C_15  and  C_16
REMARK   16  A    between atoms: C_16  and  C_17
REMARK   17  A    between atoms: C_17  and  C_18
REMARK   18  A    between atoms: C_19  and  C_20
REMARK   19  A    between atoms: C_20  and  C_21
REMARK   20  A    between atoms: C_22  and  C_23
REMARK                            x       y       z     vdW  Elec       q    Type
REMARK                         _______ _______ _______ _____ _____    ______ ____
ROOT
ATOM      1  C   UNL     1      -6.692   0.532 127.520  0.00  0.00    +0.000 C 
ATOM      2  C   UNL     1      -7.585   1.129 128.624  0.00  0.00    +0.000 C 
ATOM      3  C   UNL     1      -6.292   1.259 126.445  0.00  0.00    +0.000 C 
ENDROOT
BRANCH   1   4
ATOM      4  C   UNL     1      -5.904  -0.771 127.780  0.00  0.00    +0.000 C 
BRANCH   4   5
ATOM      5  C   UNL     1      -6.667  -2.014 127.360  0.00  0.00    +0.000 C 
BRANCH   5   6
ATOM      6  C   UNL     1      -7.928  -2.280 128.139  0.00  0.00    +0.000 C 
BRANCH   6   7
ATOM      7  C   UNL     1      -8.907  -3.029 127.228  0.00  0.00    +0.000 C 
ATOM      8  C   UNL     1      -8.564  -4.527 127.105  0.00  0.00    +0.000 C 
BRANCH   7   9
ATOM      9  C   UNL     1      -8.898  -2.328 125.875  0.00  0.00    +0.000 C 
BRANCH   9  10
ATOM     10  C   UNL     1      -9.432  -3.254 124.813  0.00  0.00    +0.000 C 
BRANCH  10  11
ATOM     11  C   UNL     1      -9.022  -2.800 123.433  0.00  0.00    +0.000 C 
BRANCH  11  12
ATOM     12  C   UNL     1      -8.731  -1.301 123.448  0.00  0.00    +0.000 C 
ATOM     13  C   UNL     1      -9.849  -0.500 122.754  0.00  0.00    +0.000 C 
BRANCH  12  14
ATOM     14  C   UNL     1      -7.376  -1.078 122.773  0.00  0.00    +0.000 C 
BRANCH  14  15
ATOM     15  C   UNL     1      -6.261  -1.528 123.689  0.00  0.00    +0.000 C 
BRANCH  15  16
ATOM     16  C   UNL     1      -5.372  -2.561 123.030  0.00  0.00    +0.000 C 
BRANCH  16  18
ATOM     17  C   UNL     1      -6.114  -4.438 124.487  0.00  0.00    +0.000 C 
ATOM     18  C   UNL     1      -4.915  -3.608 124.052  0.00  0.00    +0.000 C 
ATOM     19  C   UNL     1      -3.826  -4.527 123.487  0.00  0.00    +0.000 C 
ENDBRANCH  16  18
ENDBRANCH  15  16
ENDBRANCH  14  15
ENDBRANCH  12  14
ENDBRANCH  11  12
ENDBRANCH  10  11
ENDBRANCH   9  10
ENDBRANCH   7   9
ENDBRANCH   6   7
ENDBRANCH   5   6
ENDBRANCH   4   5
ENDBRANCH   1   4
BRANCH   3  20
ATOM     20  C   UNL     1      -6.416   2.761 126.266  0.00  0.00    +0.000 C 
BRANCH  20  21
ATOM     21  C   UNL     1      -6.782   3.231 124.848  0.00  0.00    +0.000 C 
ATOM     22  C   UNL     1      -7.970   3.080 124.207  0.00  0.00    +0.000 C 
ATOM     23  C   UNL     1      -9.250   2.551 124.787  0.00  0.00    +0.000 C 
ATOM     24  C   UNL     1      -8.013   3.034 122.715  0.00  0.00    +0.000 C 
ATOM     25  O   UNL     1      -8.917   2.471 122.120  0.00  0.00    +0.000 OA
ATOM     26  C   UNL     1      -6.897   3.613 121.979  0.00  0.00    +0.000 A 
ATOM     27  C   UNL     1      -5.769   4.056 122.652  0.00  0.00    +0.000 A 
ATOM     28  C   UNL     1      -4.774   4.729 121.937  0.00  0.00    +0.000 A 
ATOM     29  C   UNL     1      -4.923   4.933 120.560  0.00  0.00    +0.000 A 
ATOM     30  C   UNL     1      -6.039   4.437 119.887  0.00  0.00    +0.000 A 
ATOM     31  C   UNL     1      -7.027   3.763 120.595  0.00  0.00    +0.000 A 
ATOM     32  C   UNL     1      -5.623   3.831 124.107  0.00  0.00    +0.000 C 
ATOM     33  O   UNL     1      -4.601   4.157 124.683  0.00  0.00    +0.000 OA
ENDBRANCH  20  21
ENDBRANCH   3  20
TORSDOF 14
ENDMDL
MODEL 6
REMARK VINA RESULT:      -7.5      5.768      9.467
REMARK  Name = Phylloquinone
REMARK  20 active torsions:
REMARK  status: ('A' for Active; 'I' for Inactive)
REMARK    1  A    between atoms: C_1  and  C_2
REMARK    2  A    between atoms: C_2  and  C_3
REMARK    3  A    between atoms: C_2  and  C_4
REMARK    4  A    between atoms: C_4  and  C_5
REMARK    5  A    between atoms: C_5  and  C_6
REMARK    6  A    between atoms: C_6  and  C_7
REMARK    7  A    between atoms: C_7  and  C_8
REMARK    8  A    between atoms: C_7  and  C_9
REMARK    9  A    between atoms: C_9  and  C_10
REMARK   10  A    between atoms: C_10  and  C_11
REMARK   11  A    between atoms: C_11  and  C_12
REMARK   12  A    between atoms: C_12  and  C_13
REMARK   13  A    between atoms: C_12  and  C_14
REMARK   14  A    between atoms: C_14  and  C_15
REMARK   15  A    between atoms: C_15  and  C_16
REMARK   16  A    between atoms: C_16  and  C_17
REMARK   17  A    between atoms: C_17  and  C_18
REMARK   18  A    between atoms: C_19  and  C_20
REMARK   19  A    between atoms: C_20  and  C_21
REMARK   20  A    between atoms: C_22  and  C_23
REMARK                            x       y       z     vdW  Elec       q    Type
REMARK                         _______ _______ _______ _____ _____    ______ ____
ROOT
ATOM      1  C   UNL     1      -8.620   2.078 132.834  0.00  0.00    +0.000 C 
ATOM      2  C   UNL     1      -7.136   1.717 133.027  0.00  0.00    +0.000 C 
ATOM      3  C   UNL     1      -9.193   3.134 133.468  0.00  0.00    +0.000 C 
ENDROOT
BRANCH   1   4
ATOM      4  C   UNL     1      -9.407   1.510 131.633  0.00  0.00    +0.000 C 
BRANCH   4   5
ATOM      5  C   UNL     1      -9.680   2.552 130.563  0.00  0.00    +0.000 C 
BRANCH   5   6
ATOM      6  C   UNL     1      -8.474   2.981 129.769  0.00  0.00    +0.000 C 
BRANCH   6   7
ATOM      7  C   UNL     1      -8.008   1.791 128.922  0.00  0.00    +0.000 C 
ATOM      8  C   UNL     1      -6.587   1.326 129.300  0.00  0.00    +0.000 C 
BRANCH   7   9
ATOM      9  C   UNL     1      -8.103   2.208 127.460  0.00  0.00    +0.000 C 
BRANCH   9  10
ATOM     10  C   UNL     1      -6.741   2.599 126.948  0.00  0.00    +0.000 C 
BRANCH  10  11
ATOM     11  C   UNL     1      -6.746   4.003 126.393  0.00  0.00    +0.000 C 
BRANCH  11  12
ATOM     12  C   UNL     1      -5.456   4.257 125.616  0.00  0.00    +0.000 C 
ATOM     13  C   UNL     1      -5.725   4.416 124.107  0.00  0.00    +0.000 C 
BRANCH  12  14
ATOM     14  C   UNL     1      -4.501   3.095 125.898  0.00  0.00    +0.000 C 
BRANCH  14  15
ATOM     15  C   UNL     1      -3.168   3.626 126.378  0.00  0.00    +0.000 C 
BRANCH  15  16
ATOM     16  C   UNL     1      -2.810   3.091 127.748  0.00  0.00    +0.000 C 
BRANCH  16  18
ATOM     17  C   UNL     1      -2.645   5.537 128.181  0.00  0.00    +0.000 C 
ATOM     18  C   UNL     1      -2.962   4.188 128.809  0.00  0.00    +0.000 C 
ATOM     19  C   UNL     1      -4.372   4.215 129.411  0.00  0.00    +0.000 C 
ENDBRANCH  16  18
ENDBRANCH  15  16
ENDBRANCH  14  15
ENDBRANCH  12  14
ENDBRANCH  11  12
ENDBRANCH  10  11
ENDBRANCH   9  10
ENDBRANCH   7   9
ENDBRANCH   6   7
ENDBRANCH   5   6
ENDBRANCH   4   5
ENDBRANCH   1   4
BRANCH   3  20
ATOM     20  C   UNL     1      -8.478   4.237 134.227  0.00  0.00    +0.000 C 
BRANCH  20  21
ATOM     21  C   UNL     1      -7.833   5.328 133.356  0.00  0.00    +0.000 C 
ATOM     22  C   UNL     1      -8.440   6.111 132.427  0.00  0.00    +0.000 C 
ATOM     23  C   UNL     1      -9.911   6.197 132.137  0.00  0.00    +0.000 C 
ATOM     24  C   UNL     1      -7.649   6.670 131.290  0.00  0.00    +0.000 C 
ATOM     25  O   UNL     1      -8.178   6.973 130.233  0.00  0.00    +0.000 OA
ATOM     26  C   UNL     1      -6.204   6.771 131.444  0.00  0.00    +0.000 A 
ATOM     27  C   UNL     1      -5.579   6.226 132.555  0.00  0.00    +0.000 A 
ATOM     28  C   UNL     1      -4.213   6.455 132.743  0.00  0.00    +0.000 A 
ATOM     29  C   UNL     1      -3.499   7.214 131.810  0.00  0.00    +0.000 A 
ATOM     30  C   UNL     1      -4.129   7.713 130.671  0.00  0.00    +0.000 A 
ATOM     31  C   UNL     1      -5.485   7.483 130.478  0.00  0.00    +0.000 A 
ATOM     32  C   UNL     1      -6.346   5.423 133.532  0.00  0.00    +0.000 C 
ATOM     33  O   UNL     1      -5.782   4.887 134.469  0.00  0.00    +0.000 OA
ENDBRANCH  20  21
ENDBRANCH   3  20
TORSDOF 14
ENDMDL
MODEL 7
REMARK VINA RESULT:      -7.4      5.441      8.257
REMARK  Name = Phylloquinone
REMARK  20 active torsions:
REMARK  status: ('A' for Active; 'I' for Inactive)
REMARK    1  A    between atoms: C_1  and  C_2
REMARK    2  A    between atoms: C_2  and  C_3
REMARK    3  A    between atoms: C_2  and  C_4
REMARK    4  A    between atoms: C_4  and  C_5
REMARK    5  A    between atoms: C_5  and  C_6
REMARK    6  A    between atoms: C_6  and  C_7
REMARK    7  A    between atoms: C_7  and  C_8
REMARK    8  A    between atoms: C_7  and  C_9
REMARK    9  A    between atoms: C_9  and  C_10
REMARK   10  A    between atoms: C_10  and  C_11
REMARK   11  A    between atoms: C_11  and  C_12
REMARK   12  A    between atoms: C_12  and  C_13
REMARK   13  A    between atoms: C_12  and  C_14
REMARK   14  A    between atoms: C_14  and  C_15
REMARK   15  A    between atoms: C_15  and  C_16
REMARK   16  A    between atoms: C_16  and  C_17
REMARK   17  A    between atoms: C_17  and  C_18
REMARK   18  A    between atoms: C_19  and  C_20
REMARK   19  A    between atoms: C_20  and  C_21
REMARK   20  A    between atoms: C_22  and  C_23
REMARK                            x       y       z     vdW  Elec       q    Type
REMARK                         _______ _______ _______ _____ _____    ______ ____
ROOT
ATOM      1  C   UNL     1      -8.842   1.874 131.977  0.00  0.00    +0.000 C 
ATOM      2  C   UNL     1      -7.954   2.337 133.147  0.00  0.00    +0.000 C 
ATOM      3  C   UNL     1      -9.096   2.670 130.906  0.00  0.00    +0.000 C 
ENDROOT
BRANCH   1   4
ATOM      4  C   UNL     1      -9.152   0.373 131.785  0.00  0.00    +0.000 C 
BRANCH   4   5
ATOM      5  C   UNL     1      -7.932  -0.432 131.377  0.00  0.00    +0.000 C 
BRANCH   5   6
ATOM      6  C   UNL     1      -8.047  -1.134 130.050  0.00  0.00    +0.000 C 
BRANCH   6   7
ATOM      7  C   UNL     1      -7.829  -2.635 130.280  0.00  0.00    +0.000 C 
ATOM      8  C   UNL     1      -7.007  -2.918 131.553  0.00  0.00    +0.000 C 
BRANCH   7   9
ATOM      9  C   UNL     1      -7.159  -3.194 129.031  0.00  0.00    +0.000 C 
BRANCH   9  10
ATOM     10  C   UNL     1      -7.726  -2.529 127.803  0.00  0.00    +0.000 C 
BRANCH  10  11
ATOM     11  C   UNL     1      -8.732  -3.418 127.113  0.00  0.00    +0.000 C 
BRANCH  11  12
ATOM     12  C   UNL     1      -9.422  -2.645 125.991  0.00  0.00    +0.000 C 
ATOM     13  C   UNL     1      -9.434  -3.446 124.675  0.00  0.00    +0.000 C 
BRANCH  12  14
ATOM     14  C   UNL     1      -8.699  -1.307 125.829  0.00  0.00    +0.000 C 
BRANCH  14  15
ATOM     15  C   UNL     1      -8.550  -0.972 124.361  0.00  0.00    +0.000 C 
BRANCH  15  16
ATOM     16  C   UNL     1      -7.100  -0.797 123.967  0.00  0.00    +0.000 C 
BRANCH  16  18
ATOM     17  C   UNL     1      -5.819  -2.079 122.261  0.00  0.00    +0.000 C 
ATOM     18  C   UNL     1      -6.465  -2.153 123.637  0.00  0.00    +0.000 C 
ATOM     19  C   UNL     1      -5.419  -2.567 124.679  0.00  0.00    +0.000 C 
ENDBRANCH  16  18
ENDBRANCH  15  16
ENDBRANCH  14  15
ENDBRANCH  12  14
ENDBRANCH  11  12
ENDBRANCH  10  11
ENDBRANCH   9  10
ENDBRANCH   7   9
ENDBRANCH   6   7
ENDBRANCH   5   6
ENDBRANCH   4   5
ENDBRANCH   1   4
BRANCH   3  20
ATOM     20  C   UNL     1      -8.398   3.971 130.554  0.00  0.00    +0.000 C 
BRANCH  20  21
ATOM     21  C   UNL     1      -9.299   5.217 130.514  0.00  0.00    +0.000 C 
ATOM     22  C   UNL     1      -9.950   5.800 131.553  0.00  0.00    +0.000 C 
ATOM     23  C   UNL     1      -9.824   5.455 133.009  0.00  0.00    +0.000 C 
ATOM     24  C   UNL     1     -11.197   6.584 131.307  0.00  0.00    +0.000 C 
ATOM     25  O   UNL     1     -12.039   6.734 132.177  0.00  0.00    +0.000 OA
ATOM     26  C   UNL     1     -11.427   7.103 129.965  0.00  0.00    +0.000 A 
ATOM     27  C   UNL     1     -10.583   6.749 128.924  0.00  0.00    +0.000 A 
ATOM     28  C   UNL     1     -10.746   7.368 127.681  0.00  0.00    +0.000 A 
ATOM     29  C   UNL     1     -11.758   8.317 127.502  0.00  0.00    +0.000 A 
ATOM     30  C   UNL     1     -12.632   8.626 128.544  0.00  0.00    +0.000 A 
ATOM     31  C   UNL     1     -12.476   8.009 129.778  0.00  0.00    +0.000 A 
ATOM     32  C   UNL     1      -9.519   5.742 129.126  0.00  0.00    +0.000 C 
ATOM     33  O   UNL     1      -8.825   5.381 128.192  0.00  0.00    +0.000 OA
ENDBRANCH  20  21
ENDBRANCH   3  20
TORSDOF 14
ENDMDL
MODEL 8
REMARK VINA RESULT:      -7.4      7.150      9.504
REMARK  Name = Phylloquinone
REMARK  20 active torsions:
REMARK  status: ('A' for Active; 'I' for Inactive)
REMARK    1  A    between atoms: C_1  and  C_2
REMARK    2  A    between atoms: C_2  and  C_3
REMARK    3  A    between atoms: C_2  and  C_4
REMARK    4  A    between atoms: C_4  and  C_5
REMARK    5  A    between atoms: C_5  and  C_6
REMARK    6  A    between atoms: C_6  and  C_7
REMARK    7  A    between atoms: C_7  and  C_8
REMARK    8  A    between atoms: C_7  and  C_9
REMARK    9  A    between atoms: C_9  and  C_10
REMARK   10  A    between atoms: C_10  and  C_11
REMARK   11  A    between atoms: C_11  and  C_12
REMARK   12  A    between atoms: C_12  and  C_13
REMARK   13  A    between atoms: C_12  and  C_14
REMARK   14  A    between atoms: C_14  and  C_15
REMARK   15  A    between atoms: C_15  and  C_16
REMARK   16  A    between atoms: C_16  and  C_17
REMARK   17  A    between atoms: C_17  and  C_18
REMARK   18  A    between atoms: C_19  and  C_20
REMARK   19  A    between atoms: C_20  and  C_21
REMARK   20  A    between atoms: C_22  and  C_23
REMARK                            x       y       z     vdW  Elec       q    Type
REMARK                         _______ _______ _______ _____ _____    ______ ____
ROOT
ATOM      1  C   UNL     1      -6.113   6.119 131.266  0.00  0.00    +0.000 C 
ATOM      2  C   UNL     1      -6.490   5.921 132.747  0.00  0.00    +0.000 C 
ATOM      3  C   UNL     1      -6.810   5.529 130.261  0.00  0.00    +0.000 C 
ENDROOT
BRANCH   1   4
ATOM      4  C   UNL     1      -5.192   7.287 130.849  0.00  0.00    +0.000 C 
BRANCH   4   5
ATOM      5  C   UNL     1      -3.733   7.030 131.177  0.00  0.00    +0.000 C 
BRANCH   5   6
ATOM      6  C   UNL     1      -3.364   7.210 132.626  0.00  0.00    +0.000 C 
BRANCH   6   7
ATOM      7  C   UNL     1      -2.259   6.204 132.970  0.00  0.00    +0.000 C 
ATOM      8  C   UNL     1      -1.353   5.895 131.761  0.00  0.00    +0.000 C 
BRANCH   7   9
ATOM      9  C   UNL     1      -2.936   4.951 133.512  0.00  0.00    +0.000 C 
BRANCH   9  10
ATOM     10  C   UNL     1      -2.756   3.810 132.544  0.00  0.00    +0.000 C 
BRANCH  10  11
ATOM     11  C   UNL     1      -4.079   3.173 132.196  0.00  0.00    +0.000 C 
BRANCH  11  12
ATOM     12  C   UNL     1      -4.040   2.650 130.761  0.00  0.00    +0.000 C 
ATOM     13  C   UNL     1      -3.632   3.753 129.767  0.00  0.00    +0.000 C 
BRANCH  12  14
ATOM     14  C   UNL     1      -5.419   2.076 130.432  0.00  0.00    +0.000 C 
BRANCH  14  15
ATOM     15  C   UNL     1      -6.269   2.023 131.682  0.00  0.00    +0.000 C 
BRANCH  15  16
ATOM     16  C   UNL     1      -7.534   1.220 131.469  0.00  0.00    +0.000 C 
BRANCH  16  18
ATOM     17  C   UNL     1      -8.042   2.700 133.405  0.00  0.00    +0.000 C 
ATOM     18  C   UNL     1      -8.589   1.590 132.519  0.00  0.00    +0.000 C 
ATOM     19  C   UNL     1      -9.906   2.041 131.877  0.00  0.00    +0.000 C 
ENDBRANCH  16  18
ENDBRANCH  15  16
ENDBRANCH  14  15
ENDBRANCH  12  14
ENDBRANCH  11  12
ENDBRANCH  10  11
ENDBRANCH   9  10
ENDBRANCH   7   9
ENDBRANCH   6   7
ENDBRANCH   5   6
ENDBRANCH   4   5
ENDBRANCH   1   4
BRANCH   3  20
ATOM     20  C   UNL     1      -8.152   4.829 130.373  0.00  0.00    +0.000 C 
BRANCH  20  21
ATOM     21  C   UNL     1      -9.386   5.741 130.267  0.00  0.00    +0.000 C 
ATOM     22  C   UNL     1     -10.156   6.212 131.280  0.00  0.00    +0.000 C 
ATOM     23  C   UNL     1      -9.896   6.076 132.753  0.00  0.00    +0.000 C 
ATOM     24  C   UNL     1     -11.587   6.561 131.032  0.00  0.00    +0.000 C 
ATOM     25  O   UNL     1     -12.413   6.547 131.930  0.00  0.00    +0.000 OA
ATOM     26  C   UNL     1     -11.995   6.843 129.662  0.00  0.00    +0.000 A 
ATOM     27  C   UNL     1     -11.110   6.646 128.613  0.00  0.00    +0.000 A 
ATOM     28  C   UNL     1     -11.482   7.053 127.328  0.00  0.00    +0.000 A 
ATOM     29  C   UNL     1     -12.737   7.635 127.118  0.00  0.00    +0.000 A 
ATOM     30  C   UNL     1     -13.637   7.780 128.173  0.00  0.00    +0.000 A 
ATOM     31  C   UNL     1     -13.272   7.373 129.450  0.00  0.00    +0.000 A 
ATOM     32  C   UNL     1      -9.788   6.026 128.850  0.00  0.00    +0.000 C 
ATOM     33  O   UNL     1      -9.042   5.790 127.917  0.00  0.00    +0.000 OA
ENDBRANCH  20  21
ENDBRANCH   3  20
TORSDOF 14
ENDMDL
MODEL 9
REMARK VINA RESULT:      -7.3      5.509      8.650
REMARK  Name = Phylloquinone
REMARK  20 active torsions:
REMARK  status: ('A' for Active; 'I' for Inactive)
REMARK    1  A    between atoms: C_1  and  C_2
REMARK    2  A    between atoms: C_2  and  C_3
REMARK    3  A    between atoms: C_2  and  C_4
REMARK    4  A    between atoms: C_4  and  C_5
REMARK    5  A    between atoms: C_5  and  C_6
REMARK    6  A    between atoms: C_6  and  C_7
REMARK    7  A    between atoms: C_7  and  C_8
REMARK    8  A    between atoms: C_7  and  C_9
REMARK    9  A    between atoms: C_9  and  C_10
REMARK   10  A    between atoms: C_10  and  C_11
REMARK   11  A    between atoms: C_11  and  C_12
REMARK   12  A    between atoms: C_12  and  C_13
REMARK   13  A    between atoms: C_12  and  C_14
REMARK   14  A    between atoms: C_14  and  C_15
REMARK   15  A    between atoms: C_15  and  C_16
REMARK   16  A    between atoms: C_16  and  C_17
REMARK   17  A    between atoms: C_17  and  C_18
REMARK   18  A    between atoms: C_19  and  C_20
REMARK   19  A    between atoms: C_20  and  C_21
REMARK   20  A    between atoms: C_22  and  C_23
REMARK                            x       y       z     vdW  Elec       q    Type
REMARK                         _______ _______ _______ _____ _____    ______ ____
ROOT
ATOM      1  C   UNL     1      -8.666   2.623 129.620  0.00  0.00    +0.000 C 
ATOM      2  C   UNL     1      -7.958   3.974 129.403  0.00  0.00    +0.000 C 
ATOM      3  C   UNL     1      -8.343   1.517 128.900  0.00  0.00    +0.000 C 
ENDROOT
BRANCH   1   4
ATOM      4  C   UNL     1      -9.477   2.371 130.910  0.00  0.00    +0.000 C 
BRANCH   4   5
ATOM      5  C   UNL     1      -8.612   2.358 132.156  0.00  0.00    +0.000 C 
BRANCH   5   6
ATOM      6  C   UNL     1      -9.190   3.086 133.341  0.00  0.00    +0.000 C 
BRANCH   6   7
ATOM      7  C   UNL     1      -8.487   4.443 133.462  0.00  0.00    +0.000 C 
ATOM      8  C   UNL     1      -7.975   4.712 134.891  0.00  0.00    +0.000 C 
BRANCH   7   9
ATOM      9  C   UNL     1      -9.471   5.509 132.997  0.00  0.00    +0.000 C 
BRANCH   9  10
ATOM     10  C   UNL     1      -8.883   6.285 131.846  0.00  0.00    +0.000 C 
BRANCH  10  11
ATOM     11  C   UNL     1      -9.963   6.829 130.943  0.00  0.00    +0.000 C 
BRANCH  11  12
ATOM     12  C   UNL     1     -11.267   6.072 131.183  0.00  0.00    +0.000 C 
ATOM     13  C   UNL     1     -11.513   5.008 130.096  0.00  0.00    +0.000 C 
BRANCH  12  14
ATOM     14  C   UNL     1     -12.402   7.096 131.236  0.00  0.00    +0.000 C 
BRANCH  14  15
ATOM     15  C   UNL     1     -12.188   8.161 130.183  0.00  0.00    +0.000 C 
BRANCH  15  16
ATOM     16  C   UNL     1     -13.118   7.981 129.003  0.00  0.00    +0.000 C 
BRANCH  16  18
ATOM     17  C   UNL     1     -10.888   8.423 127.989  0.00  0.00    +0.000 C 
ATOM     18  C   UNL     1     -12.362   8.193 127.686  0.00  0.00    +0.000 C 
ATOM     19  C   UNL     1     -12.516   7.001 126.735  0.00  0.00    +0.000 C 
ENDBRANCH  16  18
ENDBRANCH  15  16
ENDBRANCH  14  15
ENDBRANCH  12  14
ENDBRANCH  11  12
ENDBRANCH  10  11
ENDBRANCH   9  10
ENDBRANCH   7   9
ENDBRANCH   6   7
ENDBRANCH   5   6
ENDBRANCH   4   5
ENDBRANCH   1   4
BRANCH   3  20
ATOM     20  C   UNL     1      -7.138   1.341 127.996  0.00  0.00    +0.000 C 
BRANCH  20  21
ATOM     21  C   UNL     1      -7.329   1.799 126.540  0.00  0.00    +0.000 C 
ATOM     22  C   UNL     1      -8.228   1.332 125.637  0.00  0.00    +0.000 C 
ATOM     23  C   UNL     1      -9.345   0.361 125.891  0.00  0.00    +0.000 C 
ATOM     24  C   UNL     1      -7.933   1.418 124.176  0.00  0.00    +0.000 C 
ATOM     25  O   UNL     1      -8.442   0.651 123.375  0.00  0.00    +0.000 OA
ATOM     26  C   UNL     1      -6.950   2.397 123.732  0.00  0.00    +0.000 A 
ATOM     27  C   UNL     1      -6.211   3.117 124.658  0.00  0.00    +0.000 A 
ATOM     28  C   UNL     1      -5.375   4.143 124.208  0.00  0.00    +0.000 A 
ATOM     29  C   UNL     1      -5.286   4.419 122.839  0.00  0.00    +0.000 A 
ATOM     30  C   UNL     1      -5.996   3.653 121.914  0.00  0.00    +0.000 A 
ATOM     31  C   UNL     1      -6.823   2.630 122.358  0.00  0.00    +0.000 A 
ATOM     32  C   UNL     1      -6.313   2.813 126.102  0.00  0.00    +0.000 C 
ATOM     33  O   UNL     1      -5.611   3.398 126.908  0.00  0.00    +0.000 OA
ENDBRANCH  20  21
ENDBRANCH   3  20
TORSDOF 14
ENDMDL
