MODEL 1
REMARK VINA RESULT:      -7.0      0.000      0.000
REMARK  Name = Physostigmine
REMARK  6 active torsions:
REMARK  status: ('A' for Active; 'I' for Inactive)
REMARK    1  A    between atoms: N_3  and  C_4
REMARK    2  A    between atoms: C_7  and  C_8
REMARK    3  A    between atoms: C_13  and  O_14
REMARK    4  A    between atoms: O_14  and  C_15
REMARK    5  A    between atoms: N_17  and  C_18
REMARK    6  A    between atoms: N_20  and  C_21
REMARK                            x       y       z     vdW  Elec       q    Type
REMARK                         _______ _______ _______ _____ _____    ______ ____
ROOT
ATOM      1  C   UNL     1      -6.583   5.753 133.707  0.00  0.00    +0.000 C 
ATOM      2  N   UNL     1      -5.550   4.840 134.242  0.00  0.00    +0.000 NA
ATOM      3  C   UNL     1      -5.362   4.887 135.686  0.00  0.00    +0.000 C 
ATOM      4  C   UNL     1      -4.312   5.203 133.627  0.00  0.00    +0.000 C 
ATOM      5  C   UNL     1      -4.719   5.870 132.369  0.00  0.00    +0.000 C 
ATOM      6  C   UNL     1      -6.242   6.078 132.166  0.00  0.00    +0.000 C 
ATOM      7  C   UNL     1      -5.664   6.839 130.890  0.00  0.00    +0.000 C 
ATOM      8  C   UNL     1      -7.660   6.469 131.730  0.00  0.00    +0.000 A 
ATOM      9  C   UNL     1      -8.572   5.807 132.547  0.00  0.00    +0.000 A 
ATOM     10  C   UNL     1      -9.905   5.783 132.180  0.00  0.00    +0.000 A 
ATOM     11  C   UNL     1     -10.342   6.471 131.037  0.00  0.00    +0.000 A 
ATOM     12  C   UNL     1      -9.474   7.228 130.265  0.00  0.00    +0.000 A 
ATOM     13  C   UNL     1      -8.148   7.244 130.635  0.00  0.00    +0.000 A 
ATOM     14  N   UNL     1      -7.975   5.256 133.658  0.00  0.00    +0.000 N 
ATOM     15  C   UNL     1      -8.525   4.215 134.495  0.00  0.00    +0.000 C 
ENDROOT
BRANCH  12  16
ATOM     16  O   UNL     1      -9.775   7.960 129.090  0.00  0.00    +0.000 OA
BRANCH  16  17
ATOM     17  C   UNL     1     -10.444   7.341 128.054  0.00  0.00    +0.000 C 
ATOM     18  O   UNL     1      -9.944   6.530 127.270  0.00  0.00    +0.000 OA
ATOM     19  N   UNL     1     -11.761   7.695 127.947  0.00  0.00    +0.000 N 
ATOM     20  C   UNL     1     -12.540   7.079 126.901  0.00  0.00    +0.000 C 
ATOM     21  H   UNL     1     -12.173   8.358 128.593  0.00  0.00    +0.000 HD
ENDBRANCH  16  17
ENDBRANCH  12  16
TORSDOF 2
ENDMDL
MODEL 2
REMARK VINA RESULT:      -6.4      8.866      9.930
REMARK  Name = Physostigmine
REMARK  6 active torsions:
REMARK  status: ('A' for Active; 'I' for Inactive)
REMARK    1  A    between atoms: N_3  and  C_4
REMARK    2  A    between atoms: C_7  and  C_8
REMARK    3  A    between atoms: C_13  and  O_14
REMARK    4  A    between atoms: O_14  and  C_15
REMARK    5  A    between atoms: N_17  and  C_18
REMARK    6  A    between atoms: N_20  and  C_21
REMARK                            x       y       z     vdW  Elec       q    Type
REMARK                         _______ _______ _______ _____ _____    ______ ____
ROOT
ATOM      1  C   UNL     1      -8.270  -1.498 125.831  0.00  0.00    +0.000 C 
ATOM      2  N   UNL     1      -7.428  -2.591 126.365  0.00  0.00    +0.000 NA
ATOM      3  C   UNL     1      -8.110  -3.534 127.241  0.00  0.00    +0.000 C 
ATOM      4  C   UNL     1      -6.374  -1.980 127.113  0.00  0.00    +0.000 C 
ATOM      5  C   UNL     1      -6.266  -0.621 126.535  0.00  0.00    +0.000 C 
ATOM      6  C   UNL     1      -7.325  -0.245 125.467  0.00  0.00    +0.000 C 
ATOM      7  C   UNL     1      -6.552   1.141 125.622  0.00  0.00    +0.000 C 
ATOM      8  C   UNL     1      -8.262   0.417 124.447  0.00  0.00    +0.000 A 
ATOM      9  C   UNL     1      -9.063  -0.569 123.879  0.00  0.00    +0.000 A 
ATOM     10  C   UNL     1      -9.793  -0.266 122.744  0.00  0.00    +0.000 A 
ATOM     11  C   UNL     1      -9.780   1.033 122.213  0.00  0.00    +0.000 A 
ATOM     12  C   UNL     1      -9.077   2.062 122.822  0.00  0.00    +0.000 A 
ATOM     13  C   UNL     1      -8.350   1.751 123.949  0.00  0.00    +0.000 A 
ATOM     14  N   UNL     1      -9.007  -1.755 124.575  0.00  0.00    +0.000 N 
ATOM     15  C   UNL     1      -9.394  -3.056 124.079  0.00  0.00    +0.000 C 
ENDROOT
BRANCH  12  16
ATOM     16  O   UNL     1      -8.968   3.409 122.393  0.00  0.00    +0.000 OA
BRANCH  16  17
ATOM     17  C   UNL     1      -8.520   3.683 121.118  0.00  0.00    +0.000 C 
ATOM     18  O   UNL     1      -9.234   3.752 120.114  0.00  0.00    +0.000 OA
ATOM     19  N   UNL     1      -7.171   3.891 121.031  0.00  0.00    +0.000 N 
ATOM     20  C   UNL     1      -6.621   4.203 119.734  0.00  0.00    +0.000 C 
ATOM     21  H   UNL     1      -6.585   3.839 121.856  0.00  0.00    +0.000 HD
ENDBRANCH  16  17
ENDBRANCH  12  16
TORSDOF 2
ENDMDL
MODEL 3
REMARK VINA RESULT:      -6.3      1.990      3.076
REMARK  Name = Physostigmine
REMARK  6 active torsions:
REMARK  status: ('A' for Active; 'I' for Inactive)
REMARK    1  A    between atoms: N_3  and  C_4
REMARK    2  A    between atoms: C_7  and  C_8
REMARK    3  A    between atoms: C_13  and  O_14
REMARK    4  A    between atoms: O_14  and  C_15
REMARK    5  A    between atoms: N_17  and  C_18
REMARK    6  A    between atoms: N_20  and  C_21
REMARK                            x       y       z     vdW  Elec       q    Type
REMARK                         _______ _______ _______ _____ _____    ______ ____
ROOT
ATOM      1  C   UNL     1      -5.512   5.414 132.969  0.00  0.00    +0.000 C 
ATOM      2  N   UNL     1      -4.293   5.695 133.759  0.00  0.00    +0.000 NA
ATOM      3  C   UNL     1      -3.070   5.081 133.261  0.00  0.00    +0.000 C 
ATOM      4  C   UNL     1      -4.527   5.200 135.080  0.00  0.00    +0.000 C 
ATOM      5  C   UNL     1      -6.003   5.193 135.203  0.00  0.00    +0.000 C 
ATOM      6  C   UNL     1      -6.799   5.568 133.926  0.00  0.00    +0.000 C 
ATOM      7  C   UNL     1      -7.986   5.169 134.912  0.00  0.00    +0.000 C 
ATOM      8  C   UNL     1      -7.832   5.834 132.824  0.00  0.00    +0.000 A 
ATOM      9  C   UNL     1      -7.182   6.416 131.740  0.00  0.00    +0.000 A 
ATOM     10  C   UNL     1      -7.939   6.994 130.737  0.00  0.00    +0.000 A 
ATOM     11  C   UNL     1      -9.340   6.936 130.778  0.00  0.00    +0.000 A 
ATOM     12  C   UNL     1     -10.014   6.267 131.790  0.00  0.00    +0.000 A 
ATOM     13  C   UNL     1      -9.253   5.698 132.787  0.00  0.00    +0.000 A 
ATOM     14  N   UNL     1      -5.813   6.313 131.834  0.00  0.00    +0.000 N 
ATOM     15  C   UNL     1      -4.845   7.106 131.111  0.00  0.00    +0.000 C 
ENDROOT
BRANCH  12  16
ATOM     16  O   UNL     1     -11.414   6.139 131.961  0.00  0.00    +0.000 OA
BRANCH  16  17
ATOM     17  C   UNL     1     -12.269   6.838 131.134  0.00  0.00    +0.000 C 
ATOM     18  O   UNL     1     -12.887   7.858 131.449  0.00  0.00    +0.000 OA
ATOM     19  N   UNL     1     -12.390   6.308 129.878  0.00  0.00    +0.000 N 
ATOM     20  C   UNL     1     -13.251   6.988 128.941  0.00  0.00    +0.000 C 
ATOM     21  H   UNL     1     -11.879   5.473 129.617  0.00  0.00    +0.000 HD
ENDBRANCH  16  17
ENDBRANCH  12  16
TORSDOF 2
ENDMDL
MODEL 4
REMARK VINA RESULT:      -6.3      2.733      3.317
REMARK  Name = Physostigmine
REMARK  6 active torsions:
REMARK  status: ('A' for Active; 'I' for Inactive)
REMARK    1  A    between atoms: N_3  and  C_4
REMARK    2  A    between atoms: C_7  and  C_8
REMARK    3  A    between atoms: C_13  and  O_14
REMARK    4  A    between atoms: O_14  and  C_15
REMARK    5  A    between atoms: N_17  and  C_18
REMARK    6  A    between atoms: N_20  and  C_21
REMARK                            x       y       z     vdW  Elec       q    Type
REMARK                         _______ _______ _______ _____ _____    ______ ____
ROOT
ATOM      1  C   UNL     1      -7.519   2.627 132.276  0.00  0.00    +0.000 C 
ATOM      2  N   UNL     1      -7.653   1.372 133.047  0.00  0.00    +0.000 NA
ATOM      3  C   UNL     1      -6.486   0.995 133.834  0.00  0.00    +0.000 C 
ATOM      4  C   UNL     1      -7.904   0.327 132.105  0.00  0.00    +0.000 C 
ATOM      5  C   UNL     1      -8.486   1.029 130.938  0.00  0.00    +0.000 C 
ATOM      6  C   UNL     1      -8.529   2.576 131.021  0.00  0.00    +0.000 C 
ATOM      7  C   UNL     1      -9.059   2.342 129.536  0.00  0.00    +0.000 C 
ATOM      8  C   UNL     1      -8.642   4.090 130.800  0.00  0.00    +0.000 A 
ATOM      9  C   UNL     1      -8.415   4.732 132.014  0.00  0.00    +0.000 A 
ATOM     10  C   UNL     1      -8.729   6.074 132.130  0.00  0.00    +0.000 A 
ATOM     11  C   UNL     1      -9.207   6.793 131.024  0.00  0.00    +0.000 A 
ATOM     12  C   UNL     1      -9.341   6.206 129.774  0.00  0.00    +0.000 A 
ATOM     13  C   UNL     1      -9.029   4.869 129.668  0.00  0.00    +0.000 A 
ATOM     14  N   UNL     1      -7.875   3.890 132.958  0.00  0.00    +0.000 N 
ATOM     15  C   UNL     1      -7.863   4.105 134.387  0.00  0.00    +0.000 C 
ENDROOT
BRANCH  12  16
ATOM     16  O   UNL     1      -9.817   6.805 128.582  0.00  0.00    +0.000 OA
BRANCH  16  17
ATOM     17  C   UNL     1     -11.149   7.147 128.476  0.00  0.00    +0.000 C 
ATOM     18  O   UNL     1     -12.072   6.355 128.270  0.00  0.00    +0.000 OA
ATOM     19  N   UNL     1     -11.398   8.484 128.628  0.00  0.00    +0.000 N 
ATOM     20  C   UNL     1     -12.768   8.927 128.551  0.00  0.00    +0.000 C 
ATOM     21  H   UNL     1     -10.640   9.134 128.802  0.00  0.00    +0.000 HD
ENDBRANCH  16  17
ENDBRANCH  12  16
TORSDOF 2
ENDMDL
MODEL 5
REMARK VINA RESULT:      -6.3      9.368     11.377
REMARK  Name = Physostigmine
REMARK  6 active torsions:
REMARK  status: ('A' for Active; 'I' for Inactive)
REMARK    1  A    between atoms: N_3  and  C_4
REMARK    2  A    between atoms: C_7  and  C_8
REMARK    3  A    between atoms: C_13  and  O_14
REMARK    4  A    between atoms: O_14  and  C_15
REMARK    5  A    between atoms: N_17  and  C_18
REMARK    6  A    between atoms: N_20  and  C_21
REMARK                            x       y       z     vdW  Elec       q    Type
REMARK                         _______ _______ _______ _____ _____    ______ ____
ROOT
ATOM      1  C   UNL     1      -9.111  -0.619 124.918  0.00  0.00    +0.000 C 
ATOM      2  N   UNL     1      -8.921  -0.265 123.495  0.00  0.00    +0.000 NA
ATOM      3  C   UNL     1      -9.852   0.722 122.966  0.00  0.00    +0.000 C 
ATOM      4  C   UNL     1      -9.081  -1.468 122.739  0.00  0.00    +0.000 C 
ATOM      5  C   UNL     1      -8.773  -2.544 123.709  0.00  0.00    +0.000 C 
ATOM      6  C   UNL     1      -8.516  -2.095 125.171  0.00  0.00    +0.000 C 
ATOM      7  C   UNL     1      -8.464  -3.680 125.332  0.00  0.00    +0.000 C 
ATOM      8  C   UNL     1      -8.282  -1.955 126.681  0.00  0.00    +0.000 A 
ATOM      9  C   UNL     1      -8.072  -0.611 126.973  0.00  0.00    +0.000 A 
ATOM     10  C   UNL     1      -7.573  -0.266 128.216  0.00  0.00    +0.000 A 
ATOM     11  C   UNL     1      -7.344  -1.250 129.190  0.00  0.00    +0.000 A 
ATOM     12  C   UNL     1      -7.647  -2.585 128.964  0.00  0.00    +0.000 A 
ATOM     13  C   UNL     1      -8.140  -2.920 127.724  0.00  0.00    +0.000 A 
ATOM     14  N   UNL     1      -8.421   0.212 125.928  0.00  0.00    +0.000 N 
ATOM     15  C   UNL     1      -7.998   1.581 125.741  0.00  0.00    +0.000 C 
ENDROOT
BRANCH  12  16
ATOM     16  O   UNL     1      -7.459  -3.677 129.848  0.00  0.00    +0.000 OA
BRANCH  16  17
ATOM     17  C   UNL     1      -6.250  -3.832 130.493  0.00  0.00    +0.000 C 
ATOM     18  O   UNL     1      -5.178  -4.090 129.941  0.00  0.00    +0.000 OA
ATOM     19  N   UNL     1      -6.314  -3.667 131.850  0.00  0.00    +0.000 N 
ATOM     20  C   UNL     1      -5.090  -3.794 132.602  0.00  0.00    +0.000 C 
ATOM     21  H   UNL     1      -7.194  -3.451 132.304  0.00  0.00    +0.000 HD
ENDBRANCH  16  17
ENDBRANCH  12  16
TORSDOF 2
ENDMDL
MODEL 6
REMARK VINA RESULT:      -6.3      8.498      9.561
REMARK  Name = Physostigmine
REMARK  6 active torsions:
REMARK  status: ('A' for Active; 'I' for Inactive)
REMARK    1  A    between atoms: N_3  and  C_4
REMARK    2  A    between atoms: C_7  and  C_8
REMARK    3  A    between atoms: C_13  and  O_14
REMARK    4  A    between atoms: O_14  and  C_15
REMARK    5  A    between atoms: N_17  and  C_18
REMARK    6  A    between atoms: N_20  and  C_21
REMARK                            x       y       z     vdW  Elec       q    Type
REMARK                         _______ _______ _______ _____ _____    ______ ____
ROOT
ATOM      1  C   UNL     1      -7.838  -1.083 126.151  0.00  0.00    +0.000 C 
ATOM      2  N   UNL     1      -8.297  -2.205 126.998  0.00  0.00    +0.000 NA
ATOM      3  C   UNL     1      -7.307  -2.732 127.928  0.00  0.00    +0.000 C 
ATOM      4  C   UNL     1      -8.680  -3.264 126.118  0.00  0.00    +0.000 C 
ATOM      5  C   UNL     1      -9.001  -2.575 124.847  0.00  0.00    +0.000 C 
ATOM      6  C   UNL     1      -8.725  -1.050 124.806  0.00  0.00    +0.000 C 
ATOM      7  C   UNL     1      -9.164  -1.314 123.297  0.00  0.00    +0.000 C 
ATOM      8  C   UNL     1      -8.500   0.428 124.459  0.00  0.00    +0.000 A 
ATOM      9  C   UNL     1      -8.248   1.125 125.637  0.00  0.00    +0.000 A 
ATOM     10  C   UNL     1      -8.283   2.507 125.617  0.00  0.00    +0.000 A 
ATOM     11  C   UNL     1      -8.504   3.197 124.416  0.00  0.00    +0.000 A 
ATOM     12  C   UNL     1      -8.650   2.531 123.208  0.00  0.00    +0.000 A 
ATOM     13  C   UNL     1      -8.617   1.155 123.237  0.00  0.00    +0.000 A 
ATOM     14  N   UNL     1      -7.979   0.286 126.694  0.00  0.00    +0.000 N 
ATOM     15  C   UNL     1      -8.045   0.630 128.096  0.00  0.00    +0.000 C 
ENDROOT
BRANCH  12  16
ATOM     16  O   UNL     1      -8.886   3.097 121.930  0.00  0.00    +0.000 OA
BRANCH  16  17
ATOM     17  C   UNL     1      -7.822   3.546 121.176  0.00  0.00    +0.000 C 
ATOM     18  O   UNL     1      -6.640   3.517 121.528  0.00  0.00    +0.000 OA
ATOM     19  N   UNL     1      -8.173   4.043 119.951  0.00  0.00    +0.000 N 
ATOM     20  C   UNL     1      -7.118   4.518 119.090  0.00  0.00    +0.000 C 
ATOM     21  H   UNL     1      -9.144   4.062 119.660  0.00  0.00    +0.000 HD
ENDBRANCH  16  17
ENDBRANCH  12  16
TORSDOF 2
ENDMDL
MODEL 7
REMARK VINA RESULT:      -6.3      2.169      3.100
REMARK  Name = Physostigmine
REMARK  6 active torsions:
REMARK  status: ('A' for Active; 'I' for Inactive)
REMARK    1  A    between atoms: N_3  and  C_4
REMARK    2  A    between atoms: C_7  and  C_8
REMARK    3  A    between atoms: C_13  and  O_14
REMARK    4  A    between atoms: O_14  and  C_15
REMARK    5  A    between atoms: N_17  and  C_18
REMARK    6  A    between atoms: N_20  and  C_21
REMARK                            x       y       z     vdW  Elec       q    Type
REMARK                         _______ _______ _______ _____ _____    ______ ____
ROOT
ATOM      1  C   UNL     1      -6.908   3.650 132.113  0.00  0.00    +0.000 C 
ATOM      2  N   UNL     1      -6.200   3.078 133.278  0.00  0.00    +0.000 NA
ATOM      3  C   UNL     1      -4.767   2.883 133.104  0.00  0.00    +0.000 C 
ATOM      4  C   UNL     1      -6.788   1.801 133.539  0.00  0.00    +0.000 C 
ATOM      5  C   UNL     1      -8.144   1.905 132.953  0.00  0.00    +0.000 C 
ATOM      6  C   UNL     1      -8.457   3.211 132.179  0.00  0.00    +0.000 C 
ATOM      7  C   UNL     1      -9.789   2.377 131.908  0.00  0.00    +0.000 C 
ATOM      8  C   UNL     1      -9.020   4.348 131.316  0.00  0.00    +0.000 A 
ATOM      9  C   UNL     1      -8.175   5.448 131.429  0.00  0.00    +0.000 A 
ATOM     10  C   UNL     1      -8.610   6.677 130.966  0.00  0.00    +0.000 A 
ATOM     11  C   UNL     1      -9.856   6.799 130.332  0.00  0.00    +0.000 A 
ATOM     12  C   UNL     1     -10.672   5.700 130.108  0.00  0.00    +0.000 A 
ATOM     13  C   UNL     1     -10.234   4.482 130.576  0.00  0.00    +0.000 A 
ATOM     14  N   UNL     1      -6.969   5.125 132.007  0.00  0.00    +0.000 N 
ATOM     15  C   UNL     1      -6.034   6.048 132.606  0.00  0.00    +0.000 C 
ENDROOT
BRANCH  12  16
ATOM     16  O   UNL     1     -11.949   5.680 129.495  0.00  0.00    +0.000 OA
BRANCH  16  17
ATOM     17  C   UNL     1     -12.298   6.683 128.615  0.00  0.00    +0.000 C 
ATOM     18  O   UNL     1     -12.034   6.694 127.410  0.00  0.00    +0.000 OA
ATOM     19  N   UNL     1     -12.995   7.713 129.186  0.00  0.00    +0.000 N 
ATOM     20  C   UNL     1     -13.416   8.796 128.332  0.00  0.00    +0.000 C 
ATOM     21  H   UNL     1     -13.215   7.701 130.175  0.00  0.00    +0.000 HD
ENDBRANCH  16  17
ENDBRANCH  12  16
TORSDOF 2
ENDMDL
MODEL 8
REMARK VINA RESULT:      -6.1      9.779     11.571
REMARK  Name = Physostigmine
REMARK  6 active torsions:
REMARK  status: ('A' for Active; 'I' for Inactive)
REMARK    1  A    between atoms: N_3  and  C_4
REMARK    2  A    between atoms: C_7  and  C_8
REMARK    3  A    between atoms: C_13  and  O_14
REMARK    4  A    between atoms: O_14  and  C_15
REMARK    5  A    between atoms: N_17  and  C_18
REMARK    6  A    between atoms: N_20  and  C_21
REMARK                            x       y       z     vdW  Elec       q    Type
REMARK                         _______ _______ _______ _____ _____    ______ ____
ROOT
ATOM      1  C   UNL     1      -7.758  -1.557 126.397  0.00  0.00    +0.000 C 
ATOM      2  N   UNL     1      -8.166  -1.581 124.975  0.00  0.00    +0.000 NA
ATOM      3  C   UNL     1      -8.403  -0.277 124.371  0.00  0.00    +0.000 C 
ATOM      4  C   UNL     1      -9.384  -2.326 124.902  0.00  0.00    +0.000 C 
ATOM      5  C   UNL     1      -9.347  -3.190 126.105  0.00  0.00    +0.000 C 
ATOM      6  C   UNL     1      -8.162  -2.960 127.078  0.00  0.00    +0.000 C 
ATOM      7  C   UNL     1      -9.009  -4.040 127.888  0.00  0.00    +0.000 C 
ATOM      8  C   UNL     1      -7.154  -2.914 128.233  0.00  0.00    +0.000 A 
ATOM      9  C   UNL     1      -6.061  -2.150 127.836  0.00  0.00    +0.000 A 
ATOM     10  C   UNL     1      -4.906  -2.187 128.597  0.00  0.00    +0.000 A 
ATOM     11  C   UNL     1      -4.860  -2.931 129.786  0.00  0.00    +0.000 A 
ATOM     12  C   UNL     1      -5.969  -3.614 130.263  0.00  0.00    +0.000 A 
ATOM     13  C   UNL     1      -7.113  -3.575 129.498  0.00  0.00    +0.000 A 
ATOM     14  N   UNL     1      -6.313  -1.431 126.691  0.00  0.00    +0.000 N 
ATOM     15  C   UNL     1      -5.326  -0.848 125.812  0.00  0.00    +0.000 C 
ENDROOT
BRANCH  12  16
ATOM     16  O   UNL     1      -6.060  -4.407 131.434  0.00  0.00    +0.000 OA
BRANCH  16  17
ATOM     17  C   UNL     1      -5.984  -3.804 132.673  0.00  0.00    +0.000 C 
ATOM     18  O   UNL     1      -4.973  -3.755 133.377  0.00  0.00    +0.000 OA
ATOM     19  N   UNL     1      -7.154  -3.230 133.090  0.00  0.00    +0.000 N 
ATOM     20  C   UNL     1      -7.157  -2.561 134.367  0.00  0.00    +0.000 C 
ATOM     21  H   UNL     1      -7.983  -3.266 132.509  0.00  0.00    +0.000 HD
ENDBRANCH  16  17
ENDBRANCH  12  16
TORSDOF 2
ENDMDL
MODEL 9
REMARK VINA RESULT:      -6.1      2.341      2.708
REMARK  Name = Physostigmine
REMARK  6 active torsions:
REMARK  status: ('A' for Active; 'I' for Inactive)
REMARK    1  A    between atoms: N_3  and  C_4
REMARK    2  A    between atoms: C_7  and  C_8
REMARK    3  A    between atoms: C_13  and  O_14
REMARK    4  A    between atoms: O_14  and  C_15
REMARK    5  A    between atoms: N_17  and  C_18
REMARK    6  A    between atoms: N_20  and  C_21
REMARK                            x       y       z     vdW  Elec       q    Type
REMARK                         _______ _______ _______ _____ _____    ______ ____
ROOT
ATOM      1  C   UNL     1      -6.547   4.427 131.783  0.00  0.00    +0.000 C 
ATOM      2  N   UNL     1      -5.100   4.444 131.479  0.00  0.00    +0.000 NA
ATOM      3  C   UNL     1      -4.253   3.743 132.435  0.00  0.00    +0.000 C 
ATOM      4  C   UNL     1      -4.693   5.814 131.455  0.00  0.00    +0.000 C 
ATOM      5  C   UNL     1      -5.941   6.552 131.154  0.00  0.00    +0.000 C 
ATOM      6  C   UNL     1      -7.239   5.706 131.089  0.00  0.00    +0.000 C 
ATOM      7  C   UNL     1      -7.831   7.176 130.914  0.00  0.00    +0.000 C 
ATOM      8  C   UNL     1      -8.666   5.147 131.024  0.00  0.00    +0.000 A 
ATOM      9  C   UNL     1      -8.593   3.758 130.965  0.00  0.00    +0.000 A 
ATOM     10  C   UNL     1      -9.728   3.043 130.628  0.00  0.00    +0.000 A 
ATOM     11  C   UNL     1     -10.949   3.701 130.414  0.00  0.00    +0.000 A 
ATOM     12  C   UNL     1     -11.075   5.073 130.573  0.00  0.00    +0.000 A 
ATOM     13  C   UNL     1      -9.940   5.778 130.905  0.00  0.00    +0.000 A 
ATOM     14  N   UNL     1      -7.339   3.286 131.275  0.00  0.00    +0.000 N 
ATOM     15  C   UNL     1      -6.816   1.977 130.958  0.00  0.00    +0.000 C 
ENDROOT
BRANCH  12  16
ATOM     16  O   UNL     1     -12.235   5.864 130.382  0.00  0.00    +0.000 OA
BRANCH  16  17
ATOM     17  C   UNL     1     -12.306   6.720 129.302  0.00  0.00    +0.000 C 
ATOM     18  O   UNL     1     -12.072   6.408 128.132  0.00  0.00    +0.000 OA
ATOM     19  N   UNL     1     -12.677   7.997 129.623  0.00  0.00    +0.000 N 
ATOM     20  C   UNL     1     -12.794   8.953 128.550  0.00  0.00    +0.000 C 
ATOM     21  H   UNL     1     -12.874   8.252 130.584  0.00  0.00    +0.000 HD
ENDBRANCH  16  17
ENDBRANCH  12  16
TORSDOF 2
ENDMDL
