MODEL 1
REMARK VINA RESULT:      -7.9      0.000      0.000
REMARK  Name = Picosulfuric acid
REMARK  9 active torsions:
REMARK  status: ('A' for Active; 'I' for Inactive)
REMARK    1  A    between atoms: O_1  and  S_2
REMARK    2  A    between atoms: S_2  and  O_5
REMARK    3  A    between atoms: O_5  and  C_6
REMARK    4  A    between atoms: C_9  and  C_12
REMARK    5  A    between atoms: C_12  and  C_13
REMARK    6  A    between atoms: C_12  and  C_24
REMARK    7  A    between atoms: C_16  and  O_17
REMARK    8  A    between atoms: O_17  and  S_18
REMARK    9  A    between atoms: S_18  and  O_19
REMARK                            x       y       z     vdW  Elec       q    Type
REMARK                         _______ _______ _______ _____ _____    ______ ____
ROOT
ATOM      1  C   UNL     1      -8.314  -1.829 124.966  0.00  0.00    +0.000 C 
ENDROOT
BRANCH   1   5
ATOM      2  C   UNL     1      -7.938  -2.702 129.226  0.00  0.00    +0.000 A 
ATOM      3  C   UNL     1      -7.416  -1.516 128.701  0.00  0.00    +0.000 A 
ATOM      4  C   UNL     1      -7.630  -1.182 127.353  0.00  0.00    +0.000 A 
ATOM      5  C   UNL     1      -8.280  -2.080 126.491  0.00  0.00    +0.000 A 
ATOM      6  C   UNL     1      -8.788  -3.261 127.050  0.00  0.00    +0.000 A 
ATOM      7  C   UNL     1      -8.655  -3.549 128.397  0.00  0.00    +0.000 A 
BRANCH   2   8
ATOM      8  O   UNL     1      -7.781  -2.964 130.564  0.00  0.00    +0.000 OA
BRANCH   8   9
ATOM      9  S   UNL     1      -6.324  -3.431 131.146  0.00  0.00    +0.000 S 
ATOM     10  O   UNL     1      -5.452  -2.280 131.230  0.00  0.00    +0.000 OA
ATOM     11  O   UNL     1      -5.875  -4.655 130.516  0.00  0.00    +0.000 OA
BRANCH   9  12
ATOM     12  O   UNL     1      -6.638  -3.856 132.669  0.00  0.00    +0.000 OA
ATOM     13  H   UNL     1      -5.789  -4.148 133.061  0.00  0.00    +0.000 HD
ENDBRANCH   9  12
ENDBRANCH   8   9
ENDBRANCH   2   8
ENDBRANCH   1   5
BRANCH   1  14
ATOM     14  C   UNL     1      -8.327  -0.312 124.700  0.00  0.00    +0.000 A 
ATOM     15  C   UNL     1      -7.162   0.461 124.656  0.00  0.00    +0.000 A 
ATOM     16  C   UNL     1      -7.257   1.862 124.673  0.00  0.00    +0.000 A 
ATOM     17  C   UNL     1      -8.509   2.495 124.664  0.00  0.00    +0.000 A 
ATOM     18  C   UNL     1      -9.657   1.715 124.706  0.00  0.00    +0.000 A 
ATOM     19  C   UNL     1      -9.570   0.337 124.670  0.00  0.00    +0.000 A 
BRANCH  17  20
ATOM     20  O   UNL     1      -8.531   3.868 124.598  0.00  0.00    +0.000 OA
BRANCH  20  21
ATOM     21  S   UNL     1      -8.084   4.827 125.849  0.00  0.00    +0.000 S 
ATOM     22  O   UNL     1      -8.247   4.104 127.089  0.00  0.00    +0.000 OA
ATOM     23  O   UNL     1      -6.811   5.440 125.519  0.00  0.00    +0.000 OA
BRANCH  21  24
ATOM     24  O   UNL     1      -9.171   6.030 125.862  0.00  0.00    +0.000 OA
ATOM     25  H   UNL     1      -9.280   6.424 124.977  0.00  0.00    +0.000 HD
ENDBRANCH  21  24
ENDBRANCH  20  21
ENDBRANCH  17  20
ENDBRANCH   1  14
BRANCH   1  26
ATOM     26  C   UNL     1      -7.133  -2.492 124.200  0.00  0.00    +0.000 A 
ATOM     27  C   UNL     1      -6.206  -3.287 124.872  0.00  0.00    +0.000 A 
ATOM     28  C   UNL     1      -4.995  -3.582 124.244  0.00  0.00    +0.000 A 
ATOM     29  C   UNL     1      -4.765  -3.147 122.942  0.00  0.00    +0.000 A 
ATOM     30  C   UNL     1      -5.759  -2.433 122.311  0.00  0.00    +0.000 A 
ATOM     31  N   UNL     1      -6.914  -2.108 122.911  0.00  0.00    +0.000 NA
ENDBRANCH   1  26
TORSDOF 9
ENDMDL
MODEL 2
REMARK VINA RESULT:      -7.8      4.410      6.986
REMARK  Name = Picosulfuric acid
REMARK  9 active torsions:
REMARK  status: ('A' for Active; 'I' for Inactive)
REMARK    1  A    between atoms: O_1  and  S_2
REMARK    2  A    between atoms: S_2  and  O_5
REMARK    3  A    between atoms: O_5  and  C_6
REMARK    4  A    between atoms: C_9  and  C_12
REMARK    5  A    between atoms: C_12  and  C_13
REMARK    6  A    between atoms: C_12  and  C_24
REMARK    7  A    between atoms: C_16  and  O_17
REMARK    8  A    between atoms: O_17  and  S_18
REMARK    9  A    between atoms: S_18  and  O_19
REMARK                            x       y       z     vdW  Elec       q    Type
REMARK                         _______ _______ _______ _____ _____    ______ ____
ROOT
ATOM      1  C   UNL     1      -7.804  -2.466 130.345  0.00  0.00    +0.000 C 
ENDROOT
BRANCH   1   5
ATOM      2  C   UNL     1      -7.722   1.891 130.597  0.00  0.00    +0.000 A 
ATOM      3  C   UNL     1      -8.815   1.176 131.096  0.00  0.00    +0.000 A 
ATOM      4  C   UNL     1      -8.797  -0.228 131.114  0.00  0.00    +0.000 A 
ATOM      5  C   UNL     1      -7.727  -0.935 130.539  0.00  0.00    +0.000 A 
ATOM      6  C   UNL     1      -6.650  -0.186 130.046  0.00  0.00    +0.000 A 
ATOM      7  C   UNL     1      -6.629   1.196 130.109  0.00  0.00    +0.000 A 
BRANCH   2   8
ATOM      8  O   UNL     1      -7.735   3.262 130.665  0.00  0.00    +0.000 OA
BRANCH   8   9
ATOM      9  S   UNL     1      -8.572   4.132 129.560  0.00  0.00    +0.000 S 
ATOM     10  O   UNL     1      -7.840   5.342 129.252  0.00  0.00    +0.000 OA
ATOM     11  O   UNL     1      -9.981   4.184 129.889  0.00  0.00    +0.000 OA
BRANCH   9  12
ATOM     12  O   UNL     1      -8.504   3.228 128.228  0.00  0.00    +0.000 OA
ATOM     13  H   UNL     1      -7.954   3.717 127.582  0.00  0.00    +0.000 HD
ENDBRANCH   9  12
ENDBRANCH   8   9
ENDBRANCH   2   8
ENDBRANCH   1   5
BRANCH   1  14
ATOM     14  C   UNL     1      -7.715  -2.795 128.843  0.00  0.00    +0.000 A 
ATOM     15  C   UNL     1      -6.772  -2.210 127.992  0.00  0.00    +0.000 A 
ATOM     16  C   UNL     1      -6.910  -2.348 126.601  0.00  0.00    +0.000 A 
ATOM     17  C   UNL     1      -7.946  -3.123 126.058  0.00  0.00    +0.000 A 
ATOM     18  C   UNL     1      -8.875  -3.698 126.915  0.00  0.00    +0.000 A 
ATOM     19  C   UNL     1      -8.733  -3.582 128.284  0.00  0.00    +0.000 A 
BRANCH  17  20
ATOM     20  O   UNL     1      -7.977  -3.283 124.693  0.00  0.00    +0.000 OA
BRANCH  20  21
ATOM     21  S   UNL     1      -8.957  -2.407 123.715  0.00  0.00    +0.000 S 
ATOM     22  O   UNL     1      -9.523  -1.310 124.463  0.00  0.00    +0.000 OA
ATOM     23  O   UNL     1      -8.252  -2.162 122.469  0.00  0.00    +0.000 OA
BRANCH  21  24
ATOM     24  O   UNL     1     -10.181  -3.406 123.348  0.00  0.00    +0.000 OA
ATOM     25  H   UNL     1     -10.807  -3.493 124.091  0.00  0.00    +0.000 HD
ENDBRANCH  21  24
ENDBRANCH  20  21
ENDBRANCH  17  20
ENDBRANCH   1  14
BRANCH   1  26
ATOM     26  C   UNL     1      -6.706  -3.248 131.124  0.00  0.00    +0.000 A 
ATOM     27  C   UNL     1      -6.041  -4.320 130.532  0.00  0.00    +0.000 A 
ATOM     28  C   UNL     1      -5.325  -5.197 131.347  0.00  0.00    +0.000 A 
ATOM     29  C   UNL     1      -5.222  -4.948 132.713  0.00  0.00    +0.000 A 
ATOM     30  C   UNL     1      -5.840  -3.825 133.215  0.00  0.00    +0.000 A 
ATOM     31  N   UNL     1      -6.565  -2.991 132.454  0.00  0.00    +0.000 NA
ENDBRANCH   1  26
TORSDOF 9
ENDMDL
MODEL 3
REMARK VINA RESULT:      -7.8      4.328      8.917
REMARK  Name = Picosulfuric acid
REMARK  9 active torsions:
REMARK  status: ('A' for Active; 'I' for Inactive)
REMARK    1  A    between atoms: O_1  and  S_2
REMARK    2  A    between atoms: S_2  and  O_5
REMARK    3  A    between atoms: O_5  and  C_6
REMARK    4  A    between atoms: C_9  and  C_12
REMARK    5  A    between atoms: C_12  and  C_13
REMARK    6  A    between atoms: C_12  and  C_24
REMARK    7  A    between atoms: C_16  and  O_17
REMARK    8  A    between atoms: O_17  and  S_18
REMARK    9  A    between atoms: S_18  and  O_19
REMARK                            x       y       z     vdW  Elec       q    Type
REMARK                         _______ _______ _______ _____ _____    ______ ____
ROOT
ATOM      1  C   UNL     1      -7.900  -2.171 130.233  0.00  0.00    +0.000 C 
ENDROOT
BRANCH   1   5
ATOM      2  C   UNL     1      -7.911  -3.005 125.948  0.00  0.00    +0.000 A 
ATOM      3  C   UNL     1      -6.993  -2.099 126.488  0.00  0.00    +0.000 A 
ATOM      4  C   UNL     1      -6.915  -1.910 127.878  0.00  0.00    +0.000 A 
ATOM      5  C   UNL     1      -7.826  -2.549 128.736  0.00  0.00    +0.000 A 
ATOM      6  C   UNL     1      -8.734  -3.448 128.161  0.00  0.00    +0.000 A 
ATOM      7  C   UNL     1      -8.752  -3.701 126.801  0.00  0.00    +0.000 A 
BRANCH   2   8
ATOM      8  O   UNL     1      -7.910  -3.227 124.594  0.00  0.00    +0.000 OA
BRANCH   8   9
ATOM      9  S   UNL     1      -8.921  -2.383 123.621  0.00  0.00    +0.000 S 
ATOM     10  O   UNL     1      -8.283  -2.172 122.339  0.00  0.00    +0.000 OA
ATOM     11  O   UNL     1      -9.537  -1.282 124.331  0.00  0.00    +0.000 OA
BRANCH   9  12
ATOM     12  O   UNL     1     -10.132  -3.409 123.344  0.00  0.00    +0.000 OA
ATOM     13  H   UNL     1      -9.727  -4.247 123.038  0.00  0.00    +0.000 HD
ENDBRANCH   9  12
ENDBRANCH   8   9
ENDBRANCH   2   8
ENDBRANCH   1   5
BRANCH   1  14
ATOM     14  C   UNL     1      -7.120  -3.209 131.061  0.00  0.00    +0.000 A 
ATOM     15  C   UNL     1      -7.118  -3.219 132.459  0.00  0.00    +0.000 A 
ATOM     16  C   UNL     1      -6.187  -4.015 133.147  0.00  0.00    +0.000 A 
ATOM     17  C   UNL     1      -5.305  -4.852 132.448  0.00  0.00    +0.000 A 
ATOM     18  C   UNL     1      -5.319  -4.832 131.060  0.00  0.00    +0.000 A 
ATOM     19  C   UNL     1      -6.244  -4.066 130.378  0.00  0.00    +0.000 A 
BRANCH  17  20
ATOM     20  O   UNL     1      -4.476  -5.665 133.183  0.00  0.00    +0.000 OA
BRANCH  20  21
ATOM     21  S   UNL     1      -3.122  -5.118 133.927  0.00  0.00    +0.000 S 
ATOM     22  O   UNL     1      -2.570  -4.020 133.169  0.00  0.00    +0.000 OA
ATOM     23  O   UNL     1      -3.412  -4.963 135.341  0.00  0.00    +0.000 OA
BRANCH  21  24
ATOM     24  O   UNL     1      -2.063  -6.342 133.817  0.00  0.00    +0.000 OA
ATOM     25  H   UNL     1      -2.494  -7.203 133.973  0.00  0.00    +0.000 HD
ENDBRANCH  21  24
ENDBRANCH  20  21
ENDBRANCH  17  20
ENDBRANCH   1  14
BRANCH   1  26
ATOM     26  C   UNL     1      -7.370  -0.740 130.541  0.00  0.00    +0.000 A 
ATOM     27  C   UNL     1      -8.221   0.362 130.483  0.00  0.00    +0.000 A 
ATOM     28  C   UNL     1      -7.661   1.639 130.428  0.00  0.00    +0.000 A 
ATOM     29  C   UNL     1      -6.281   1.796 130.509  0.00  0.00    +0.000 A 
ATOM     30  C   UNL     1      -5.507   0.666 130.645  0.00  0.00    +0.000 A 
ATOM     31  N   UNL     1      -6.023  -0.573 130.662  0.00  0.00    +0.000 NA
ENDBRANCH   1  26
TORSDOF 9
ENDMDL
MODEL 4
REMARK VINA RESULT:      -7.7      4.474      6.876
REMARK  Name = Picosulfuric acid
REMARK  9 active torsions:
REMARK  status: ('A' for Active; 'I' for Inactive)
REMARK    1  A    between atoms: O_1  and  S_2
REMARK    2  A    between atoms: S_2  and  O_5
REMARK    3  A    between atoms: O_5  and  C_6
REMARK    4  A    between atoms: C_9  and  C_12
REMARK    5  A    between atoms: C_12  and  C_13
REMARK    6  A    between atoms: C_12  and  C_24
REMARK    7  A    between atoms: C_16  and  O_17
REMARK    8  A    between atoms: O_17  and  S_18
REMARK    9  A    between atoms: S_18  and  O_19
REMARK                            x       y       z     vdW  Elec       q    Type
REMARK                         _______ _______ _______ _____ _____    ______ ____
ROOT
ATOM      1  C   UNL     1      -7.602  -2.481 130.265  0.00  0.00    +0.000 C 
ENDROOT
BRANCH   1   5
ATOM      2  C   UNL     1      -8.463   1.728 131.035  0.00  0.00    +0.000 A 
ATOM      3  C   UNL     1      -7.940   1.330 129.801  0.00  0.00    +0.000 A 
ATOM      4  C   UNL     1      -7.764  -0.033 129.511  0.00  0.00    +0.000 A 
ATOM      5  C   UNL     1      -8.012  -1.008 130.492  0.00  0.00    +0.000 A 
ATOM      6  C   UNL     1      -8.532  -0.573 131.718  0.00  0.00    +0.000 A 
ATOM      7  C   UNL     1      -8.789   0.763 131.972  0.00  0.00    +0.000 A 
BRANCH   2   8
ATOM      8  O   UNL     1      -8.697   3.062 131.260  0.00  0.00    +0.000 OA
BRANCH   8   9
ATOM      9  S   UNL     1      -9.994   3.796 130.580  0.00  0.00    +0.000 S 
ATOM     10  O   UNL     1     -11.103   2.868 130.545  0.00  0.00    +0.000 OA
ATOM     11  O   UNL     1      -9.615   4.542 129.398  0.00  0.00    +0.000 OA
BRANCH   9  12
ATOM     12  O   UNL     1     -10.401   4.926 131.654  0.00  0.00    +0.000 OA
ATOM     13  H   UNL     1     -10.555   4.464 132.505  0.00  0.00    +0.000 HD
ENDBRANCH   9  12
ENDBRANCH   8   9
ENDBRANCH   2   8
ENDBRANCH   1   5
BRANCH   1  14
ATOM     14  C   UNL     1      -7.558  -2.771 128.753  0.00  0.00    +0.000 A 
ATOM     15  C   UNL     1      -6.571  -2.251 127.909  0.00  0.00    +0.000 A 
ATOM     16  C   UNL     1      -6.734  -2.333 126.516  0.00  0.00    +0.000 A 
ATOM     17  C   UNL     1      -7.843  -2.991 125.963  0.00  0.00    +0.000 A 
ATOM     18  C   UNL     1      -8.814  -3.503 126.813  0.00  0.00    +0.000 A 
ATOM     19  C   UNL     1      -8.649  -3.443 128.183  0.00  0.00    +0.000 A 
BRANCH  17  20
ATOM     20  O   UNL     1      -7.900  -3.107 124.595  0.00  0.00    +0.000 OA
BRANCH  20  21
ATOM     21  S   UNL     1      -8.929  -2.229 123.668  0.00  0.00    +0.000 S 
ATOM     22  O   UNL     1      -9.465  -1.139 124.450  0.00  0.00    +0.000 OA
ATOM     23  O   UNL     1      -8.284  -1.971 122.394  0.00  0.00    +0.000 OA
BRANCH  21  24
ATOM     24  O   UNL     1     -10.164  -3.231 123.352  0.00  0.00    +0.000 OA
ATOM     25  H   UNL     1     -11.016  -2.847 123.627  0.00  0.00    +0.000 HD
ENDBRANCH  21  24
ENDBRANCH  20  21
ENDBRANCH  17  20
ENDBRANCH   1  14
BRANCH   1  26
ATOM     26  C   UNL     1      -6.238  -2.855 130.917  0.00  0.00    +0.000 A 
ATOM     27  C   UNL     1      -5.921  -4.185 131.188  0.00  0.00    +0.000 A 
ATOM     28  C   UNL     1      -4.867  -4.457 132.062  0.00  0.00    +0.000 A 
ATOM     29  C   UNL     1      -4.109  -3.412 132.582  0.00  0.00    +0.000 A 
ATOM     30  C   UNL     1      -4.431  -2.128 132.206  0.00  0.00    +0.000 A 
ATOM     31  N   UNL     1      -5.464  -1.843 131.398  0.00  0.00    +0.000 NA
ENDBRANCH   1  26
TORSDOF 9
ENDMDL
MODEL 5
REMARK VINA RESULT:      -7.6      4.473      6.717
REMARK  Name = Picosulfuric acid
REMARK  9 active torsions:
REMARK  status: ('A' for Active; 'I' for Inactive)
REMARK    1  A    between atoms: O_1  and  S_2
REMARK    2  A    between atoms: S_2  and  O_5
REMARK    3  A    between atoms: O_5  and  C_6
REMARK    4  A    between atoms: C_9  and  C_12
REMARK    5  A    between atoms: C_12  and  C_13
REMARK    6  A    between atoms: C_12  and  C_24
REMARK    7  A    between atoms: C_16  and  O_17
REMARK    8  A    between atoms: O_17  and  S_18
REMARK    9  A    between atoms: S_18  and  O_19
REMARK                            x       y       z     vdW  Elec       q    Type
REMARK                         _______ _______ _______ _____ _____    ______ ____
ROOT
ATOM      1  C   UNL     1      -6.552  -1.983 130.262  0.00  0.00    +0.000 C 
ENDROOT
BRANCH   1   5
ATOM      2  C   UNL     1      -8.990  -2.946 126.772  0.00  0.00    +0.000 A 
ATOM      3  C   UNL     1      -8.209  -1.787 126.788  0.00  0.00    +0.000 A 
ATOM      4  C   UNL     1      -7.342  -1.530 127.863  0.00  0.00    +0.000 A 
ATOM      5  C   UNL     1      -7.323  -2.379 128.982  0.00  0.00    +0.000 A 
ATOM      6  C   UNL     1      -8.121  -3.530 128.933  0.00  0.00    +0.000 A 
ATOM      7  C   UNL     1      -8.909  -3.829 127.835  0.00  0.00    +0.000 A 
BRANCH   2   8
ATOM      8  O   UNL     1      -9.769  -3.209 125.672  0.00  0.00    +0.000 OA
BRANCH   8   9
ATOM      9  S   UNL     1      -9.211  -2.875 124.169  0.00  0.00    +0.000 S 
ATOM     10  O   UNL     1      -7.949  -3.553 123.968  0.00  0.00    +0.000 OA
ATOM     11  O   UNL     1      -9.354  -1.468 123.857  0.00  0.00    +0.000 OA
BRANCH   9  12
ATOM     12  O   UNL     1     -10.265  -3.611 123.198  0.00  0.00    +0.000 OA
ATOM     13  H   UNL     1     -10.448  -4.489 123.593  0.00  0.00    +0.000 HD
ENDBRANCH   9  12
ENDBRANCH   8   9
ENDBRANCH   2   8
ENDBRANCH   1   5
BRANCH   1  14
ATOM     14  C   UNL     1      -7.159  -0.694 130.845  0.00  0.00    +0.000 A 
ATOM     15  C   UNL     1      -8.520  -0.559 131.136  0.00  0.00    +0.000 A 
ATOM     16  C   UNL     1      -9.049   0.713 131.413  0.00  0.00    +0.000 A 
ATOM     17  C   UNL     1      -8.214   1.839 131.467  0.00  0.00    +0.000 A 
ATOM     18  C   UNL     1      -6.865   1.690 131.176  0.00  0.00    +0.000 A 
ATOM     19  C   UNL     1      -6.335   0.440 130.924  0.00  0.00    +0.000 A 
BRANCH  17  20
ATOM     20  O   UNL     1      -8.782   3.039 131.823  0.00  0.00    +0.000 OA
BRANCH  20  21
ATOM     21  S   UNL     1      -9.617   3.977 130.770  0.00  0.00    +0.000 S 
ATOM     22  O   UNL     1      -9.620   5.341 131.243  0.00  0.00    +0.000 OA
ATOM     23  O   UNL     1      -9.163   3.666 129.426  0.00  0.00    +0.000 OA
BRANCH  21  24
ATOM     24  O   UNL     1     -11.146   3.446 130.860  0.00  0.00    +0.000 OA
ATOM     25  H   UNL     1     -11.325   2.755 130.196  0.00  0.00    +0.000 HD
ENDBRANCH  21  24
ENDBRANCH  20  21
ENDBRANCH  17  20
ENDBRANCH   1  14
BRANCH   1  26
ATOM     26  C   UNL     1      -6.536  -3.099 131.348  0.00  0.00    +0.000 A 
ATOM     27  C   UNL     1      -7.257  -2.951 132.531  0.00  0.00    +0.000 A 
ATOM     28  C   UNL     1      -6.960  -3.789 133.606  0.00  0.00    +0.000 A 
ATOM     29  C   UNL     1      -6.014  -4.799 133.459  0.00  0.00    +0.000 A 
ATOM     30  C   UNL     1      -5.398  -4.936 132.235  0.00  0.00    +0.000 A 
ATOM     31  N   UNL     1      -5.642  -4.117 131.201  0.00  0.00    +0.000 NA
ENDBRANCH   1  26
TORSDOF 9
ENDMDL
MODEL 6
REMARK VINA RESULT:      -7.4      4.940      7.532
REMARK  Name = Picosulfuric acid
REMARK  9 active torsions:
REMARK  status: ('A' for Active; 'I' for Inactive)
REMARK    1  A    between atoms: O_1  and  S_2
REMARK    2  A    between atoms: S_2  and  O_5
REMARK    3  A    between atoms: O_5  and  C_6
REMARK    4  A    between atoms: C_9  and  C_12
REMARK    5  A    between atoms: C_12  and  C_13
REMARK    6  A    between atoms: C_12  and  C_24
REMARK    7  A    between atoms: C_16  and  O_17
REMARK    8  A    between atoms: O_17  and  S_18
REMARK    9  A    between atoms: S_18  and  O_19
REMARK                            x       y       z     vdW  Elec       q    Type
REMARK                         _______ _______ _______ _____ _____    ______ ____
ROOT
ATOM      1  C   UNL     1      -6.814   1.767 128.758  0.00  0.00    +0.000 C 
ENDROOT
BRANCH   1   5
ATOM      2  C   UNL     1      -9.611   4.484 130.721  0.00  0.00    +0.000 A 
ATOM      3  C   UNL     1      -8.602   4.987 129.894  0.00  0.00    +0.000 A 
ATOM      4  C   UNL     1      -7.770   4.112 129.176  0.00  0.00    +0.000 A 
ATOM      5  C   UNL     1      -7.871   2.723 129.358  0.00  0.00    +0.000 A 
ATOM      6  C   UNL     1      -8.890   2.253 130.197  0.00  0.00    +0.000 A 
ATOM      7  C   UNL     1      -9.767   3.113 130.835  0.00  0.00    +0.000 A 
BRANCH   2   8
ATOM      8  O   UNL     1     -10.458   5.363 131.348  0.00  0.00    +0.000 OA
BRANCH   8   9
ATOM      9  S   UNL     1     -11.632   6.123 130.497  0.00  0.00    +0.000 S 
ATOM     10  O   UNL     1     -12.663   6.574 131.406  0.00  0.00    +0.000 OA
ATOM     11  O   UNL     1     -11.972   5.387 129.297  0.00  0.00    +0.000 OA
BRANCH   9  12
ATOM     12  O   UNL     1     -10.910   7.459 129.957  0.00  0.00    +0.000 OA
ATOM     13  H   UNL     1     -11.621   8.092 129.728  0.00  0.00    +0.000 HD
ENDBRANCH   9  12
ENDBRANCH   8   9
ENDBRANCH   2   8
ENDBRANCH   1   5
BRANCH   1  14
ATOM     14  C   UNL     1      -7.488   0.848 127.723  0.00  0.00    +0.000 A 
ATOM     15  C   UNL     1      -8.503   1.284 126.866  0.00  0.00    +0.000 A 
ATOM     16  C   UNL     1      -9.251   0.344 126.138  0.00  0.00    +0.000 A 
ATOM     17  C   UNL     1      -8.946  -1.024 126.209  0.00  0.00    +0.000 A 
ATOM     18  C   UNL     1      -7.935  -1.442 127.064  0.00  0.00    +0.000 A 
ATOM     19  C   UNL     1      -7.183  -0.521 127.766  0.00  0.00    +0.000 A 
BRANCH  17  20
ATOM     20  O   UNL     1      -9.663  -1.882 125.410  0.00  0.00    +0.000 OA
BRANCH  20  21
ATOM     21  S   UNL     1      -8.973  -2.786 124.230  0.00  0.00    +0.000 S 
ATOM     22  O   UNL     1      -8.197  -1.930 123.363  0.00  0.00    +0.000 OA
ATOM     23  O   UNL     1      -8.367  -3.951 124.846  0.00  0.00    +0.000 OA
BRANCH  21  24
ATOM     24  O   UNL     1     -10.217  -3.340 123.349  0.00  0.00    +0.000 OA
ATOM     25  H   UNL     1     -10.132  -4.295 123.171  0.00  0.00    +0.000 HD
ENDBRANCH  21  24
ENDBRANCH  20  21
ENDBRANCH  17  20
ENDBRANCH   1  14
BRANCH   1  26
ATOM     26  C   UNL     1      -5.608   2.505 128.105  0.00  0.00    +0.000 A 
ATOM     27  C   UNL     1      -5.494   2.594 126.719  0.00  0.00    +0.000 A 
ATOM     28  C   UNL     1      -4.262   2.951 126.170  0.00  0.00    +0.000 A 
ATOM     29  C   UNL     1      -3.200   3.283 127.005  0.00  0.00    +0.000 A 
ATOM     30  C   UNL     1      -3.409   3.249 128.365  0.00  0.00    +0.000 A 
ATOM     31  N   UNL     1      -4.574   2.872 128.913  0.00  0.00    +0.000 NA
ENDBRANCH   1  26
TORSDOF 9
ENDMDL
MODEL 7
REMARK VINA RESULT:      -7.4      1.767      2.605
REMARK  Name = Picosulfuric acid
REMARK  9 active torsions:
REMARK  status: ('A' for Active; 'I' for Inactive)
REMARK    1  A    between atoms: O_1  and  S_2
REMARK    2  A    between atoms: S_2  and  O_5
REMARK    3  A    between atoms: O_5  and  C_6
REMARK    4  A    between atoms: C_9  and  C_12
REMARK    5  A    between atoms: C_12  and  C_13
REMARK    6  A    between atoms: C_12  and  C_24
REMARK    7  A    between atoms: C_16  and  O_17
REMARK    8  A    between atoms: O_17  and  S_18
REMARK    9  A    between atoms: S_18  and  O_19
REMARK                            x       y       z     vdW  Elec       q    Type
REMARK                         _______ _______ _______ _____ _____    ______ ____
ROOT
ATOM      1  C   UNL     1      -7.414  -1.781 126.760  0.00  0.00    +0.000 C 
ENDROOT
BRANCH   1   5
ATOM      2  C   UNL     1      -5.319  -3.561 130.151  0.00  0.00    +0.000 A 
ATOM      3  C   UNL     1      -6.682  -3.803 129.958  0.00  0.00    +0.000 A 
ATOM      4  C   UNL     1      -7.335  -3.322 128.811  0.00  0.00    +0.000 A 
ATOM      5  C   UNL     1      -6.653  -2.504 127.894  0.00  0.00    +0.000 A 
ATOM      6  C   UNL     1      -5.288  -2.279 128.120  0.00  0.00    +0.000 A 
ATOM      7  C   UNL     1      -4.625  -2.827 129.204  0.00  0.00    +0.000 A 
BRANCH   2   8
ATOM      8  O   UNL     1      -4.692  -4.110 131.241  0.00  0.00    +0.000 OA
BRANCH   8   9
ATOM      9  S   UNL     1      -4.281  -3.169 132.516  0.00  0.00    +0.000 S 
ATOM     10  O   UNL     1      -5.250  -2.103 132.653  0.00  0.00    +0.000 OA
ATOM     11  O   UNL     1      -2.861  -2.885 132.523  0.00  0.00    +0.000 OA
BRANCH   9  12
ATOM     12  O   UNL     1      -4.505  -4.131 133.790  0.00  0.00    +0.000 OA
ATOM     13  H   UNL     1      -5.227  -3.734 134.320  0.00  0.00    +0.000 HD
ENDBRANCH   9  12
ENDBRANCH   8   9
ENDBRANCH   2   8
ENDBRANCH   1   5
BRANCH   1  14
ATOM     14  C   UNL     1      -7.281  -0.259 126.946  0.00  0.00    +0.000 A 
ATOM     15  C   UNL     1      -8.160   0.491 127.733  0.00  0.00    +0.000 A 
ATOM     16  C   UNL     1      -8.144   1.893 127.651  0.00  0.00    +0.000 A 
ATOM     17  C   UNL     1      -7.210   2.552 126.838  0.00  0.00    +0.000 A 
ATOM     18  C   UNL     1      -6.343   1.795 126.062  0.00  0.00    +0.000 A 
ATOM     19  C   UNL     1      -6.340   0.417 126.154  0.00  0.00    +0.000 A 
BRANCH  17  20
ATOM     20  O   UNL     1      -7.195   3.926 126.865  0.00  0.00    +0.000 OA
BRANCH  20  21
ATOM     21  S   UNL     1      -8.090   4.847 125.847  0.00  0.00    +0.000 S 
ATOM     22  O   UNL     1      -8.723   3.999 124.865  0.00  0.00    +0.000 OA
ATOM     23  O   UNL     1      -8.883   5.765 126.645  0.00  0.00    +0.000 OA
BRANCH  21  24
ATOM     24  O   UNL     1      -7.011   5.760 125.053  0.00  0.00    +0.000 OA
ATOM     25  H   UNL     1      -6.818   6.586 125.534  0.00  0.00    +0.000 HD
ENDBRANCH  21  24
ENDBRANCH  20  21
ENDBRANCH  17  20
ENDBRANCH   1  14
BRANCH   1  26
ATOM     26  C   UNL     1      -6.937  -2.186 125.334  0.00  0.00    +0.000 A 
ATOM     27  C   UNL     1      -5.660  -2.707 125.133  0.00  0.00    +0.000 A 
ATOM     28  C   UNL     1      -5.147  -2.740 123.836  0.00  0.00    +0.000 A 
ATOM     29  C   UNL     1      -5.936  -2.328 122.766  0.00  0.00    +0.000 A 
ATOM     30  C   UNL     1      -7.217  -1.899 123.033  0.00  0.00    +0.000 A 
ATOM     31  N   UNL     1      -7.716  -1.825 124.276  0.00  0.00    +0.000 NA
ENDBRANCH   1  26
TORSDOF 9
ENDMDL
MODEL 8
REMARK VINA RESULT:      -7.2      1.820      7.450
REMARK  Name = Picosulfuric acid
REMARK  9 active torsions:
REMARK  status: ('A' for Active; 'I' for Inactive)
REMARK    1  A    between atoms: O_1  and  S_2
REMARK    2  A    between atoms: S_2  and  O_5
REMARK    3  A    between atoms: O_5  and  C_6
REMARK    4  A    between atoms: C_9  and  C_12
REMARK    5  A    between atoms: C_12  and  C_13
REMARK    6  A    between atoms: C_12  and  C_24
REMARK    7  A    between atoms: C_16  and  O_17
REMARK    8  A    between atoms: O_17  and  S_18
REMARK    9  A    between atoms: S_18  and  O_19
REMARK                            x       y       z     vdW  Elec       q    Type
REMARK                         _______ _______ _______ _____ _____    ______ ____
ROOT
ATOM      1  C   UNL     1      -6.047  -1.563 126.183  0.00  0.00    +0.000 C 
ENDROOT
BRANCH   1   5
ATOM      2  C   UNL     1      -7.056   2.651 126.705  0.00  0.00    +0.000 A 
ATOM      3  C   UNL     1      -7.987   1.659 127.026  0.00  0.00    +0.000 A 
ATOM      4  C   UNL     1      -7.628   0.302 126.962  0.00  0.00    +0.000 A 
ATOM      5  C   UNL     1      -6.366  -0.080 126.477  0.00  0.00    +0.000 A 
ATOM      6  C   UNL     1      -5.460   0.941 126.161  0.00  0.00    +0.000 A 
ATOM      7  C   UNL     1      -5.782   2.279 126.308  0.00  0.00    +0.000 A 
BRANCH   2   8
ATOM      8  O   UNL     1      -7.410   3.969 126.852  0.00  0.00    +0.000 OA
BRANCH   8   9
ATOM      9  S   UNL     1      -8.058   4.794 125.595  0.00  0.00    +0.000 S 
ATOM     10  O   UNL     1      -9.050   5.721 126.093  0.00  0.00    +0.000 OA
ATOM     11  O   UNL     1      -8.360   3.910 124.487  0.00  0.00    +0.000 OA
BRANCH   9  12
ATOM     12  O   UNL     1      -6.838   5.701 125.062  0.00  0.00    +0.000 OA
ATOM     13  H   UNL     1      -6.105   5.593 125.704  0.00  0.00    +0.000 HD
ENDBRANCH   9  12
ENDBRANCH   8   9
ENDBRANCH   2   8
ENDBRANCH   1   5
BRANCH   1  14
ATOM     14  C   UNL     1      -6.154  -2.376 127.487  0.00  0.00    +0.000 A 
ATOM     15  C   UNL     1      -7.378  -2.709 128.076  0.00  0.00    +0.000 A 
ATOM     16  C   UNL     1      -7.404  -3.215 129.386  0.00  0.00    +0.000 A 
ATOM     17  C   UNL     1      -6.211  -3.455 130.085  0.00  0.00    +0.000 A 
ATOM     18  C   UNL     1      -5.004  -3.120 129.487  0.00  0.00    +0.000 A 
ATOM     19  C   UNL     1      -4.971  -2.641 128.192  0.00  0.00    +0.000 A 
BRANCH  17  20
ATOM     20  O   UNL     1      -6.304  -4.027 131.331  0.00  0.00    +0.000 OA
BRANCH  20  21
ATOM     21  S   UNL     1      -6.240  -3.157 132.718  0.00  0.00    +0.000 S 
ATOM     22  O   UNL     1      -6.445  -1.759 132.416  0.00  0.00    +0.000 OA
ATOM     23  O   UNL     1      -7.065  -3.822 133.710  0.00  0.00    +0.000 OA
BRANCH  21  24
ATOM     24  O   UNL     1      -4.710  -3.306 133.234  0.00  0.00    +0.000 OA
ATOM     25  H   UNL     1      -4.490  -2.630 133.901  0.00  0.00    +0.000 HD
ENDBRANCH  21  24
ENDBRANCH  20  21
ENDBRANCH  17  20
ENDBRANCH   1  14
BRANCH   1  26
ATOM     26  C   UNL     1      -6.961  -2.192 125.090  0.00  0.00    +0.000 A 
ATOM     27  C   UNL     1      -6.985  -1.672 123.797  0.00  0.00    +0.000 A 
ATOM     28  C   UNL     1      -8.037  -2.025 122.952  0.00  0.00    +0.000 A 
ATOM     29  C   UNL     1      -8.994  -2.940 123.380  0.00  0.00    +0.000 A 
ATOM     30  C   UNL     1      -8.862  -3.473 124.642  0.00  0.00    +0.000 A 
ATOM     31  N   UNL     1      -7.879  -3.118 125.484  0.00  0.00    +0.000 NA
ENDBRANCH   1  26
TORSDOF 9
ENDMDL
MODEL 9
REMARK VINA RESULT:      -7.0      4.772      6.983
REMARK  Name = Picosulfuric acid
REMARK  9 active torsions:
REMARK  status: ('A' for Active; 'I' for Inactive)
REMARK    1  A    between atoms: O_1  and  S_2
REMARK    2  A    between atoms: S_2  and  O_5
REMARK    3  A    between atoms: O_5  and  C_6
REMARK    4  A    between atoms: C_9  and  C_12
REMARK    5  A    between atoms: C_12  and  C_13
REMARK    6  A    between atoms: C_12  and  C_24
REMARK    7  A    between atoms: C_16  and  O_17
REMARK    8  A    between atoms: O_17  and  S_18
REMARK    9  A    between atoms: S_18  and  O_19
REMARK                            x       y       z     vdW  Elec       q    Type
REMARK                         _______ _______ _______ _____ _____    ______ ____
ROOT
ATOM      1  C   UNL     1      -6.890   1.106 128.929  0.00  0.00    +0.000 C 
ENDROOT
BRANCH   1   5
ATOM      2  C   UNL     1      -9.630   4.224 130.280  0.00  0.00    +0.000 A 
ATOM      3  C   UNL     1      -9.736   2.925 130.785  0.00  0.00    +0.000 A 
ATOM      4  C   UNL     1      -8.790   1.947 130.435  0.00  0.00    +0.000 A 
ATOM      5  C   UNL     1      -7.786   2.231 129.494  0.00  0.00    +0.000 A 
ATOM      6  C   UNL     1      -7.711   3.543 129.006  0.00  0.00    +0.000 A 
ATOM      7  C   UNL     1      -8.589   4.529 129.419  0.00  0.00    +0.000 A 
BRANCH   2   8
ATOM      8  O   UNL     1     -10.522   5.177 130.702  0.00  0.00    +0.000 OA
BRANCH   8   9
ATOM      9  S   UNL     1     -10.218   6.051 132.053  0.00  0.00    +0.000 S 
ATOM     10  O   UNL     1     -11.361   6.887 132.348  0.00  0.00    +0.000 OA
ATOM     11  O   UNL     1      -8.880   6.605 132.029  0.00  0.00    +0.000 OA
BRANCH   9  12
ATOM     12  O   UNL     1     -10.172   4.943 133.223  0.00  0.00    +0.000 OA
ATOM     13  H   UNL     1      -9.324   4.463 133.124  0.00  0.00    +0.000 HD
ENDBRANCH   9  12
ENDBRANCH   8   9
ENDBRANCH   2   8
ENDBRANCH   1   5
BRANCH   1  14
ATOM     14  C   UNL     1      -7.704   0.256 127.936  0.00  0.00    +0.000 A 
ATOM     15  C   UNL     1      -7.457  -1.104 127.720  0.00  0.00    +0.000 A 
ATOM     16  C   UNL     1      -8.050  -1.753 126.625  0.00  0.00    +0.000 A 
ATOM     17  C   UNL     1      -8.941  -1.069 125.784  0.00  0.00    +0.000 A 
ATOM     18  C   UNL     1      -9.177   0.280 126.011  0.00  0.00    +0.000 A 
ATOM     19  C   UNL     1      -8.613   0.918 127.098  0.00  0.00    +0.000 A 
BRANCH  17  20
ATOM     20  O   UNL     1      -9.548  -1.784 124.780  0.00  0.00    +0.000 OA
BRANCH  20  21
ATOM     21  S   UNL     1      -9.071  -1.703 123.214  0.00  0.00    +0.000 S 
ATOM     22  O   UNL     1      -8.801  -3.035 122.726  0.00  0.00    +0.000 OA
ATOM     23  O   UNL     1      -9.990  -0.833 122.503  0.00  0.00    +0.000 OA
BRANCH  21  24
ATOM     24  O   UNL     1      -7.651  -0.920 123.251  0.00  0.00    +0.000 OA
ATOM     25  H   UNL     1      -6.902  -1.531 123.124  0.00  0.00    +0.000 HD
ENDBRANCH  21  24
ENDBRANCH  20  21
ENDBRANCH  17  20
ENDBRANCH   1  14
BRANCH   1  26
ATOM     26  C   UNL     1      -5.595   1.629 128.241  0.00  0.00    +0.000 A 
ATOM     27  C   UNL     1      -4.519   2.084 129.002  0.00  0.00    +0.000 A 
ATOM     28  C   UNL     1      -3.532   2.847 128.377  0.00  0.00    +0.000 A 
ATOM     29  C   UNL     1      -3.594   3.073 127.005  0.00  0.00    +0.000 A 
ATOM     30  C   UNL     1      -4.644   2.525 126.304  0.00  0.00    +0.000 A 
ATOM     31  N   UNL     1      -5.624   1.821 126.893  0.00  0.00    +0.000 NA
ENDBRANCH   1  26
TORSDOF 9
ENDMDL
