MODEL 1
REMARK VINA RESULT:      -5.1      0.000      0.000
REMARK  Name = Pidolic acid
REMARK  2 active torsions:
REMARK  status: ('A' for Active; 'I' for Inactive)
REMARK    1  A    between atoms: O_1  and  C_2
REMARK    2  A    between atoms: C_2  and  CA_4
REMARK                            x       y       z     vdW  Elec       q    Type
REMARK                         _______ _______ _______ _____ _____    ______ ____
ROOT
ATOM      1  CA  UNL     1     -11.470   7.658 128.020  0.00  0.00    +0.000 C 
ATOM      2  C   UNL     1     -12.421   6.810 128.853  0.00  0.00    +0.000 C 
ATOM      3  C   UNL     1     -12.761   7.703 130.045  0.00  0.00    +0.000 C 
ATOM      4  C   UNL     1     -12.649   9.086 129.461  0.00  0.00    +0.000 C 
ATOM      5  O   UNL     1     -13.134  10.107 129.916  0.00  0.00    +0.000 OA
ATOM      6  N   UNL     1     -11.869   9.008 128.331  0.00  0.00    +0.000 N 
ATOM      7  H   UNL     1     -11.534   9.845 127.862  0.00  0.00    +0.000 HD
ENDROOT
BRANCH   1   8
ATOM      8  C   UNL     1     -11.471   7.407 126.509  0.00  0.00    +0.000 C 
ATOM      9  OXT UNL     1     -10.750   8.033 125.740  0.00  0.00    +0.000 OA
BRANCH   8  10
ATOM     10  O   UNL     1     -12.389   6.534 126.040  0.00  0.00    +0.000 OA
ATOM     11  H   UNL     1     -13.213   6.907 125.680  0.00  0.00    +0.000 HD
ENDBRANCH   8  10
ENDBRANCH   1   8
TORSDOF 2
ENDMDL
MODEL 2
REMARK VINA RESULT:      -4.9      1.739      2.011
REMARK  Name = Pidolic acid
REMARK  2 active torsions:
REMARK  status: ('A' for Active; 'I' for Inactive)
REMARK    1  A    between atoms: O_1  and  C_2
REMARK    2  A    between atoms: C_2  and  CA_4
REMARK                            x       y       z     vdW  Elec       q    Type
REMARK                         _______ _______ _______ _____ _____    ______ ____
ROOT
ATOM      1  CA  UNL     1     -12.690   7.756 128.245  0.00  0.00    +0.000 C 
ATOM      2  C   UNL     1     -12.484   9.037 129.041  0.00  0.00    +0.000 C 
ATOM      3  C   UNL     1     -12.932   8.667 130.454  0.00  0.00    +0.000 C 
ATOM      4  C   UNL     1     -12.618   7.197 130.522  0.00  0.00    +0.000 C 
ATOM      5  O   UNL     1     -12.491   6.528 131.534  0.00  0.00    +0.000 OA
ATOM      6  N   UNL     1     -12.532   6.720 129.235  0.00  0.00    +0.000 N 
ATOM      7  H   UNL     1     -12.480   5.723 129.044  0.00  0.00    +0.000 HD
ENDROOT
BRANCH   1   8
ATOM      8  C   UNL     1     -11.759   7.534 127.048  0.00  0.00    +0.000 C 
ATOM      9  OXT UNL     1     -10.809   8.272 126.812  0.00  0.00    +0.000 OA
BRANCH   8  10
ATOM     10  O   UNL     1     -12.097   6.546 126.192  0.00  0.00    +0.000 OA
ATOM     11  H   UNL     1     -13.034   6.284 126.165  0.00  0.00    +0.000 HD
ENDBRANCH   8  10
ENDBRANCH   1   8
TORSDOF 2
ENDMDL
MODEL 3
REMARK VINA RESULT:      -4.8      2.510      4.237
REMARK  Name = Pidolic acid
REMARK  2 active torsions:
REMARK  status: ('A' for Active; 'I' for Inactive)
REMARK    1  A    between atoms: O_1  and  C_2
REMARK    2  A    between atoms: C_2  and  CA_4
REMARK                            x       y       z     vdW  Elec       q    Type
REMARK                         _______ _______ _______ _____ _____    ______ ____
ROOT
ATOM      1  CA  UNL     1     -11.344   7.570 130.138  0.00  0.00    +0.000 C 
ATOM      2  C   UNL     1     -12.103   8.393 129.107  0.00  0.00    +0.000 C 
ATOM      3  C   UNL     1     -11.178   8.403 127.892  0.00  0.00    +0.000 C 
ATOM      4  C   UNL     1     -10.452   7.091 128.022  0.00  0.00    +0.000 C 
ATOM      5  O   UNL     1      -9.857   6.500 127.137  0.00  0.00    +0.000 OA
ATOM      6  N   UNL     1     -10.543   6.683 129.332  0.00  0.00    +0.000 N 
ATOM      7  H   UNL     1      -9.996   5.901 129.681  0.00  0.00    +0.000 HD
ENDROOT
BRANCH   1   8
ATOM      8  C   UNL     1     -12.188   6.796 131.155  0.00  0.00    +0.000 C 
ATOM      9  OXT UNL     1     -13.248   7.229 131.591  0.00  0.00    +0.000 OA
BRANCH   8  10
ATOM     10  O   UNL     1     -11.656   5.653 131.640  0.00  0.00    +0.000 OA
ATOM     11  H   UNL     1     -11.706   5.514 132.602  0.00  0.00    +0.000 HD
ENDBRANCH   8  10
ENDBRANCH   1   8
TORSDOF 2
ENDMDL
MODEL 4
REMARK VINA RESULT:      -4.6      2.331      2.691
REMARK  Name = Pidolic acid
REMARK  2 active torsions:
REMARK  status: ('A' for Active; 'I' for Inactive)
REMARK    1  A    between atoms: O_1  and  C_2
REMARK    2  A    between atoms: C_2  and  CA_4
REMARK                            x       y       z     vdW  Elec       q    Type
REMARK                         _______ _______ _______ _____ _____    ______ ____
ROOT
ATOM      1  CA  UNL     1     -11.782   6.998 128.896  0.00  0.00    +0.000 C 
ATOM      2  C   UNL     1     -12.554   8.112 129.590  0.00  0.00    +0.000 C 
ATOM      3  C   UNL     1     -12.798   7.569 130.996  0.00  0.00    +0.000 C 
ATOM      4  C   UNL     1     -11.608   6.674 131.213  0.00  0.00    +0.000 C 
ATOM      5  O   UNL     1     -11.184   6.277 132.285  0.00  0.00    +0.000 OA
ATOM      6  N   UNL     1     -11.092   6.346 129.981  0.00  0.00    +0.000 N 
ATOM      7  H   UNL     1     -10.380   5.628 129.880  0.00  0.00    +0.000 HD
ENDROOT
BRANCH   1   8
ATOM      8  C   UNL     1     -10.812   7.422 127.788  0.00  0.00    +0.000 C 
ATOM      9  OXT UNL     1      -9.995   6.648 127.303  0.00  0.00    +0.000 OA
BRANCH   8  10
ATOM     10  O   UNL     1     -10.821   8.727 127.441  0.00  0.00    +0.000 OA
ATOM     11  H   UNL     1     -10.043   9.257 127.690  0.00  0.00    +0.000 HD
ENDBRANCH   8  10
ENDBRANCH   1   8
TORSDOF 2
ENDMDL
MODEL 5
REMARK VINA RESULT:      -4.5      8.552      9.991
REMARK  Name = Pidolic acid
REMARK  2 active torsions:
REMARK  status: ('A' for Active; 'I' for Inactive)
REMARK    1  A    between atoms: O_1  and  C_2
REMARK    2  A    between atoms: C_2  and  CA_4
REMARK                            x       y       z     vdW  Elec       q    Type
REMARK                         _______ _______ _______ _____ _____    ______ ____
ROOT
ATOM      1  CA  UNL     1      -6.668   3.304 121.875  0.00  0.00    +0.000 C 
ATOM      2  C   UNL     1      -5.648   4.120 122.658  0.00  0.00    +0.000 C 
ATOM      3  C   UNL     1      -4.679   4.620 121.588  0.00  0.00    +0.000 C 
ATOM      4  C   UNL     1      -5.559   4.723 120.371  0.00  0.00    +0.000 C 
ATOM      5  O   UNL     1      -5.334   5.375 119.366  0.00  0.00    +0.000 OA
ATOM      6  N   UNL     1      -6.658   3.921 120.572  0.00  0.00    +0.000 N 
ATOM      7  H   UNL     1      -7.308   3.717 119.818  0.00  0.00    +0.000 HD
ENDROOT
BRANCH   1   8
ATOM      8  C   UNL     1      -8.085   3.238 122.454  0.00  0.00    +0.000 C 
ATOM      9  OXT UNL     1      -9.038   2.823 121.805  0.00  0.00    +0.000 OA
BRANCH   8  10
ATOM     10  O   UNL     1      -8.262   3.764 123.685  0.00  0.00    +0.000 OA
ATOM     11  H   UNL     1      -8.956   4.439 123.783  0.00  0.00    +0.000 HD
ENDBRANCH   8  10
ENDBRANCH   1   8
TORSDOF 2
ENDMDL
MODEL 6
REMARK VINA RESULT:      -4.4      4.615      5.333
REMARK  Name = Pidolic acid
REMARK  2 active torsions:
REMARK  status: ('A' for Active; 'I' for Inactive)
REMARK    1  A    between atoms: O_1  and  C_2
REMARK    2  A    between atoms: C_2  and  CA_4
REMARK                            x       y       z     vdW  Elec       q    Type
REMARK                         _______ _______ _______ _____ _____    ______ ____
ROOT
ATOM      1  CA  UNL     1     -10.081   5.774 131.588  0.00  0.00    +0.000 C 
ATOM      2  C   UNL     1      -9.901   6.928 130.611  0.00  0.00    +0.000 C 
ATOM      3  C   UNL     1     -11.322   7.244 130.152  0.00  0.00    +0.000 C 
ATOM      4  C   UNL     1     -12.148   6.857 131.349  0.00  0.00    +0.000 C 
ATOM      5  O   UNL     1     -13.285   7.220 131.594  0.00  0.00    +0.000 OA
ATOM      6  N   UNL     1     -11.407   5.985 132.112  0.00  0.00    +0.000 N 
ATOM      7  H   UNL     1     -11.823   5.476 132.886  0.00  0.00    +0.000 HD
ENDROOT
BRANCH   1   8
ATOM      8  C   UNL     1      -9.045   5.657 132.711  0.00  0.00    +0.000 C 
ATOM      9  OXT UNL     1      -8.077   4.910 132.634  0.00  0.00    +0.000 OA
BRANCH   8  10
ATOM     10  O   UNL     1      -9.306   6.337 133.849  0.00  0.00    +0.000 OA
ATOM     11  H   UNL     1     -10.110   6.886 133.862  0.00  0.00    +0.000 HD
ENDBRANCH   8  10
ENDBRANCH   1   8
TORSDOF 2
ENDMDL
MODEL 7
REMARK VINA RESULT:      -4.2     11.948     12.945
REMARK  Name = Pidolic acid
REMARK  2 active torsions:
REMARK  status: ('A' for Active; 'I' for Inactive)
REMARK    1  A    between atoms: O_1  and  C_2
REMARK    2  A    between atoms: C_2  and  CA_4
REMARK                            x       y       z     vdW  Elec       q    Type
REMARK                         _______ _______ _______ _____ _____    ______ ____
ROOT
ATOM      1  CA  UNL     1      -8.015  -2.263 124.283  0.00  0.00    +0.000 C 
ATOM      2  C   UNL     1      -7.635  -1.988 122.834  0.00  0.00    +0.000 C 
ATOM      3  C   UNL     1      -6.116  -2.149 122.817  0.00  0.00    +0.000 C 
ATOM      4  C   UNL     1      -5.881  -3.161 123.905  0.00  0.00    +0.000 C 
ATOM      5  O   UNL     1      -4.886  -3.849 124.053  0.00  0.00    +0.000 OA
ATOM      6  N   UNL     1      -6.977  -3.155 124.735  0.00  0.00    +0.000 N 
ATOM      7  H   UNL     1      -6.970  -3.650 125.623  0.00  0.00    +0.000 HD
ENDROOT
BRANCH   1   8
ATOM      8  C   UNL     1      -9.408  -2.852 124.527  0.00  0.00    +0.000 C 
ATOM      9  OXT UNL     1      -9.909  -2.908 125.645  0.00  0.00    +0.000 OA
BRANCH   8  10
ATOM     10  O   UNL     1     -10.023  -3.415 123.464  0.00  0.00    +0.000 OA
ATOM     11  H   UNL     1      -9.564  -4.153 123.026  0.00  0.00    +0.000 HD
ENDBRANCH   8  10
ENDBRANCH   1   8
TORSDOF 2
ENDMDL
MODEL 8
REMARK VINA RESULT:      -4.2      2.862      3.642
REMARK  Name = Pidolic acid
REMARK  2 active torsions:
REMARK  status: ('A' for Active; 'I' for Inactive)
REMARK    1  A    between atoms: O_1  and  C_2
REMARK    2  A    between atoms: C_2  and  CA_4
REMARK                            x       y       z     vdW  Elec       q    Type
REMARK                         _______ _______ _______ _____ _____    ______ ____
ROOT
ATOM      1  CA  UNL     1     -11.151   7.437 129.897  0.00  0.00    +0.000 C 
ATOM      2  C   UNL     1      -9.794   7.048 130.468  0.00  0.00    +0.000 C 
ATOM      3  C   UNL     1     -10.040   5.679 131.099  0.00  0.00    +0.000 C 
ATOM      4  C   UNL     1     -11.142   5.116 130.241  0.00  0.00    +0.000 C 
ATOM      5  O   UNL     1     -11.453   3.942 130.139  0.00  0.00    +0.000 OA
ATOM      6  N   UNL     1     -11.768   6.165 129.611  0.00  0.00    +0.000 N 
ATOM      7  H   UNL     1     -12.638   6.033 129.102  0.00  0.00    +0.000 HD
ENDROOT
BRANCH   1   8
ATOM      8  C   UNL     1     -11.142   8.346 128.664  0.00  0.00    +0.000 C 
ATOM      9  OXT UNL     1     -10.228   8.333 127.847  0.00  0.00    +0.000 OA
BRANCH   8  10
ATOM     10  O   UNL     1     -12.140   9.251 128.571  0.00  0.00    +0.000 OA
ATOM     11  H   UNL     1     -13.021   8.916 128.327  0.00  0.00    +0.000 HD
ENDBRANCH   8  10
ENDBRANCH   1   8
TORSDOF 2
ENDMDL
MODEL 9
REMARK VINA RESULT:      -4.2      2.541      3.675
REMARK  Name = Pidolic acid
REMARK  2 active torsions:
REMARK  status: ('A' for Active; 'I' for Inactive)
REMARK    1  A    between atoms: O_1  and  C_2
REMARK    2  A    between atoms: C_2  and  CA_4
REMARK                            x       y       z     vdW  Elec       q    Type
REMARK                         _______ _______ _______ _____ _____    ______ ____
ROOT
ATOM      1  CA  UNL     1     -11.186   7.859 129.267  0.00  0.00    +0.000 C 
ATOM      2  C   UNL     1     -12.642   7.490 129.520  0.00  0.00    +0.000 C 
ATOM      3  C   UNL     1     -13.286   7.572 128.137  0.00  0.00    +0.000 C 
ATOM      4  C   UNL     1     -12.143   7.222 127.222  0.00  0.00    +0.000 C 
ATOM      5  O   UNL     1     -12.229   6.839 126.068  0.00  0.00    +0.000 OA
ATOM      6  N   UNL     1     -10.970   7.444 127.904  0.00  0.00    +0.000 N 
ATOM      7  H   UNL     1     -10.071   7.421 127.430  0.00  0.00    +0.000 HD
ENDROOT
BRANCH   1   8
ATOM      8  C   UNL     1     -10.149   7.245 130.213  0.00  0.00    +0.000 C 
ATOM      9  OXT UNL     1     -10.467   6.580 131.192  0.00  0.00    +0.000 OA
BRANCH   8  10
ATOM     10  O   UNL     1      -8.856   7.562 129.982  0.00  0.00    +0.000 OA
ATOM     11  H   UNL     1      -8.190   7.157 130.565  0.00  0.00    +0.000 HD
ENDBRANCH   8  10
ENDBRANCH   1   8
TORSDOF 2
ENDMDL
