MODEL 1
REMARK VINA RESULT:      -7.5      0.000      0.000
REMARK  Name = Piflufolastat F 18
REMARK  16 active torsions:
REMARK  status: ('A' for Active; 'I' for Inactive)
REMARK    1  A    between atoms: O_1  and  C_2
REMARK    2  A    between atoms: C_2  and  C_4
REMARK    3  A    between atoms: C_4  and  C_5
REMARK    4  A    between atoms: C_5  and  C_6
REMARK    5  A    between atoms: C_6  and  N_7
REMARK    6  A    between atoms: C_6  and  C_29
REMARK    7  A    between atoms: N_10  and  C_11
REMARK    8  A    between atoms: C_11  and  C_12
REMARK    9  A    between atoms: C_11  and  C_26
REMARK   10  A    between atoms: C_12  and  C_13
REMARK   11  A    between atoms: C_13  and  C_14
REMARK   12  A    between atoms: C_14  and  C_15
REMARK   13  A    between atoms: C_15  and  N_16
REMARK   14  A    between atoms: C_17  and  C_19
REMARK   15  A    between atoms: C_26  and  O_27
REMARK   16  A    between atoms: C_29  and  O_30
REMARK                            x       y       z     vdW  Elec       q    Type
REMARK                         _______ _______ _______ _____ _____    ______ ____
ROOT
ATOM      1  C   UNK A   1      -8.836   2.271 129.503  0.00  0.00    +0.000 C 
ENDROOT
BRANCH   1   5
ATOM      2  N   UNK A   1      -9.755   5.793 130.031  0.00  0.00    +0.000 N 
ATOM      3  C   UNK A   0      -9.895   4.438 130.200  0.00  0.00    +0.000 C 
ATOM      4  O   UNK A   0     -11.001   3.933 130.347  0.00  0.00    +0.000 OA
ATOM      5  N   UNK A   1      -8.774   3.720 129.875  0.00  0.00    +0.000 N 
ATOM      6  H   UNK A   1      -8.858   6.150 130.333  0.00  0.00    +0.000 HD
ATOM      7  H   UNK A   1      -7.903   4.179 130.065  0.00  0.00    +0.000 HD
BRANCH   2   8
ATOM      8  C   UNK A   1     -10.884   6.774 130.211  0.00  0.00    +0.000 C 
BRANCH   8   9
ATOM      9  C   UNK A   1     -11.828   6.646 131.450  0.00  0.00    +0.000 C 
ATOM     10  O   UNK A   1     -13.018   6.940 131.422  0.00  0.00    +0.000 OA
BRANCH   9  11
ATOM     11  O   UNK A   1     -11.296   6.092 132.547  0.00  0.00    +0.000 OA
ATOM     12  H   UNK A   1     -11.788   6.421 133.320  0.00  0.00    +0.000 HD
ENDBRANCH   9  11
ENDBRANCH   8   9
BRANCH   8  13
ATOM     13  C   UNK A   1     -11.771   6.717 128.924  0.00  0.00    +0.000 C 
BRANCH  13  14
ATOM     14  C   UNK A   1     -11.553   7.865 127.919  0.00  0.00    +0.000 C 
BRANCH  14  15
ATOM     15  C   UNK A   1     -10.754   7.467 126.708  0.00  0.00    +0.000 C 
ATOM     16  O   UNK A   1     -10.855   7.992 125.607  0.00  0.00    +0.000 OA
BRANCH  15  17
ATOM     17  O   UNK A   1      -9.866   6.479 126.964  0.00  0.00    +0.000 OA
ATOM     18  H   UNK A   1      -9.775   5.811 126.253  0.00  0.00    +0.000 HD
ENDBRANCH  15  17
ENDBRANCH  14  15
ENDBRANCH  13  14
ENDBRANCH   8  13
ENDBRANCH   2   8
ENDBRANCH   1   5
BRANCH   1  19
ATOM     19  C   UNK A   1      -8.093   1.276 130.429  0.00  0.00    +0.000 C 
ATOM     20  O   UNK A   1      -6.891   1.347 130.657  0.00  0.00    +0.000 OA
BRANCH  19  21
ATOM     21  O   UNK A   1      -8.836   0.316 131.014  0.00  0.00    +0.000 OA
ATOM     22  H   UNK A   1      -9.189   0.496 131.896  0.00  0.00    +0.000 HD
ENDBRANCH  19  21
ENDBRANCH   1  19
BRANCH   1  23
ATOM     23  C   UNK A   1      -8.303   1.999 128.057  0.00  0.00    +0.000 C 
BRANCH  23  24
ATOM     24  C   UNK A   1      -8.135   0.517 127.744  0.00  0.00    +0.000 C 
BRANCH  24  25
ATOM     25  C   UNK A   1      -8.357   0.094 126.302  0.00  0.00    +0.000 C 
BRANCH  25  26
ATOM     26  C   UNK A   1      -9.333   1.059 125.611  0.00  0.00    +0.000 C 
BRANCH  26  27
ATOM     27  N   UNK A   1      -8.812   1.543 124.346  0.00  0.00    +0.000 N 
ATOM     28  C   UNK A   1      -8.534   2.884 124.155  0.00  0.00    +0.000 C 
ATOM     29  O   UNK A   1      -8.735   3.759 124.988  0.00  0.00    +0.000 OA
ATOM     30  H   UNK A   1      -8.486   0.861 123.676  0.00  0.00    +0.000 HD
BRANCH  28  31
ATOM     31  C   UNK A   1      -7.910   3.242 122.863  0.00  0.00    +0.000 A 
ATOM     32  C   UNK A   1      -6.543   3.490 122.735  0.00  0.00    +0.000 A 
ATOM     33  C   UNK A   1      -6.034   3.845 121.486  0.00  0.00    +0.000 A 
ATOM     34  C   UNK A   1      -6.920   4.021 120.435  0.00  0.00    +0.000 A 
ATOM     35  F   UNK A   1      -6.453   4.519 119.281  0.00  0.00    +0.000 F 
ATOM     36  N   UNK A   1      -8.236   3.741 120.512  0.00  0.00    +0.000 NA
ATOM     37  C   UNK A   1      -8.693   3.306 121.717  0.00  0.00    +0.000 A 
ENDBRANCH  28  31
ENDBRANCH  26  27
ENDBRANCH  25  26
ENDBRANCH  24  25
ENDBRANCH  23  24
ENDBRANCH   1  23
TORSDOF 16
ENDMDL
MODEL 2
REMARK VINA RESULT:      -7.4      6.041     10.240
REMARK  Name = Piflufolastat F 18
REMARK  16 active torsions:
REMARK  status: ('A' for Active; 'I' for Inactive)
REMARK    1  A    between atoms: O_1  and  C_2
REMARK    2  A    between atoms: C_2  and  C_4
REMARK    3  A    between atoms: C_4  and  C_5
REMARK    4  A    between atoms: C_5  and  C_6
REMARK    5  A    between atoms: C_6  and  N_7
REMARK    6  A    between atoms: C_6  and  C_29
REMARK    7  A    between atoms: N_10  and  C_11
REMARK    8  A    between atoms: C_11  and  C_12
REMARK    9  A    between atoms: C_11  and  C_26
REMARK   10  A    between atoms: C_12  and  C_13
REMARK   11  A    between atoms: C_13  and  C_14
REMARK   12  A    between atoms: C_14  and  C_15
REMARK   13  A    between atoms: C_15  and  N_16
REMARK   14  A    between atoms: C_17  and  C_19
REMARK   15  A    between atoms: C_26  and  O_27
REMARK   16  A    between atoms: C_29  and  O_30
REMARK                            x       y       z     vdW  Elec       q    Type
REMARK                         _______ _______ _______ _____ _____    ______ ____
ROOT
ATOM      1  C   UNK A   1      -9.148   3.034 131.457  0.00  0.00    +0.000 C 
ENDROOT
BRANCH   1   5
ATOM      2  N   UNK A   1     -11.779   5.433 130.535  0.00  0.00    +0.000 N 
ATOM      3  C   UNK A   0     -10.631   4.713 130.322  0.00  0.00    +0.000 C 
ATOM      4  O   UNK A   0      -9.718   5.169 129.646  0.00  0.00    +0.000 OA
ATOM      5  N   UNK A   1     -10.485   3.639 131.162  0.00  0.00    +0.000 N 
ATOM      6  H   UNK A   1     -12.592   4.859 130.718  0.00  0.00    +0.000 HD
ATOM      7  H   UNK A   1     -11.340   3.187 131.428  0.00  0.00    +0.000 HD
BRANCH   2   8
ATOM      8  C   UNK A   1     -12.100   6.717 129.817  0.00  0.00    +0.000 C 
BRANCH   8   9
ATOM      9  C   UNK A   1     -12.730   7.909 130.609  0.00  0.00    +0.000 C 
ATOM     10  O   UNK A   1     -13.140   7.809 131.760  0.00  0.00    +0.000 OA
BRANCH   9  11
ATOM     11  O   UNK A   1     -12.713   9.101 130.000  0.00  0.00    +0.000 OA
ATOM     12  H   UNK A   1     -12.166   9.704 130.533  0.00  0.00    +0.000 HD
ENDBRANCH   9  11
ENDBRANCH   8   9
BRANCH   8  13
ATOM     13  C   UNK A   1     -13.056   6.372 128.629  0.00  0.00    +0.000 C 
BRANCH  13  14
ATOM     14  C   UNK A   1     -12.781   7.131 127.315  0.00  0.00    +0.000 C 
BRANCH  14  15
ATOM     15  C   UNK A   1     -11.326   7.435 127.084  0.00  0.00    +0.000 C 
ATOM     16  O   UNK A   1     -10.529   6.662 126.570  0.00  0.00    +0.000 OA
BRANCH  15  17
ATOM     17  O   UNK A   1     -10.981   8.685 127.472  0.00  0.00    +0.000 OA
ATOM     18  H   UNK A   1     -10.127   9.007 127.117  0.00  0.00    +0.000 HD
ENDBRANCH  15  17
ENDBRANCH  14  15
ENDBRANCH  13  14
ENDBRANCH   8  13
ENDBRANCH   2   8
ENDBRANCH   1   5
BRANCH   1  19
ATOM     19  C   UNK A   1      -8.772   1.749 130.678  0.00  0.00    +0.000 C 
ATOM     20  O   UNK A   1      -8.235   1.770 129.576  0.00  0.00    +0.000 OA
BRANCH  19  21
ATOM     21  O   UNK A   1      -9.040   0.572 131.277  0.00  0.00    +0.000 OA
ATOM     22  H   UNK A   1      -9.377   0.596 132.182  0.00  0.00    +0.000 HD
ENDBRANCH  19  21
ENDBRANCH   1  19
BRANCH   1  23
ATOM     23  C   UNK A   1      -8.966   2.692 132.973  0.00  0.00    +0.000 C 
BRANCH  23  24
ATOM     24  C   UNK A   1      -9.261   3.867 133.897  0.00  0.00    +0.000 C 
BRANCH  24  25
ATOM     25  C   UNK A   1      -8.275   5.023 133.868  0.00  0.00    +0.000 C 
BRANCH  25  26
ATOM     26  C   UNK A   1      -7.619   5.194 135.246  0.00  0.00    +0.000 C 
BRANCH  26  27
ATOM     27  N   UNK A   1      -8.226   6.272 136.004  0.00  0.00    +0.000 N 
ATOM     28  C   UNK A   1      -7.790   6.580 137.281  0.00  0.00    +0.000 C 
ATOM     29  O   UNK A   1      -6.916   5.968 137.881  0.00  0.00    +0.000 OA
ATOM     30  H   UNK A   1      -8.843   6.906 135.517  0.00  0.00    +0.000 HD
BRANCH  28  31
ATOM     31  C   UNK A   1      -8.414   7.763 137.913  0.00  0.00    +0.000 A 
ATOM     32  C   UNK A   1      -9.623   8.298 137.470  0.00  0.00    +0.000 A 
ATOM     33  C   UNK A   1     -10.135   9.431 138.103  0.00  0.00    +0.000 A 
ATOM     34  C   UNK A   1      -9.377  10.033 139.096  0.00  0.00    +0.000 A 
ATOM     35  F   UNK A   1      -9.790  11.210 139.589  0.00  0.00    +0.000 F 
ATOM     36  N   UNK A   1      -8.232   9.514 139.581  0.00  0.00    +0.000 NA
ATOM     37  C   UNK A   1      -7.803   8.357 139.010  0.00  0.00    +0.000 A 
ENDBRANCH  28  31
ENDBRANCH  26  27
ENDBRANCH  25  26
ENDBRANCH  24  25
ENDBRANCH  23  24
ENDBRANCH   1  23
TORSDOF 16
ENDMDL
MODEL 3
REMARK VINA RESULT:      -7.4      4.179      8.351
REMARK  Name = Piflufolastat F 18
REMARK  16 active torsions:
REMARK  status: ('A' for Active; 'I' for Inactive)
REMARK    1  A    between atoms: O_1  and  C_2
REMARK    2  A    between atoms: C_2  and  C_4
REMARK    3  A    between atoms: C_4  and  C_5
REMARK    4  A    between atoms: C_5  and  C_6
REMARK    5  A    between atoms: C_6  and  N_7
REMARK    6  A    between atoms: C_6  and  C_29
REMARK    7  A    between atoms: N_10  and  C_11
REMARK    8  A    between atoms: C_11  and  C_12
REMARK    9  A    between atoms: C_11  and  C_26
REMARK   10  A    between atoms: C_12  and  C_13
REMARK   11  A    between atoms: C_13  and  C_14
REMARK   12  A    between atoms: C_14  and  C_15
REMARK   13  A    between atoms: C_15  and  N_16
REMARK   14  A    between atoms: C_17  and  C_19
REMARK   15  A    between atoms: C_26  and  O_27
REMARK   16  A    between atoms: C_29  and  O_30
REMARK                            x       y       z     vdW  Elec       q    Type
REMARK                         _______ _______ _______ _____ _____    ______ ____
ROOT
ATOM      1  C   UNK A   1      -4.572   5.013 127.654  0.00  0.00    +0.000 C 
ENDROOT
BRANCH   1   5
ATOM      2  N   UNK A   1      -5.707   3.744 124.393  0.00  0.00    +0.000 N 
ATOM      3  C   UNK A   0      -5.603   4.683 125.388  0.00  0.00    +0.000 C 
ATOM      4  O   UNK A   0      -6.516   5.468 125.611  0.00  0.00    +0.000 OA
ATOM      5  N   UNK A   1      -4.576   4.451 126.266  0.00  0.00    +0.000 N 
ATOM      6  H   UNK A   1      -4.815   3.452 124.015  0.00  0.00    +0.000 HD
ATOM      7  H   UNK A   1      -3.760   4.028 125.865  0.00  0.00    +0.000 HD
BRANCH   2   8
ATOM      8  C   UNK A   1      -6.825   3.723 123.384  0.00  0.00    +0.000 C 
BRANCH   8   9
ATOM      9  C   UNK A   1      -8.148   2.958 123.714  0.00  0.00    +0.000 C 
ATOM     10  O   UNK A   1      -8.946   3.331 124.565  0.00  0.00    +0.000 OA
BRANCH   9  11
ATOM     11  O   UNK A   1      -8.433   1.905 122.938  0.00  0.00    +0.000 OA
ATOM     12  H   UNK A   1      -9.051   2.199 122.245  0.00  0.00    +0.000 HD
ENDBRANCH   9  11
ENDBRANCH   8   9
BRANCH   8  13
ATOM     13  C   UNK A   1      -6.251   3.138 122.052  0.00  0.00    +0.000 C 
BRANCH  13  14
ATOM     14  C   UNK A   1      -5.994   4.167 120.934  0.00  0.00    +0.000 C 
BRANCH  14  15
ATOM     15  C   UNK A   1      -4.799   5.046 121.182  0.00  0.00    +0.000 C 
ATOM     16  O   UNK A   1      -3.944   4.831 122.032  0.00  0.00    +0.000 OA
BRANCH  15  17
ATOM     17  O   UNK A   1      -4.734   6.100 120.336  0.00  0.00    +0.000 OA
ATOM     18  H   UNK A   1      -5.521   6.683 120.340  0.00  0.00    +0.000 HD
ENDBRANCH  15  17
ENDBRANCH  14  15
ENDBRANCH  13  14
ENDBRANCH   8  13
ENDBRANCH   2   8
ENDBRANCH   1   5
BRANCH   1  19
ATOM     19  C   UNK A   1      -3.547   6.135 127.953  0.00  0.00    +0.000 C 
ATOM     20  O   UNK A   1      -3.876   7.272 128.270  0.00  0.00    +0.000 OA
BRANCH  19  21
ATOM     21  O   UNK A   1      -2.242   5.806 127.877  0.00  0.00    +0.000 OA
ATOM     22  H   UNK A   1      -1.710   6.238 127.195  0.00  0.00    +0.000 HD
ENDBRANCH  19  21
ENDBRANCH   1  19
BRANCH   1  23
ATOM     23  C   UNK A   1      -4.344   3.914 128.745  0.00  0.00    +0.000 C 
BRANCH  23  24
ATOM     24  C   UNK A   1      -5.532   3.742 129.684  0.00  0.00    +0.000 C 
BRANCH  24  25
ATOM     25  C   UNK A   1      -6.453   4.940 129.847  0.00  0.00    +0.000 C 
BRANCH  25  26
ATOM     26  C   UNK A   1      -7.791   4.500 130.459  0.00  0.00    +0.000 C 
BRANCH  26  27
ATOM     27  N   UNK A   1      -8.901   5.288 129.957  0.00  0.00    +0.000 N 
ATOM     28  C   UNK A   1      -9.379   6.378 130.662  0.00  0.00    +0.000 C 
ATOM     29  O   UNK A   1      -8.955   6.739 131.752  0.00  0.00    +0.000 OA
ATOM     30  H   UNK A   1      -9.196   5.137 129.002  0.00  0.00    +0.000 HD
BRANCH  28  31
ATOM     31  C   UNK A   1     -10.443   7.165 130.000  0.00  0.00    +0.000 A 
ATOM     32  C   UNK A   1     -10.219   7.895 128.833  0.00  0.00    +0.000 A 
ATOM     33  C   UNK A   1     -11.269   8.631 128.283  0.00  0.00    +0.000 A 
ATOM     34  C   UNK A   1     -12.473   8.676 128.966  0.00  0.00    +0.000 A 
ATOM     35  F   UNK A   1     -13.426   9.512 128.525  0.00  0.00    +0.000 F 
ATOM     36  N   UNK A   1     -12.739   7.944 130.065  0.00  0.00    +0.000 NA
ATOM     37  C   UNK A   1     -11.728   7.162 130.529  0.00  0.00    +0.000 A 
ENDBRANCH  28  31
ENDBRANCH  26  27
ENDBRANCH  25  26
ENDBRANCH  24  25
ENDBRANCH  23  24
ENDBRANCH   1  23
TORSDOF 16
ENDMDL
MODEL 4
REMARK VINA RESULT:      -7.4      5.258      8.074
REMARK  Name = Piflufolastat F 18
REMARK  16 active torsions:
REMARK  status: ('A' for Active; 'I' for Inactive)
REMARK    1  A    between atoms: O_1  and  C_2
REMARK    2  A    between atoms: C_2  and  C_4
REMARK    3  A    between atoms: C_4  and  C_5
REMARK    4  A    between atoms: C_5  and  C_6
REMARK    5  A    between atoms: C_6  and  N_7
REMARK    6  A    between atoms: C_6  and  C_29
REMARK    7  A    between atoms: N_10  and  C_11
REMARK    8  A    between atoms: C_11  and  C_12
REMARK    9  A    between atoms: C_11  and  C_26
REMARK   10  A    between atoms: C_12  and  C_13
REMARK   11  A    between atoms: C_13  and  C_14
REMARK   12  A    between atoms: C_14  and  C_15
REMARK   13  A    between atoms: C_15  and  N_16
REMARK   14  A    between atoms: C_17  and  C_19
REMARK   15  A    between atoms: C_26  and  O_27
REMARK   16  A    between atoms: C_29  and  O_30
REMARK                            x       y       z     vdW  Elec       q    Type
REMARK                         _______ _______ _______ _____ _____    ______ ____
ROOT
ATOM      1  C   UNK A   1      -8.066   2.813 130.794  0.00  0.00    +0.000 C 
ENDROOT
BRANCH   1   5
ATOM      2  N   UNK A   1      -4.998   4.642 129.917  0.00  0.00    +0.000 N 
ATOM      3  C   UNK A   0      -6.236   4.108 129.663  0.00  0.00    +0.000 C 
ATOM      4  O   UNK A   0      -6.521   3.678 128.552  0.00  0.00    +0.000 OA
ATOM      5  N   UNK A   1      -6.959   3.820 130.792  0.00  0.00    +0.000 N 
ATOM      6  H   UNK A   1      -4.994   5.318 130.669  0.00  0.00    +0.000 HD
ATOM      7  H   UNK A   1      -6.811   4.444 131.563  0.00  0.00    +0.000 HD
BRANCH   2   8
ATOM      8  C   UNK A   1      -3.981   4.929 128.844  0.00  0.00    +0.000 C 
BRANCH   8   9
ATOM      9  C   UNK A   1      -3.118   3.760 128.266  0.00  0.00    +0.000 C 
ATOM     10  O   UNK A   1      -3.379   2.577 128.451  0.00  0.00    +0.000 OA
BRANCH   9  11
ATOM     11  O   UNK A   1      -2.113   4.111 127.454  0.00  0.00    +0.000 OA
ATOM     12  H   UNK A   1      -1.395   4.474 128.003  0.00  0.00    +0.000 HD
ENDBRANCH   9  11
ENDBRANCH   8   9
BRANCH   8  13
ATOM     13  C   UNK A   1      -3.004   6.019 129.395  0.00  0.00    +0.000 C 
BRANCH  13  14
ATOM     14  C   UNK A   1      -3.224   7.443 128.845  0.00  0.00    +0.000 C 
BRANCH  14  15
ATOM     15  C   UNK A   1      -4.251   8.235 129.605  0.00  0.00    +0.000 C 
ATOM     16  O   UNK A   1      -5.140   7.743 130.289  0.00  0.00    +0.000 OA
BRANCH  15  17
ATOM     17  O   UNK A   1      -4.076   9.572 129.492  0.00  0.00    +0.000 OA
ATOM     18  H   UNK A   1      -4.024   9.906 128.573  0.00  0.00    +0.000 HD
ENDBRANCH  15  17
ENDBRANCH  14  15
ENDBRANCH  13  14
ENDBRANCH   8  13
ENDBRANCH   2   8
ENDBRANCH   1   5
BRANCH   1  19
ATOM     19  C   UNK A   1      -9.470   3.312 130.370  0.00  0.00    +0.000 C 
ATOM     20  O   UNK A   1      -9.698   3.813 129.276  0.00  0.00    +0.000 OA
BRANCH  19  21
ATOM     21  O   UNK A   1     -10.469   3.151 131.261  0.00  0.00    +0.000 OA
ATOM     22  H   UNK A   1     -10.233   2.859 132.151  0.00  0.00    +0.000 HD
ENDBRANCH  19  21
ENDBRANCH   1  19
BRANCH   1  23
ATOM     23  C   UNK A   1      -8.251   2.127 132.188  0.00  0.00    +0.000 C 
BRANCH  23  24
ATOM     24  C   UNK A   1      -7.663   2.934 133.339  0.00  0.00    +0.000 C 
BRANCH  24  25
ATOM     25  C   UNK A   1      -8.629   3.804 134.127  0.00  0.00    +0.000 C 
BRANCH  25  26
ATOM     26  C   UNK A   1      -8.421   5.283 133.768  0.00  0.00    +0.000 C 
BRANCH  26  27
ATOM     27  N   UNK A   1      -9.528   5.813 132.993  0.00  0.00    +0.000 N 
ATOM     28  C   UNK A   1      -9.315   6.428 131.773  0.00  0.00    +0.000 C 
ATOM     29  O   UNK A   1      -8.213   6.613 131.273  0.00  0.00    +0.000 OA
ATOM     30  H   UNK A   1     -10.466   5.562 133.274  0.00  0.00    +0.000 HD
BRANCH  28  31
ATOM     31  C   UNK A   1     -10.527   6.833 131.028  0.00  0.00    +0.000 A 
ATOM     32  C   UNK A   1     -11.808   6.738 131.574  0.00  0.00    +0.000 A 
ATOM     33  C   UNK A   1     -12.904   7.118 130.799  0.00  0.00    +0.000 A 
ATOM     34  C   UNK A   1     -12.685   7.497 129.484  0.00  0.00    +0.000 A 
ATOM     35  F   UNK A   1     -13.748   7.704 128.694  0.00  0.00    +0.000 F 
ATOM     36  N   UNK A   1     -11.460   7.648 128.943  0.00  0.00    +0.000 NA
ATOM     37  C   UNK A   1     -10.403   7.361 129.749  0.00  0.00    +0.000 A 
ENDBRANCH  28  31
ENDBRANCH  26  27
ENDBRANCH  25  26
ENDBRANCH  24  25
ENDBRANCH  23  24
ENDBRANCH   1  23
TORSDOF 16
ENDMDL
MODEL 5
REMARK VINA RESULT:      -7.2      4.834      7.185
REMARK  Name = Piflufolastat F 18
REMARK  16 active torsions:
REMARK  status: ('A' for Active; 'I' for Inactive)
REMARK    1  A    between atoms: O_1  and  C_2
REMARK    2  A    between atoms: C_2  and  C_4
REMARK    3  A    between atoms: C_4  and  C_5
REMARK    4  A    between atoms: C_5  and  C_6
REMARK    5  A    between atoms: C_6  and  N_7
REMARK    6  A    between atoms: C_6  and  C_29
REMARK    7  A    between atoms: N_10  and  C_11
REMARK    8  A    between atoms: C_11  and  C_12
REMARK    9  A    between atoms: C_11  and  C_26
REMARK   10  A    between atoms: C_12  and  C_13
REMARK   11  A    between atoms: C_13  and  C_14
REMARK   12  A    between atoms: C_14  and  C_15
REMARK   13  A    between atoms: C_15  and  N_16
REMARK   14  A    between atoms: C_17  and  C_19
REMARK   15  A    between atoms: C_26  and  O_27
REMARK   16  A    between atoms: C_29  and  O_30
REMARK                            x       y       z     vdW  Elec       q    Type
REMARK                         _______ _______ _______ _____ _____    ______ ____
ROOT
ATOM      1  C   UNK A   1      -4.213   4.450 127.029  0.00  0.00    +0.000 C 
ENDROOT
BRANCH   1   5
ATOM      2  N   UNK A   1      -6.006   3.205 124.068  0.00  0.00    +0.000 N 
ATOM      3  C   UNK A   0      -5.368   4.160 124.818  0.00  0.00    +0.000 C 
ATOM      4  O   UNK A   0      -5.707   5.336 124.760  0.00  0.00    +0.000 OA
ATOM      5  N   UNK A   1      -4.584   3.649 125.819  0.00  0.00    +0.000 N 
ATOM      6  H   UNK A   1      -5.429   2.401 123.857  0.00  0.00    +0.000 HD
ATOM      7  H   UNK A   1      -4.143   2.773 125.610  0.00  0.00    +0.000 HD
BRANCH   2   8
ATOM      8  C   UNK A   1      -7.008   3.526 122.991  0.00  0.00    +0.000 C 
BRANCH   8   9
ATOM      9  C   UNK A   1      -8.456   2.943 123.084  0.00  0.00    +0.000 C 
ATOM     10  O   UNK A   1      -8.946   2.220 122.225  0.00  0.00    +0.000 OA
BRANCH   9  11
ATOM     11  O   UNK A   1      -9.122   3.189 124.219  0.00  0.00    +0.000 OA
ATOM     12  H   UNK A   1      -8.498   3.577 124.857  0.00  0.00    +0.000 HD
ENDBRANCH   9  11
ENDBRANCH   8   9
BRANCH   8  13
ATOM     13  C   UNK A   1      -6.398   3.075 121.623  0.00  0.00    +0.000 C 
BRANCH  13  14
ATOM     14  C   UNK A   1      -5.196   3.905 121.130  0.00  0.00    +0.000 C 
BRANCH  14  15
ATOM     15  C   UNK A   1      -5.555   4.943 120.104  0.00  0.00    +0.000 C 
ATOM     16  O   UNK A   1      -6.451   4.822 119.278  0.00  0.00    +0.000 OA
BRANCH  15  17
ATOM     17  O   UNK A   1      -4.806   6.065 120.204  0.00  0.00    +0.000 OA
ATOM     18  H   UNK A   1      -3.917   6.007 119.797  0.00  0.00    +0.000 HD
ENDBRANCH  15  17
ENDBRANCH  14  15
ENDBRANCH  13  14
ENDBRANCH   8  13
ENDBRANCH   2   8
ENDBRANCH   1   5
BRANCH   1  19
ATOM     19  C   UNK A   1      -2.711   4.501 127.402  0.00  0.00    +0.000 C 
ATOM     20  O   UNK A   1      -1.948   3.557 127.233  0.00  0.00    +0.000 OA
BRANCH  19  21
ATOM     21  O   UNK A   1      -2.248   5.661 127.911  0.00  0.00    +0.000 OA
ATOM     22  H   UNK A   1      -1.458   5.623 128.466  0.00  0.00    +0.000 HD
ENDBRANCH  19  21
ENDBRANCH   1  19
BRANCH   1  23
ATOM     23  C   UNK A   1      -4.965   3.975 128.316  0.00  0.00    +0.000 C 
BRANCH  23  24
ATOM     24  C   UNK A   1      -6.476   3.890 128.136  0.00  0.00    +0.000 C 
BRANCH  24  25
ATOM     25  C   UNK A   1      -7.117   2.534 128.379  0.00  0.00    +0.000 C 
BRANCH  25  26
ATOM     26  C   UNK A   1      -7.885   2.079 127.129  0.00  0.00    +0.000 C 
BRANCH  26  27
ATOM     27  N   UNK A   1      -7.184   1.028 126.416  0.00  0.00    +0.000 N 
ATOM     28  C   UNK A   1      -7.851   0.197 125.533  0.00  0.00    +0.000 C 
ATOM     29  O   UNK A   1      -9.054   0.242 125.313  0.00  0.00    +0.000 OA
ATOM     30  H   UNK A   1      -6.174   1.032 126.438  0.00  0.00    +0.000 HD
BRANCH  28  31
ATOM     31  C   UNK A   1      -7.012  -0.767 124.789  0.00  0.00    +0.000 A 
ATOM     32  C   UNK A   1      -6.934  -0.773 123.396  0.00  0.00    +0.000 A 
ATOM     33  C   UNK A   1      -6.139  -1.731 122.767  0.00  0.00    +0.000 A 
ATOM     34  C   UNK A   1      -5.522  -2.695 123.547  0.00  0.00    +0.000 A 
ATOM     35  F   UNK A   1      -4.894  -3.709 122.933  0.00  0.00    +0.000 F 
ATOM     36  N   UNK A   1      -5.535  -2.688 124.894  0.00  0.00    +0.000 NA
ATOM     37  C   UNK A   1      -6.241  -1.689 125.487  0.00  0.00    +0.000 A 
ENDBRANCH  28  31
ENDBRANCH  26  27
ENDBRANCH  25  26
ENDBRANCH  24  25
ENDBRANCH  23  24
ENDBRANCH   1  23
TORSDOF 16
ENDMDL
MODEL 6
REMARK VINA RESULT:      -7.2      4.658      5.781
REMARK  Name = Piflufolastat F 18
REMARK  16 active torsions:
REMARK  status: ('A' for Active; 'I' for Inactive)
REMARK    1  A    between atoms: O_1  and  C_2
REMARK    2  A    between atoms: C_2  and  C_4
REMARK    3  A    between atoms: C_4  and  C_5
REMARK    4  A    between atoms: C_5  and  C_6
REMARK    5  A    between atoms: C_6  and  N_7
REMARK    6  A    between atoms: C_6  and  C_29
REMARK    7  A    between atoms: N_10  and  C_11
REMARK    8  A    between atoms: C_11  and  C_12
REMARK    9  A    between atoms: C_11  and  C_26
REMARK   10  A    between atoms: C_12  and  C_13
REMARK   11  A    between atoms: C_13  and  C_14
REMARK   12  A    between atoms: C_14  and  C_15
REMARK   13  A    between atoms: C_15  and  N_16
REMARK   14  A    between atoms: C_17  and  C_19
REMARK   15  A    between atoms: C_26  and  O_27
REMARK   16  A    between atoms: C_29  and  O_30
REMARK                            x       y       z     vdW  Elec       q    Type
REMARK                         _______ _______ _______ _____ _____    ______ ____
ROOT
ATOM      1  C   UNK A   1      -9.249   2.986 131.776  0.00  0.00    +0.000 C 
ENDROOT
BRANCH   1   5
ATOM      2  N   UNK A   1     -11.539   5.443 130.277  0.00  0.00    +0.000 N 
ATOM      3  C   UNK A   0     -10.307   4.903 130.547  0.00  0.00    +0.000 C 
ATOM      4  O   UNK A   0      -9.319   5.616 130.664  0.00  0.00    +0.000 OA
ATOM      5  N   UNK A   1     -10.353   3.601 130.973  0.00  0.00    +0.000 N 
ATOM      6  H   UNK A   1     -12.165   4.808 129.799  0.00  0.00    +0.000 HD
ATOM      7  H   UNK A   1     -11.086   3.046 130.571  0.00  0.00    +0.000 HD
BRANCH   2   8
ATOM      8  C   UNK A   1     -11.751   6.888 129.909  0.00  0.00    +0.000 C 
BRANCH   8   9
ATOM      9  C   UNK A   1     -12.775   7.749 130.717  0.00  0.00    +0.000 C 
ATOM     10  O   UNK A   1     -13.398   7.322 131.682  0.00  0.00    +0.000 OA
BRANCH   9  11
ATOM     11  O   UNK A   1     -12.874   9.037 130.367  0.00  0.00    +0.000 OA
ATOM     12  H   UNK A   1     -13.185   9.537 131.142  0.00  0.00    +0.000 HD
ENDBRANCH   9  11
ENDBRANCH   8   9
BRANCH   8  13
ATOM     13  C   UNK A   1     -12.165   6.938 128.402  0.00  0.00    +0.000 C 
BRANCH  13  14
ATOM     14  C   UNK A   1     -11.420   7.982 127.545  0.00  0.00    +0.000 C 
BRANCH  14  15
ATOM     15  C   UNK A   1     -10.705   7.395 126.360  0.00  0.00    +0.000 C 
ATOM     16  O   UNK A   1     -10.079   6.343 126.379  0.00  0.00    +0.000 OA
BRANCH  15  17
ATOM     17  O   UNK A   1     -10.852   8.134 125.236  0.00  0.00    +0.000 OA
ATOM     18  H   UNK A   1     -10.024   8.518 124.882  0.00  0.00    +0.000 HD
ENDBRANCH  15  17
ENDBRANCH  14  15
ENDBRANCH  13  14
ENDBRANCH   8  13
ENDBRANCH   2   8
ENDBRANCH   1   5
BRANCH   1  19
ATOM     19  C   UNK A   1      -8.996   1.470 131.576  0.00  0.00    +0.000 C 
ATOM     20  O   UNK A   1      -9.806   0.610 131.900  0.00  0.00    +0.000 OA
BRANCH  19  21
ATOM     21  O   UNK A   1      -7.832   1.118 130.996  0.00  0.00    +0.000 OA
ATOM     22  H   UNK A   1      -7.182   1.815 130.834  0.00  0.00    +0.000 HD
ENDBRANCH  19  21
ENDBRANCH   1  19
BRANCH   1  23
ATOM     23  C   UNK A   1      -9.439   3.196 133.315  0.00  0.00    +0.000 C 
BRANCH  23  24
ATOM     24  C   UNK A   1      -8.156   3.602 134.031  0.00  0.00    +0.000 C 
BRANCH  24  25
ATOM     25  C   UNK A   1      -7.203   4.504 133.264  0.00  0.00    +0.000 C 
BRANCH  25  26
ATOM     26  C   UNK A   1      -5.824   3.837 133.145  0.00  0.00    +0.000 C 
BRANCH  26  27
ATOM     27  N   UNK A   1      -4.988   4.497 132.160  0.00  0.00    +0.000 N 
ATOM     28  C   UNK A   1      -5.029   4.127 130.827  0.00  0.00    +0.000 C 
ATOM     29  O   UNK A   1      -5.715   3.217 130.381  0.00  0.00    +0.000 OA
ATOM     30  H   UNK A   1      -4.514   5.347 132.432  0.00  0.00    +0.000 HD
BRANCH  28  31
ATOM     31  C   UNK A   1      -4.209   4.940 129.901  0.00  0.00    +0.000 A 
ATOM     32  C   UNK A   1      -3.268   4.374 129.042  0.00  0.00    +0.000 A 
ATOM     33  C   UNK A   1      -2.517   5.210 128.215  0.00  0.00    +0.000 A 
ATOM     34  C   UNK A   1      -2.676   6.581 128.341  0.00  0.00    +0.000 A 
ATOM     35  F   UNK A   1      -1.840   7.385 127.668  0.00  0.00    +0.000 F 
ATOM     36  N   UNK A   1      -3.610   7.157 129.123  0.00  0.00    +0.000 NA
ATOM     37  C   UNK A   1      -4.394   6.316 129.849  0.00  0.00    +0.000 A 
ENDBRANCH  28  31
ENDBRANCH  26  27
ENDBRANCH  25  26
ENDBRANCH  24  25
ENDBRANCH  23  24
ENDBRANCH   1  23
TORSDOF 16
ENDMDL
MODEL 7
REMARK VINA RESULT:      -7.1      1.949      2.477
REMARK  Name = Piflufolastat F 18
REMARK  16 active torsions:
REMARK  status: ('A' for Active; 'I' for Inactive)
REMARK    1  A    between atoms: O_1  and  C_2
REMARK    2  A    between atoms: C_2  and  C_4
REMARK    3  A    between atoms: C_4  and  C_5
REMARK    4  A    between atoms: C_5  and  C_6
REMARK    5  A    between atoms: C_6  and  N_7
REMARK    6  A    between atoms: C_6  and  C_29
REMARK    7  A    between atoms: N_10  and  C_11
REMARK    8  A    between atoms: C_11  and  C_12
REMARK    9  A    between atoms: C_11  and  C_26
REMARK   10  A    between atoms: C_12  and  C_13
REMARK   11  A    between atoms: C_13  and  C_14
REMARK   12  A    between atoms: C_14  and  C_15
REMARK   13  A    between atoms: C_15  and  N_16
REMARK   14  A    between atoms: C_17  and  C_19
REMARK   15  A    between atoms: C_26  and  O_27
REMARK   16  A    between atoms: C_29  and  O_30
REMARK                            x       y       z     vdW  Elec       q    Type
REMARK                         _______ _______ _______ _____ _____    ______ ____
ROOT
ATOM      1  C   UNK A   1      -7.095   3.940 129.751  0.00  0.00    +0.000 C 
ENDROOT
BRANCH   1   5
ATOM      2  N   UNK A   1     -10.348   5.634 129.462  0.00  0.00    +0.000 N 
ATOM      3  C   UNK A   0      -8.982   5.589 129.583  0.00  0.00    +0.000 C 
ATOM      4  O   UNK A   0      -8.376   6.453 130.206  0.00  0.00    +0.000 OA
ATOM      5  N   UNK A   1      -8.433   4.381 129.242  0.00  0.00    +0.000 N 
ATOM      6  H   UNK A   1     -10.697   5.171 128.634  0.00  0.00    +0.000 HD
ATOM      7  H   UNK A   1      -8.905   3.892 128.505  0.00  0.00    +0.000 HD
BRANCH   2   8
ATOM      8  C   UNK A   1     -11.182   6.813 129.889  0.00  0.00    +0.000 C 
BRANCH   8   9
ATOM      9  C   UNK A   1     -12.155   6.671 131.104  0.00  0.00    +0.000 C 
ATOM     10  O   UNK A   1     -13.288   7.139 131.116  0.00  0.00    +0.000 OA
BRANCH   9  11
ATOM     11  O   UNK A   1     -11.729   5.909 132.119  0.00  0.00    +0.000 OA
ATOM     12  H   UNK A   1     -10.999   5.353 131.794  0.00  0.00    +0.000 HD
ENDBRANCH   9  11
ENDBRANCH   8   9
BRANCH   8  13
ATOM     13  C   UNK A   1     -12.022   7.274 128.653  0.00  0.00    +0.000 C 
BRANCH  13  14
ATOM     14  C   UNK A   1     -11.285   8.192 127.657  0.00  0.00    +0.000 C 
BRANCH  14  15
ATOM     15  C   UNK A   1     -10.757   7.474 126.446  0.00  0.00    +0.000 C 
ATOM     16  O   UNK A   1     -10.319   6.331 126.453  0.00  0.00    +0.000 OA
BRANCH  15  17
ATOM     17  O   UNK A   1     -10.847   8.211 125.315  0.00  0.00    +0.000 OA
ATOM     18  H   UNK A   1     -11.627   8.801 125.266  0.00  0.00    +0.000 HD
ENDBRANCH  15  17
ENDBRANCH  14  15
ENDBRANCH  13  14
ENDBRANCH   8  13
ENDBRANCH   2   8
ENDBRANCH   1   5
BRANCH   1  19
ATOM     19  C   UNK A   1      -5.848   4.528 129.044  0.00  0.00    +0.000 C 
ATOM     20  O   UNK A   1      -5.209   3.913 128.198  0.00  0.00    +0.000 OA
BRANCH  19  21
ATOM     21  O   UNK A   1      -5.491   5.783 129.381  0.00  0.00    +0.000 OA
ATOM     22  H   UNK A   1      -4.550   5.964 129.505  0.00  0.00    +0.000 HD
ENDBRANCH  19  21
ENDBRANCH   1  19
BRANCH   1  23
ATOM     23  C   UNK A   1      -6.923   2.385 129.717  0.00  0.00    +0.000 C 
BRANCH  23  24
ATOM     24  C   UNK A   1      -7.808   1.703 128.681  0.00  0.00    +0.000 C 
BRANCH  24  25
ATOM     25  C   UNK A   1      -7.462   0.266 128.328  0.00  0.00    +0.000 C 
BRANCH  25  26
ATOM     26  C   UNK A   1      -8.234  -0.173 127.074  0.00  0.00    +0.000 C 
BRANCH  26  27
ATOM     27  N   UNK A   1      -7.856   0.603 125.908  0.00  0.00    +0.000 N 
ATOM     28  C   UNK A   1      -8.805   1.029 124.996  0.00  0.00    +0.000 C 
ATOM     29  O   UNK A   1      -9.999   0.766 125.064  0.00  0.00    +0.000 OA
ATOM     30  H   UNK A   1      -6.918   0.978 125.871  0.00  0.00    +0.000 HD
BRANCH  28  31
ATOM     31  C   UNK A   1      -8.314   1.899 123.905  0.00  0.00    +0.000 A 
ATOM     32  C   UNK A   1      -9.138   2.335 122.867  0.00  0.00    +0.000 A 
ATOM     33  C   UNK A   1      -8.594   3.134 121.861  0.00  0.00    +0.000 A 
ATOM     34  C   UNK A   1      -7.233   3.395 121.887  0.00  0.00    +0.000 A 
ATOM     35  F   UNK A   1      -6.683   4.022 120.837  0.00  0.00    +0.000 F 
ATOM     36  N   UNK A   1      -6.421   3.033 122.900  0.00  0.00    +0.000 NA
ATOM     37  C   UNK A   1      -6.995   2.334 123.915  0.00  0.00    +0.000 A 
ENDBRANCH  28  31
ENDBRANCH  26  27
ENDBRANCH  25  26
ENDBRANCH  24  25
ENDBRANCH  23  24
ENDBRANCH   1  23
TORSDOF 16
ENDMDL
MODEL 8
REMARK VINA RESULT:      -7.1      3.796      8.754
REMARK  Name = Piflufolastat F 18
REMARK  16 active torsions:
REMARK  status: ('A' for Active; 'I' for Inactive)
REMARK    1  A    between atoms: O_1  and  C_2
REMARK    2  A    between atoms: C_2  and  C_4
REMARK    3  A    between atoms: C_4  and  C_5
REMARK    4  A    between atoms: C_5  and  C_6
REMARK    5  A    between atoms: C_6  and  N_7
REMARK    6  A    between atoms: C_6  and  C_29
REMARK    7  A    between atoms: N_10  and  C_11
REMARK    8  A    between atoms: C_11  and  C_12
REMARK    9  A    between atoms: C_11  and  C_26
REMARK   10  A    between atoms: C_12  and  C_13
REMARK   11  A    between atoms: C_13  and  C_14
REMARK   12  A    between atoms: C_14  and  C_15
REMARK   13  A    between atoms: C_15  and  N_16
REMARK   14  A    between atoms: C_17  and  C_19
REMARK   15  A    between atoms: C_26  and  O_27
REMARK   16  A    between atoms: C_29  and  O_30
REMARK                            x       y       z     vdW  Elec       q    Type
REMARK                         _______ _______ _______ _____ _____    ______ ____
ROOT
ATOM      1  C   UNK A   1      -8.420   2.494 128.753  0.00  0.00    +0.000 C 
ENDROOT
BRANCH   1   5
ATOM      2  N   UNK A   1      -7.513   0.445 125.836  0.00  0.00    +0.000 N 
ATOM      3  C   UNK A   0      -8.032   1.553 126.458  0.00  0.00    +0.000 C 
ATOM      4  O   UNK A   0      -8.973   2.166 125.970  0.00  0.00    +0.000 OA
ATOM      5  N   UNK A   1      -7.632   1.697 127.761  0.00  0.00    +0.000 N 
ATOM      6  H   UNK A   1      -6.541   0.273 126.057  0.00  0.00    +0.000 HD
ATOM      7  H   UNK A   1      -6.701   1.379 127.959  0.00  0.00    +0.000 HD
BRANCH   2   8
ATOM      8  C   UNK A   1      -7.900   0.014 124.446  0.00  0.00    +0.000 C 
BRANCH   8   9
ATOM      9  C   UNK A   1      -9.092  -0.978 124.249  0.00  0.00    +0.000 C 
ATOM     10  O   UNK A   1      -9.529  -1.294 123.149  0.00  0.00    +0.000 OA
BRANCH   9  11
ATOM     11  O   UNK A   1      -9.565  -1.564 125.356  0.00  0.00    +0.000 OA
ATOM     12  H   UNK A   1      -9.013  -1.281 126.107  0.00  0.00    +0.000 HD
ENDBRANCH   9  11
ENDBRANCH   8   9
BRANCH   8  13
ATOM     13  C   UNK A   1      -6.636  -0.616 123.775  0.00  0.00    +0.000 C 
BRANCH  13  14
ATOM     14  C   UNK A   1      -5.884  -1.657 124.627  0.00  0.00    +0.000 C 
BRANCH  14  15
ATOM     15  C   UNK A   1      -5.925  -3.049 124.060  0.00  0.00    +0.000 C 
ATOM     16  O   UNK A   1      -6.844  -3.840 124.229  0.00  0.00    +0.000 OA
BRANCH  15  17
ATOM     17  O   UNK A   1      -4.845  -3.341 123.298  0.00  0.00    +0.000 OA
ATOM     18  H   UNK A   1      -4.001  -2.960 123.614  0.00  0.00    +0.000 HD
ENDBRANCH  15  17
ENDBRANCH  14  15
ENDBRANCH  13  14
ENDBRANCH   8  13
ENDBRANCH   2   8
ENDBRANCH   1   5
BRANCH   1  19
ATOM     19  C   UNK A   1      -8.098   4.006 128.854  0.00  0.00    +0.000 C 
ATOM     20  O   UNK A   1      -7.551   4.508 129.828  0.00  0.00    +0.000 OA
BRANCH  19  21
ATOM     21  O   UNK A   1      -8.426   4.771 127.793  0.00  0.00    +0.000 OA
ATOM     22  H   UNK A   1      -8.830   5.631 127.969  0.00  0.00    +0.000 HD
ENDBRANCH  19  21
ENDBRANCH   1  19
BRANCH   1  23
ATOM     23  C   UNK A   1      -8.303   1.927 130.207  0.00  0.00    +0.000 C 
BRANCH  23  24
ATOM     24  C   UNK A   1      -9.606   2.011 130.994  0.00  0.00    +0.000 C 
BRANCH  24  25
ATOM     25  C   UNK A   1      -9.484   2.160 132.502  0.00  0.00    +0.000 C 
BRANCH  25  26
ATOM     26  C   UNK A   1      -9.239   3.631 132.870  0.00  0.00    +0.000 C 
BRANCH  26  27
ATOM     27  N   UNK A   1      -9.837   4.537 131.907  0.00  0.00    +0.000 N 
ATOM     28  C   UNK A   1      -9.952   5.889 132.175  0.00  0.00    +0.000 C 
ATOM     29  O   UNK A   1      -9.613   6.419 133.225  0.00  0.00    +0.000 OA
ATOM     30  H   UNK A   1      -9.998   4.194 130.970  0.00  0.00    +0.000 HD
BRANCH  28  31
ATOM     31  C   UNK A   1     -10.481   6.727 131.077  0.00  0.00    +0.000 A 
ATOM     32  C   UNK A   1     -11.829   7.073 130.983  0.00  0.00    +0.000 A 
ATOM     33  C   UNK A   1     -12.255   7.847 129.903  0.00  0.00    +0.000 A 
ATOM     34  C   UNK A   1     -11.336   8.172 128.918  0.00  0.00    +0.000 A 
ATOM     35  F   UNK A   1     -11.779   8.773 127.804  0.00  0.00    +0.000 F 
ATOM     36  N   UNK A   1     -10.020   7.897 129.004  0.00  0.00    +0.000 NA
ATOM     37  C   UNK A   1      -9.613   7.223 130.112  0.00  0.00    +0.000 A 
ENDBRANCH  28  31
ENDBRANCH  26  27
ENDBRANCH  25  26
ENDBRANCH  24  25
ENDBRANCH  23  24
ENDBRANCH   1  23
TORSDOF 16
ENDMDL
MODEL 9
REMARK VINA RESULT:      -7.1      5.673      8.408
REMARK  Name = Piflufolastat F 18
REMARK  16 active torsions:
REMARK  status: ('A' for Active; 'I' for Inactive)
REMARK    1  A    between atoms: O_1  and  C_2
REMARK    2  A    between atoms: C_2  and  C_4
REMARK    3  A    between atoms: C_4  and  C_5
REMARK    4  A    between atoms: C_5  and  C_6
REMARK    5  A    between atoms: C_6  and  N_7
REMARK    6  A    between atoms: C_6  and  C_29
REMARK    7  A    between atoms: N_10  and  C_11
REMARK    8  A    between atoms: C_11  and  C_12
REMARK    9  A    between atoms: C_11  and  C_26
REMARK   10  A    between atoms: C_12  and  C_13
REMARK   11  A    between atoms: C_13  and  C_14
REMARK   12  A    between atoms: C_14  and  C_15
REMARK   13  A    between atoms: C_15  and  N_16
REMARK   14  A    between atoms: C_17  and  C_19
REMARK   15  A    between atoms: C_26  and  O_27
REMARK   16  A    between atoms: C_29  and  O_30
REMARK                            x       y       z     vdW  Elec       q    Type
REMARK                         _______ _______ _______ _____ _____    ______ ____
ROOT
ATOM      1  C   UNK A   1      -7.575   4.835 132.920  0.00  0.00    +0.000 C 
ENDROOT
BRANCH   1   5
ATOM      2  N   UNK A   1      -4.624   6.429 131.411  0.00  0.00    +0.000 N 
ATOM      3  C   UNK A   0      -5.923   6.395 131.853  0.00  0.00    +0.000 C 
ATOM      4  O   UNK A   0      -6.794   7.052 131.297  0.00  0.00    +0.000 OA
ATOM      5  N   UNK A   1      -6.189   5.363 132.714  0.00  0.00    +0.000 N 
ATOM      6  H   UNK A   1      -3.944   6.224 132.132  0.00  0.00    +0.000 HD
ATOM      7  H   UNK A   1      -5.430   5.102 133.315  0.00  0.00    +0.000 HD
BRANCH   2   8
ATOM      8  C   UNK A   1      -4.125   7.398 130.372  0.00  0.00    +0.000 C 
BRANCH   8   9
ATOM      9  C   UNK A   1      -3.518   6.854 129.038  0.00  0.00    +0.000 C 
ATOM     10  O   UNK A   1      -4.158   6.760 127.997  0.00  0.00    +0.000 OA
BRANCH   9  11
ATOM     11  O   UNK A   1      -2.207   6.581 129.051  0.00  0.00    +0.000 OA
ATOM     12  H   UNK A   1      -1.821   6.913 128.221  0.00  0.00    +0.000 HD
ENDBRANCH   9  11
ENDBRANCH   8   9
BRANCH   8  13
ATOM     13  C   UNK A   1      -3.051   8.311 131.049  0.00  0.00    +0.000 C 
BRANCH  13  14
ATOM     14  C   UNK A   1      -2.532   7.820 132.415  0.00  0.00    +0.000 C 
BRANCH  14  15
ATOM     15  C   UNK A   1      -1.246   7.045 132.332  0.00  0.00    +0.000 C 
ATOM     16  O   UNK A   1      -0.157   7.464 132.703  0.00  0.00    +0.000 OA
BRANCH  15  17
ATOM     17  O   UNK A   1      -1.412   5.799 131.832  0.00  0.00    +0.000 OA
ATOM     18  H   UNK A   1      -2.271   5.379 132.043  0.00  0.00    +0.000 HD
ENDBRANCH  15  17
ENDBRANCH  14  15
ENDBRANCH  13  14
ENDBRANCH   8  13
ENDBRANCH   2   8
ENDBRANCH   1   5
BRANCH   1  19
ATOM     19  C   UNK A   1      -8.561   5.738 133.703  0.00  0.00    +0.000 C 
ATOM     20  O   UNK A   1      -9.504   6.313 133.172  0.00  0.00    +0.000 OA
BRANCH  19  21
ATOM     21  O   UNK A   1      -8.358   5.856 135.030  0.00  0.00    +0.000 OA
ATOM     22  H   UNK A   1      -7.863   5.153 135.472  0.00  0.00    +0.000 HD
ENDBRANCH  19  21
ENDBRANCH   1  19
BRANCH   1  23
ATOM     23  C   UNK A   1      -7.587   3.448 133.646  0.00  0.00    +0.000 C 
BRANCH  23  24
ATOM     24  C   UNK A   1      -8.207   2.335 132.809  0.00  0.00    +0.000 C 
BRANCH  24  25
ATOM     25  C   UNK A   1      -9.710   2.398 132.596  0.00  0.00    +0.000 C 
BRANCH  25  26
ATOM     26  C   UNK A   1     -10.024   2.806 131.148  0.00  0.00    +0.000 C 
BRANCH  26  27
ATOM     27  N   UNK A   1     -10.642   4.116 131.077  0.00  0.00    +0.000 N 
ATOM     28  C   UNK A   1     -10.293   5.017 130.087  0.00  0.00    +0.000 C 
ATOM     29  O   UNK A   1      -9.434   4.816 129.238  0.00  0.00    +0.000 OA
ATOM     30  H   UNK A   1     -11.457   4.289 131.650  0.00  0.00    +0.000 HD
BRANCH  28  31
ATOM     31  C   UNK A   1     -11.064   6.279 130.054  0.00  0.00    +0.000 A 
ATOM     32  C   UNK A   1     -12.130   6.527 130.919  0.00  0.00    +0.000 A 
ATOM     33  C   UNK A   1     -12.824   7.733 130.810  0.00  0.00    +0.000 A 
ATOM     34  C   UNK A   1     -12.481   8.603 129.788  0.00  0.00    +0.000 A 
ATOM     35  F   UNK A   1     -13.251   9.682 129.582  0.00  0.00    +0.000 F 
ATOM     36  N   UNK A   1     -11.426   8.418 128.970  0.00  0.00    +0.000 NA
ATOM     37  C   UNK A   1     -10.708   7.279 129.157  0.00  0.00    +0.000 A 
ENDBRANCH  28  31
ENDBRANCH  26  27
ENDBRANCH  25  26
ENDBRANCH  24  25
ENDBRANCH  23  24
ENDBRANCH   1  23
TORSDOF 16
ENDMDL
