MODEL 1
REMARK VINA RESULT:      -6.1      0.000      0.000
REMARK  Name = Pilocarpine
REMARK  5 active torsions:
REMARK  status: ('A' for Active; 'I' for Inactive)
REMARK    1  A    between atoms: C_1  and  C_2
REMARK    2  A    between atoms: C_2  and  C_3
REMARK    3  A    between atoms: C_4  and  C_5
REMARK    4  A    between atoms: C_5  and  C_6
REMARK    5  A    between atoms: N_10  and  C_11
REMARK                            x       y       z     vdW  Elec       q    Type
REMARK                         _______ _______ _______ _____ _____    ______ ____
ROOT
ATOM      1  C   UNL     1     -12.017   8.588 128.321  0.00  0.00    +0.000 C 
ATOM      2  C   UNL     1     -10.547   8.182 128.520  0.00  0.00    +0.000 C 
ATOM      3  C   UNL     1     -10.477   7.151 127.392  0.00  0.00    +0.000 C 
ATOM      4  O   UNL     1     -11.739   6.482 127.352  0.00  0.00    +0.000 OA
ATOM      5  C   UNL     1     -12.670   7.339 127.809  0.00  0.00    +0.000 C 
ATOM      6  O   UNL     1     -13.887   7.075 127.870  0.00  0.00    +0.000 OA
ENDROOT
BRANCH   1   8
ATOM      7  C   UNL     1     -13.208  10.328 129.720  0.00  0.00    +0.000 C 
ATOM      8  C   UNL     1     -12.686   8.873 129.598  0.00  0.00    +0.000 C 
ENDBRANCH   1   8
BRANCH   2   9
ATOM      9  C   UNL     1     -10.101   7.576 129.932  0.00  0.00    +0.000 C 
BRANCH   9  10
ATOM     10  C   UNL     1     -10.122   6.012 130.098  0.00  0.00    +0.000 A 
ATOM     11  C   UNL     1     -11.249   5.288 130.475  0.00  0.00    +0.000 A 
ATOM     12  N   UNL     1     -11.075   3.947 130.303  0.00  0.00    +0.000 NA
ATOM     13  C   UNL     1      -9.837   3.805 129.910  0.00  0.00    +0.000 A 
ATOM     14  N   UNL     1      -9.122   4.983 129.986  0.00  0.00    +0.000 N 
ATOM     15  C   UNL     1      -7.645   4.920 129.948  0.00  0.00    +0.000 C 
ENDBRANCH   9  10
ENDBRANCH   2   9
TORSDOF 3
ENDMDL
MODEL 2
REMARK VINA RESULT:      -5.5      1.962      3.058
REMARK  Name = Pilocarpine
REMARK  5 active torsions:
REMARK  status: ('A' for Active; 'I' for Inactive)
REMARK    1  A    between atoms: C_1  and  C_2
REMARK    2  A    between atoms: C_2  and  C_3
REMARK    3  A    between atoms: C_4  and  C_5
REMARK    4  A    between atoms: C_5  and  C_6
REMARK    5  A    between atoms: N_10  and  C_11
REMARK                            x       y       z     vdW  Elec       q    Type
REMARK                         _______ _______ _______ _____ _____    ______ ____
ROOT
ATOM      1  C   UNL     1     -12.131   7.660 128.661  0.00  0.00    +0.000 C 
ATOM      2  C   UNL     1     -11.309   6.865 129.689  0.00  0.00    +0.000 C 
ATOM      3  C   UNL     1     -12.223   7.104 130.893  0.00  0.00    +0.000 C 
ATOM      4  O   UNL     1     -12.731   8.435 130.780  0.00  0.00    +0.000 OA
ATOM      5  C   UNL     1     -12.769   8.747 129.472  0.00  0.00    +0.000 C 
ATOM      6  O   UNL     1     -13.199   9.832 129.029  0.00  0.00    +0.000 OA
ENDROOT
BRANCH   1   8
ATOM      7  C   UNL     1     -11.034   7.565 126.383  0.00  0.00    +0.000 C 
ATOM      8  C   UNL     1     -11.273   8.358 127.694  0.00  0.00    +0.000 C 
ENDBRANCH   1   8
BRANCH   2   9
ATOM      9  C   UNL     1      -9.797   7.306 129.972  0.00  0.00    +0.000 C 
BRANCH   9  10
ATOM     10  C   UNL     1      -8.916   6.367 130.874  0.00  0.00    +0.000 A 
ATOM     11  C   UNL     1      -7.663   6.720 131.367  0.00  0.00    +0.000 A 
ATOM     12  N   UNL     1      -7.223   5.845 132.316  0.00  0.00    +0.000 NA
ATOM     13  C   UNL     1      -8.129   4.905 132.368  0.00  0.00    +0.000 A 
ATOM     14  N   UNL     1      -9.068   5.022 131.363  0.00  0.00    +0.000 N 
ATOM     15  C   UNL     1      -9.919   3.855 131.048  0.00  0.00    +0.000 C 
ENDBRANCH   9  10
ENDBRANCH   2   9
TORSDOF 3
ENDMDL
MODEL 3
REMARK VINA RESULT:      -5.5     10.113     11.177
REMARK  Name = Pilocarpine
REMARK  5 active torsions:
REMARK  status: ('A' for Active; 'I' for Inactive)
REMARK    1  A    between atoms: C_1  and  C_2
REMARK    2  A    between atoms: C_2  and  C_3
REMARK    3  A    between atoms: C_4  and  C_5
REMARK    4  A    between atoms: C_5  and  C_6
REMARK    5  A    between atoms: N_10  and  C_11
REMARK                            x       y       z     vdW  Elec       q    Type
REMARK                         _______ _______ _______ _____ _____    ______ ____
ROOT
ATOM      1  C   UNL     1      -7.363  -3.411 124.320  0.00  0.00    +0.000 C 
ATOM      2  C   UNL     1      -7.999  -3.288 125.715  0.00  0.00    +0.000 C 
ATOM      3  C   UNL     1      -9.432  -3.015 125.251  0.00  0.00    +0.000 C 
ATOM      4  O   UNL     1      -9.349  -2.206 124.076  0.00  0.00    +0.000 OA
ATOM      5  C   UNL     1      -8.183  -2.488 123.468  0.00  0.00    +0.000 C 
ATOM      6  O   UNL     1      -7.818  -1.974 122.391  0.00  0.00    +0.000 OA
ENDROOT
BRANCH   1   8
ATOM      7  C   UNL     1      -4.925  -3.871 123.828  0.00  0.00    +0.000 C 
ATOM      8  C   UNL     1      -6.003  -2.856 124.286  0.00  0.00    +0.000 C 
ENDBRANCH   1   8
BRANCH   2   9
ATOM      9  C   UNL     1      -7.455  -2.161 126.712  0.00  0.00    +0.000 C 
BRANCH   9  10
ATOM     10  C   UNL     1      -7.160  -2.578 128.199  0.00  0.00    +0.000 A 
ATOM     11  C   UNL     1      -8.132  -2.643 129.193  0.00  0.00    +0.000 A 
ATOM     12  N   UNL     1      -7.673  -3.265 130.316  0.00  0.00    +0.000 NA
ATOM     13  C   UNL     1      -6.412  -3.514 130.084  0.00  0.00    +0.000 A 
ATOM     14  N   UNL     1      -5.963  -2.922 128.921  0.00  0.00    +0.000 N 
ATOM     15  C   UNL     1      -4.505  -2.783 128.712  0.00  0.00    +0.000 C 
ENDBRANCH   9  10
ENDBRANCH   2   9
TORSDOF 3
ENDMDL
MODEL 4
REMARK VINA RESULT:      -5.4      8.446     10.820
REMARK  Name = Pilocarpine
REMARK  5 active torsions:
REMARK  status: ('A' for Active; 'I' for Inactive)
REMARK    1  A    between atoms: C_1  and  C_2
REMARK    2  A    between atoms: C_2  and  C_3
REMARK    3  A    between atoms: C_4  and  C_5
REMARK    4  A    between atoms: C_5  and  C_6
REMARK    5  A    between atoms: N_10  and  C_11
REMARK                            x       y       z     vdW  Elec       q    Type
REMARK                         _______ _______ _______ _____ _____    ______ ____
ROOT
ATOM      1  C   UNL     1      -6.225  -2.475 124.898  0.00  0.00    +0.000 C 
ATOM      2  C   UNL     1      -6.542  -0.978 125.045  0.00  0.00    +0.000 C 
ATOM      3  C   UNL     1      -7.740  -1.125 125.986  0.00  0.00    +0.000 C 
ATOM      4  O   UNL     1      -8.450  -2.299 125.585  0.00  0.00    +0.000 OA
ATOM      5  C   UNL     1      -7.563  -3.141 125.026  0.00  0.00    +0.000 C 
ATOM      6  O   UNL     1      -7.856  -4.277 124.600  0.00  0.00    +0.000 OA
ENDROOT
BRANCH   1   8
ATOM      7  C   UNL     1      -4.526  -3.746 123.520  0.00  0.00    +0.000 C 
ATOM      8  C   UNL     1      -5.760  -2.808 123.545  0.00  0.00    +0.000 C 
ENDBRANCH   1   8
BRANCH   2   9
ATOM      9  C   UNL     1      -6.896  -0.134 123.732  0.00  0.00    +0.000 C 
BRANCH   9  10
ATOM     10  C   UNL     1      -8.337   0.486 123.625  0.00  0.00    +0.000 A 
ATOM     11  C   UNL     1      -9.378  -0.094 122.907  0.00  0.00    +0.000 A 
ATOM     12  N   UNL     1     -10.576   0.499 123.176  0.00  0.00    +0.000 NA
ATOM     13  C   UNL     1     -10.299   1.493 123.978  0.00  0.00    +0.000 A 
ATOM     14  N   UNL     1      -8.941   1.698 124.114  0.00  0.00    +0.000 N 
ATOM     15  C   UNL     1      -8.470   2.988 124.663  0.00  0.00    +0.000 C 
ENDBRANCH   9  10
ENDBRANCH   2   9
TORSDOF 3
ENDMDL
MODEL 5
REMARK VINA RESULT:      -5.2      7.532      9.954
REMARK  Name = Pilocarpine
REMARK  5 active torsions:
REMARK  status: ('A' for Active; 'I' for Inactive)
REMARK    1  A    between atoms: C_1  and  C_2
REMARK    2  A    between atoms: C_2  and  C_3
REMARK    3  A    between atoms: C_4  and  C_5
REMARK    4  A    between atoms: C_5  and  C_6
REMARK    5  A    between atoms: N_10  and  C_11
REMARK                            x       y       z     vdW  Elec       q    Type
REMARK                         _______ _______ _______ _____ _____    ______ ____
ROOT
ATOM      1  C   UNL     1      -8.193  -2.507 125.912  0.00  0.00    +0.000 C 
ATOM      2  C   UNL     1      -7.935  -0.992 125.950  0.00  0.00    +0.000 C 
ATOM      3  C   UNL     1      -7.244  -0.948 127.315  0.00  0.00    +0.000 C 
ATOM      4  O   UNL     1      -7.894  -1.909 128.149  0.00  0.00    +0.000 OA
ATOM      5  C   UNL     1      -8.380  -2.878 127.353  0.00  0.00    +0.000 C 
ATOM      6  O   UNL     1      -8.976  -3.889 127.774  0.00  0.00    +0.000 OA
ENDROOT
BRANCH   1   8
ATOM      7  C   UNL     1      -9.333  -3.243 123.777  0.00  0.00    +0.000 C 
ATOM      8  C   UNL     1      -9.472  -2.831 125.265  0.00  0.00    +0.000 C 
ENDBRANCH   1   8
BRANCH   2   9
ATOM      9  C   UNL     1      -9.186   0.004 125.866  0.00  0.00    +0.000 C 
BRANCH   9  10
ATOM     10  C   UNL     1      -9.157   1.126 124.766  0.00  0.00    +0.000 A 
ATOM     11  C   UNL     1      -8.821   2.452 125.021  0.00  0.00    +0.000 A 
ATOM     12  N   UNL     1      -8.628   3.160 123.872  0.00  0.00    +0.000 NA
ATOM     13  C   UNL     1      -8.920   2.334 122.902  0.00  0.00    +0.000 A 
ATOM     14  N   UNL     1      -9.473   1.156 123.362  0.00  0.00    +0.000 N 
ATOM     15  C   UNL     1     -10.198   0.292 122.405  0.00  0.00    +0.000 C 
ENDBRANCH   9  10
ENDBRANCH   2   9
TORSDOF 3
ENDMDL
MODEL 6
REMARK VINA RESULT:      -5.1      9.173     10.139
REMARK  Name = Pilocarpine
REMARK  5 active torsions:
REMARK  status: ('A' for Active; 'I' for Inactive)
REMARK    1  A    between atoms: C_1  and  C_2
REMARK    2  A    between atoms: C_2  and  C_3
REMARK    3  A    between atoms: C_4  and  C_5
REMARK    4  A    between atoms: C_5  and  C_6
REMARK    5  A    between atoms: N_10  and  C_11
REMARK                            x       y       z     vdW  Elec       q    Type
REMARK                         _______ _______ _______ _____ _____    ______ ____
ROOT
ATOM      1  C   UNL     1      -8.063  -1.519 123.974  0.00  0.00    +0.000 C 
ATOM      2  C   UNL     1      -8.149  -2.726 124.922  0.00  0.00    +0.000 C 
ATOM      3  C   UNL     1      -8.963  -3.639 124.001  0.00  0.00    +0.000 C 
ATOM      4  O   UNL     1      -9.888  -2.809 123.294  0.00  0.00    +0.000 OA
ATOM      5  C   UNL     1      -9.340  -1.585 123.190  0.00  0.00    +0.000 C 
ATOM      6  O   UNL     1      -9.880  -0.631 122.595  0.00  0.00    +0.000 OA
ENDROOT
BRANCH   1   8
ATOM      7  C   UNL     1      -6.916   0.688 124.436  0.00  0.00    +0.000 C 
ATOM      8  C   UNL     1      -8.127  -0.244 124.701  0.00  0.00    +0.000 C 
ENDBRANCH   1   8
BRANCH   2   9
ATOM      9  C   UNL     1      -8.838  -2.533 126.354  0.00  0.00    +0.000 C 
BRANCH   9  10
ATOM     10  C   UNL     1      -7.928  -2.664 127.629  0.00  0.00    +0.000 A 
ATOM     11  C   UNL     1      -8.348  -3.236 128.826  0.00  0.00    +0.000 A 
ATOM     12  N   UNL     1      -7.309  -3.454 129.681  0.00  0.00    +0.000 NA
ATOM     13  C   UNL     1      -6.259  -2.952 129.085  0.00  0.00    +0.000 A 
ATOM     14  N   UNL     1      -6.586  -2.247 127.945  0.00  0.00    +0.000 N 
ATOM     15  C   UNL     1      -5.589  -1.315 127.377  0.00  0.00    +0.000 C 
ENDBRANCH   9  10
ENDBRANCH   2   9
TORSDOF 3
ENDMDL
MODEL 7
REMARK VINA RESULT:      -5.0      7.980      9.481
REMARK  Name = Pilocarpine
REMARK  5 active torsions:
REMARK  status: ('A' for Active; 'I' for Inactive)
REMARK    1  A    between atoms: C_1  and  C_2
REMARK    2  A    between atoms: C_2  and  C_3
REMARK    3  A    between atoms: C_4  and  C_5
REMARK    4  A    between atoms: C_5  and  C_6
REMARK    5  A    between atoms: N_10  and  C_11
REMARK                            x       y       z     vdW  Elec       q    Type
REMARK                         _______ _______ _______ _____ _____    ______ ____
ROOT
ATOM      1  C   UNL     1      -7.229   3.355 122.604  0.00  0.00    +0.000 C 
ATOM      2  C   UNL     1      -7.875   2.105 123.224  0.00  0.00    +0.000 C 
ATOM      3  C   UNL     1      -8.146   2.694 124.610  0.00  0.00    +0.000 C 
ATOM      4  O   UNL     1      -7.051   3.557 124.924  0.00  0.00    +0.000 OA
ATOM      5  C   UNL     1      -6.556   4.025 123.764  0.00  0.00    +0.000 C 
ATOM      6  O   UNL     1      -5.610   4.835 123.689  0.00  0.00    +0.000 OA
ENDROOT
BRANCH   1   8
ATOM      7  C   UNL     1      -6.167   3.817 120.355  0.00  0.00    +0.000 C 
ATOM      8  C   UNL     1      -6.142   3.009 121.678  0.00  0.00    +0.000 C 
ENDBRANCH   1   8
BRANCH   2   9
ATOM      9  C   UNL     1      -7.024   0.751 123.290  0.00  0.00    +0.000 C 
BRANCH   9  10
ATOM     10  C   UNL     1      -7.812  -0.605 123.397  0.00  0.00    +0.000 A 
ATOM     11  C   UNL     1      -9.200  -0.698 123.391  0.00  0.00    +0.000 A 
ATOM     12  N   UNL     1      -9.626  -1.984 123.242  0.00  0.00    +0.000 NA
ATOM     13  C   UNL     1      -8.540  -2.711 123.244  0.00  0.00    +0.000 A 
ATOM     14  N   UNL     1      -7.416  -1.979 123.568  0.00  0.00    +0.000 N 
ATOM     15  C   UNL     1      -6.194  -2.701 123.982  0.00  0.00    +0.000 C 
ENDBRANCH   9  10
ENDBRANCH   2   9
TORSDOF 3
ENDMDL
MODEL 8
REMARK VINA RESULT:      -5.0      3.051      3.909
REMARK  Name = Pilocarpine
REMARK  5 active torsions:
REMARK  status: ('A' for Active; 'I' for Inactive)
REMARK    1  A    between atoms: C_1  and  C_2
REMARK    2  A    between atoms: C_2  and  C_3
REMARK    3  A    between atoms: C_4  and  C_5
REMARK    4  A    between atoms: C_5  and  C_6
REMARK    5  A    between atoms: N_10  and  C_11
REMARK                            x       y       z     vdW  Elec       q    Type
REMARK                         _______ _______ _______ _____ _____    ______ ____
ROOT
ATOM      1  C   UNL     1      -9.919   7.114 130.312  0.00  0.00    +0.000 C 
ATOM      2  C   UNL     1      -9.284   6.509 131.574  0.00  0.00    +0.000 C 
ATOM      3  C   UNL     1      -7.974   6.049 130.930  0.00  0.00    +0.000 C 
ATOM      4  O   UNL     1      -8.287   5.597 129.611  0.00  0.00    +0.000 OA
ATOM      5  C   UNL     1      -9.373   6.274 129.195  0.00  0.00    +0.000 C 
ATOM      6  O   UNL     1      -9.886   6.139 128.066  0.00  0.00    +0.000 OA
ENDROOT
BRANCH   1   8
ATOM      7  C   UNL     1     -12.180   8.170 129.894  0.00  0.00    +0.000 C 
ATOM      8  C   UNL     1     -11.372   6.902 130.273  0.00  0.00    +0.000 C 
ENDBRANCH   1   8
BRANCH   2   9
ATOM      9  C   UNL     1     -10.046   5.319 132.326  0.00  0.00    +0.000 C 
BRANCH   9  10
ATOM     10  C   UNL     1      -9.173   4.199 132.999  0.00  0.00    +0.000 A 
ATOM     11  C   UNL     1      -9.277   2.846 132.691  0.00  0.00    +0.000 A 
ATOM     12  N   UNL     1      -8.250   2.121 133.220  0.00  0.00    +0.000 NA
ATOM     13  C   UNL     1      -7.553   2.971 133.926  0.00  0.00    +0.000 A 
ATOM     14  N   UNL     1      -8.174   4.199 134.036  0.00  0.00    +0.000 N 
ATOM     15  C   UNL     1      -7.722   5.131 135.092  0.00  0.00    +0.000 C 
ENDBRANCH   9  10
ENDBRANCH   2   9
TORSDOF 3
ENDMDL
MODEL 9
REMARK VINA RESULT:      -4.9      7.138      8.771
REMARK  Name = Pilocarpine
REMARK  5 active torsions:
REMARK  status: ('A' for Active; 'I' for Inactive)
REMARK    1  A    between atoms: C_1  and  C_2
REMARK    2  A    between atoms: C_2  and  C_3
REMARK    3  A    between atoms: C_4  and  C_5
REMARK    4  A    between atoms: C_5  and  C_6
REMARK    5  A    between atoms: N_10  and  C_11
REMARK                            x       y       z     vdW  Elec       q    Type
REMARK                         _______ _______ _______ _____ _____    ______ ____
ROOT
ATOM      1  C   UNL     1      -6.862   2.989 124.586  0.00  0.00    +0.000 C 
ATOM      2  C   UNL     1      -6.988   1.555 124.045  0.00  0.00    +0.000 C 
ATOM      3  C   UNL     1      -8.234   1.782 123.186  0.00  0.00    +0.000 C 
ATOM      4  O   UNL     1      -9.073   2.699 123.892  0.00  0.00    +0.000 OA
ATOM      5  C   UNL     1      -8.279   3.476 124.651  0.00  0.00    +0.000 C 
ATOM      6  O   UNL     1      -8.698   4.407 125.368  0.00  0.00    +0.000 OA
ENDROOT
BRANCH   1   8
ATOM      7  C   UNL     1      -4.847   3.153 126.108  0.00  0.00    +0.000 C 
ATOM      8  C   UNL     1      -6.386   3.012 125.976  0.00  0.00    +0.000 C 
ENDBRANCH   1   8
BRANCH   2   9
ATOM      9  C   UNL     1      -7.172   0.353 125.085  0.00  0.00    +0.000 C 
BRANCH   9  10
ATOM     10  C   UNL     1      -7.823  -0.978 124.560  0.00  0.00    +0.000 A 
ATOM     11  C   UNL     1      -8.854  -1.646 125.214  0.00  0.00    +0.000 A 
ATOM     12  N   UNL     1      -9.405  -2.620 124.436  0.00  0.00    +0.000 NA
ATOM     13  C   UNL     1      -8.688  -2.639 123.343  0.00  0.00    +0.000 A 
ATOM     14  N   UNL     1      -7.568  -1.838 123.434  0.00  0.00    +0.000 N 
ATOM     15  C   UNL     1      -6.474  -2.036 122.460  0.00  0.00    +0.000 C 
ENDBRANCH   9  10
ENDBRANCH   2   9
TORSDOF 3
ENDMDL
