MODEL 1
REMARK VINA RESULT:      -8.0      0.000      0.000
REMARK  Name = Pimavanserin
REMARK  11 active torsions:
REMARK  status: ('A' for Active; 'I' for Inactive)
REMARK    1  A    between atoms: C_1  and  C_2
REMARK    2  A    between atoms: C_2  and  C_3
REMARK    3  A    between atoms: C_2  and  C_4
REMARK    4  A    between atoms: C_4  and  O_5
REMARK    5  A    between atoms: O_5  and  C_6
REMARK    6  A    between atoms: C_9  and  C_10
REMARK    7  A    between atoms: C_10  and  N_11
REMARK    8  A    between atoms: N_14  and  C_15
REMARK    9  A    between atoms: N_14  and  C_23
REMARK   10  A    between atoms: C_15  and  C_16
REMARK   11  A    between atoms: N_26  and  C_27
REMARK                            x       y       z     vdW  Elec       q    Type
REMARK                         _______ _______ _______ _____ _____    ______ ____
ROOT
ATOM      1  N   UNL     1      -5.931   5.345 132.288  0.00  0.00    +0.000 N 
ATOM      2  C   UNL     1      -5.461   4.418 131.381  0.00  0.00    +0.000 C 
ATOM      3  O   UNL     1      -6.057   3.314 131.368  0.00  0.00    +0.000 OA
ATOM      4  N   UNL     1      -4.449   4.753 130.432  0.00  0.00    +0.000 N 
ATOM      5  H   UNL     1      -5.349   6.136 132.500  0.00  0.00    +0.000 HD
ENDROOT
BRANCH   4   6
ATOM      6  C   UNL     1      -3.808   3.662 129.581  0.00  0.00    +0.000 C 
ATOM      7  C   UNL     1      -2.844   4.141 128.434  0.00  0.00    +0.000 C 
ATOM      8  C   UNL     1      -3.603   4.856 127.302  0.00  0.00    +0.000 C 
ATOM      9  N   UNL     1      -4.691   4.030 126.769  0.00  0.00    +0.000 NA
ATOM     10  C   UNL     1      -5.451   4.807 125.788  0.00  0.00    +0.000 C 
ATOM     11  C   UNL     1      -5.589   3.579 127.846  0.00  0.00    +0.000 C 
ATOM     12  C   UNL     1      -4.811   2.755 128.866  0.00  0.00    +0.000 C 
ENDBRANCH   4   6
BRANCH   1  13
ATOM     13  C   UNL     1      -7.287   5.234 132.946  0.00  0.00    +0.000 C 
BRANCH  13  17
ATOM     14  C   UNL     1     -10.768   6.926 130.730  0.00  0.00    +0.000 A 
ATOM     15  C   UNL     1     -10.957   6.356 131.969  0.00  0.00    +0.000 A 
ATOM     16  C   UNL     1      -9.850   5.813 132.729  0.00  0.00    +0.000 A 
ATOM     17  C   UNL     1      -8.510   5.960 132.332  0.00  0.00    +0.000 A 
ATOM     18  C   UNL     1      -8.390   6.771 131.239  0.00  0.00    +0.000 A 
ATOM     19  C   UNL     1      -9.479   6.970 130.358  0.00  0.00    +0.000 A 
BRANCH  14  20
ATOM     20  O   UNL     1     -11.728   7.546 129.992  0.00  0.00    +0.000 OA
BRANCH  20  21
ATOM     21  C   UNL     1     -11.374   8.414 128.872  0.00  0.00    +0.000 C 
BRANCH  21  23
ATOM     22  C   UNL     1     -11.358   7.350 126.554  0.00  0.00    +0.000 C 
ATOM     23  C   UNL     1     -12.211   8.005 127.645  0.00  0.00    +0.000 C 
ATOM     24  C   UNL     1     -13.311   7.054 128.099  0.00  0.00    +0.000 C 
ENDBRANCH  21  23
ENDBRANCH  20  21
ENDBRANCH  14  20
ENDBRANCH  13  17
ENDBRANCH   1  13
BRANCH   4  25
ATOM     25  C   UNL     1      -3.792   6.053 130.240  0.00  0.00    +0.000 C 
BRANCH  25  26
ATOM     26  C   UNL     1      -2.878   6.554 131.283  0.00  0.00    +0.000 A 
ATOM     27  C   UNL     1      -1.722   5.843 131.619  0.00  0.00    +0.000 A 
ATOM     28  C   UNL     1      -0.754   6.535 132.307  0.00  0.00    +0.000 A 
ATOM     29  C   UNL     1      -1.078   7.850 132.738  0.00  0.00    +0.000 A 
ATOM     30  F   UNL     1      -0.229   8.858 132.904  0.00  0.00    +0.000 F 
ATOM     31  C   UNL     1      -2.303   8.426 132.621  0.00  0.00    +0.000 A 
ATOM     32  C   UNL     1      -3.211   7.789 131.851  0.00  0.00    +0.000 A 
ENDBRANCH  25  26
ENDBRANCH   4  25
TORSDOF 8
ENDMDL
MODEL 2
REMARK VINA RESULT:      -8.0      7.443     10.566
REMARK  Name = Pimavanserin
REMARK  11 active torsions:
REMARK  status: ('A' for Active; 'I' for Inactive)
REMARK    1  A    between atoms: C_1  and  C_2
REMARK    2  A    between atoms: C_2  and  C_3
REMARK    3  A    between atoms: C_2  and  C_4
REMARK    4  A    between atoms: C_4  and  O_5
REMARK    5  A    between atoms: O_5  and  C_6
REMARK    6  A    between atoms: C_9  and  C_10
REMARK    7  A    between atoms: C_10  and  N_11
REMARK    8  A    between atoms: N_14  and  C_15
REMARK    9  A    between atoms: N_14  and  C_23
REMARK   10  A    between atoms: C_15  and  C_16
REMARK   11  A    between atoms: N_26  and  C_27
REMARK                            x       y       z     vdW  Elec       q    Type
REMARK                         _______ _______ _______ _____ _____    ______ ____
ROOT
ATOM      1  N   UNL     1      -9.148  -1.647 124.657  0.00  0.00    +0.000 N 
ATOM      2  C   UNL     1      -9.427  -0.296 124.671  0.00  0.00    +0.000 C 
ATOM      3  O   UNL     1     -10.291   0.077 125.499  0.00  0.00    +0.000 OA
ATOM      4  N   UNL     1      -8.677   0.625 123.879  0.00  0.00    +0.000 N 
ATOM      5  H   UNL     1      -8.653  -2.021 123.867  0.00  0.00    +0.000 HD
ENDROOT
BRANCH   4   6
ATOM      6  C   UNL     1      -9.133   2.076 123.756  0.00  0.00    +0.000 C 
ATOM      7  C   UNL     1      -8.485   2.920 122.599  0.00  0.00    +0.000 C 
ATOM      8  C   UNL     1      -6.994   3.201 122.852  0.00  0.00    +0.000 C 
ATOM      9  N   UNL     1      -6.772   3.834 124.156  0.00  0.00    +0.000 NA
ATOM     10  C   UNL     1      -5.333   3.960 124.393  0.00  0.00    +0.000 C 
ATOM     11  C   UNL     1      -7.384   3.043 125.238  0.00  0.00    +0.000 C 
ATOM     12  C   UNL     1      -8.886   2.917 125.010  0.00  0.00    +0.000 C 
ENDBRANCH   4   6
BRANCH   1  13
ATOM     13  C   UNL     1      -9.529  -2.573 125.790  0.00  0.00    +0.000 C 
BRANCH  13  17
ATOM     14  C   UNL     1      -7.356  -2.498 129.685  0.00  0.00    +0.000 A 
ATOM     15  C   UNL     1      -7.862  -3.686 129.205  0.00  0.00    +0.000 A 
ATOM     16  C   UNL     1      -8.556  -3.755 127.936  0.00  0.00    +0.000 A 
ATOM     17  C   UNL     1      -8.632  -2.668 127.050  0.00  0.00    +0.000 A 
ATOM     18  C   UNL     1      -7.874  -1.613 127.474  0.00  0.00    +0.000 A 
ATOM     19  C   UNL     1      -7.525  -1.470 128.838  0.00  0.00    +0.000 A 
BRANCH  14  20
ATOM     20  O   UNL     1      -6.609  -2.356 130.812  0.00  0.00    +0.000 OA
BRANCH  20  21
ATOM     21  C   UNL     1      -5.337  -3.058 130.967  0.00  0.00    +0.000 C 
BRANCH  21  23
ATOM     22  C   UNL     1      -3.167  -1.749 130.685  0.00  0.00    +0.000 C 
ATOM     23  C   UNL     1      -4.320  -2.462 129.975  0.00  0.00    +0.000 C 
ATOM     24  C   UNL     1      -3.786  -3.582 129.091  0.00  0.00    +0.000 C 
ENDBRANCH  21  23
ENDBRANCH  20  21
ENDBRANCH  14  20
ENDBRANCH  13  17
ENDBRANCH   1  13
BRANCH   4  25
ATOM     25  C   UNL     1      -7.540   0.333 122.996  0.00  0.00    +0.000 C 
BRANCH  25  26
ATOM     26  C   UNL     1      -6.514  -0.626 123.444  0.00  0.00    +0.000 A 
ATOM     27  C   UNL     1      -5.889  -0.473 124.686  0.00  0.00    +0.000 A 
ATOM     28  C   UNL     1      -5.240  -1.576 125.186  0.00  0.00    +0.000 A 
ATOM     29  C   UNL     1      -5.139  -2.711 124.337  0.00  0.00    +0.000 A 
ATOM     30  F   UNL     1      -5.078  -3.982 124.722  0.00  0.00    +0.000 F 
ATOM     31  C   UNL     1      -5.533  -2.747 123.038  0.00  0.00    +0.000 A 
ATOM     32  C   UNL     1      -6.265  -1.706 122.588  0.00  0.00    +0.000 A 
ENDBRANCH  25  26
ENDBRANCH   4  25
TORSDOF 8
ENDMDL
MODEL 3
REMARK VINA RESULT:      -8.0      7.116     10.001
REMARK  Name = Pimavanserin
REMARK  11 active torsions:
REMARK  status: ('A' for Active; 'I' for Inactive)
REMARK    1  A    between atoms: C_1  and  C_2
REMARK    2  A    between atoms: C_2  and  C_3
REMARK    3  A    between atoms: C_2  and  C_4
REMARK    4  A    between atoms: C_4  and  O_5
REMARK    5  A    between atoms: O_5  and  C_6
REMARK    6  A    between atoms: C_9  and  C_10
REMARK    7  A    between atoms: C_10  and  N_11
REMARK    8  A    between atoms: N_14  and  C_15
REMARK    9  A    between atoms: N_14  and  C_23
REMARK   10  A    between atoms: C_15  and  C_16
REMARK   11  A    between atoms: N_26  and  C_27
REMARK                            x       y       z     vdW  Elec       q    Type
REMARK                         _______ _______ _______ _____ _____    ______ ____
ROOT
ATOM      1  N   UNL     1      -5.715   0.673 127.517  0.00  0.00    +0.000 N 
ATOM      2  C   UNL     1      -6.710   0.094 128.276  0.00  0.00    +0.000 C 
ATOM      3  O   UNL     1      -7.449   0.886 128.907  0.00  0.00    +0.000 OA
ATOM      4  N   UNL     1      -6.955  -1.311 128.233  0.00  0.00    +0.000 N 
ATOM      5  H   UNL     1      -4.965   0.088 127.193  0.00  0.00    +0.000 HD
ENDROOT
BRANCH   4   6
ATOM      6  C   UNL     1      -7.919  -1.951 129.227  0.00  0.00    +0.000 C 
ATOM      7  C   UNL     1      -7.839  -1.439 130.712  0.00  0.00    +0.000 C 
ATOM      8  C   UNL     1      -6.532  -1.867 131.401  0.00  0.00    +0.000 C 
ATOM      9  N   UNL     1      -6.326  -3.317 131.329  0.00  0.00    +0.000 NA
ATOM     10  C   UNL     1      -5.014  -3.647 131.887  0.00  0.00    +0.000 C 
ATOM     11  C   UNL     1      -6.407  -3.793 129.937  0.00  0.00    +0.000 C 
ATOM     12  C   UNL     1      -7.776  -3.468 129.350  0.00  0.00    +0.000 C 
ENDBRANCH   4   6
BRANCH   1  13
ATOM     13  C   UNL     1      -5.724   2.135 127.130  0.00  0.00    +0.000 C 
BRANCH  13  17
ATOM     14  C   UNL     1      -6.564   3.392 122.934  0.00  0.00    +0.000 A 
ATOM     15  C   UNL     1      -5.750   4.166 123.731  0.00  0.00    +0.000 A 
ATOM     16  C   UNL     1      -5.438   3.783 125.092  0.00  0.00    +0.000 A 
ATOM     17  C   UNL     1      -5.812   2.543 125.639  0.00  0.00    +0.000 A 
ATOM     18  C   UNL     1      -6.375   1.724 124.701  0.00  0.00    +0.000 A 
ATOM     19  C   UNL     1      -6.963   2.257 123.529  0.00  0.00    +0.000 A 
BRANCH  14  20
ATOM     20  O   UNL     1      -6.831   3.621 121.621  0.00  0.00    +0.000 OA
BRANCH  20  21
ATOM     21  C   UNL     1      -5.770   3.999 120.690  0.00  0.00    +0.000 C 
BRANCH  21  23
ATOM     22  C   UNL     1      -7.931   4.330 119.378  0.00  0.00    +0.000 C 
ATOM     23  C   UNL     1      -6.401   4.311 119.320  0.00  0.00    +0.000 C 
ATOM     24  C   UNL     1      -5.872   5.653 118.832  0.00  0.00    +0.000 C 
ENDBRANCH  21  23
ENDBRANCH  20  21
ENDBRANCH  14  20
ENDBRANCH  13  17
ENDBRANCH   1  13
BRANCH   4  25
ATOM     25  C   UNL     1      -6.268  -2.319 127.413  0.00  0.00    +0.000 C 
BRANCH  25  26
ATOM     26  C   UNL     1      -6.632  -2.454 125.991  0.00  0.00    +0.000 A 
ATOM     27  C   UNL     1      -7.911  -2.881 125.621  0.00  0.00    +0.000 A 
ATOM     28  C   UNL     1      -8.290  -2.629 124.323  0.00  0.00    +0.000 A 
ATOM     29  C   UNL     1      -7.303  -2.100 123.449  0.00  0.00    +0.000 A 
ATOM     30  F   UNL     1      -7.517  -1.304 122.406  0.00  0.00    +0.000 F 
ATOM     31  C   UNL     1      -5.993  -1.931 123.767  0.00  0.00    +0.000 A 
ATOM     32  C   UNL     1      -5.653  -2.074 125.066  0.00  0.00    +0.000 A 
ENDBRANCH  25  26
ENDBRANCH   4  25
TORSDOF 8
ENDMDL
MODEL 4
REMARK VINA RESULT:      -7.9      5.698      7.771
REMARK  Name = Pimavanserin
REMARK  11 active torsions:
REMARK  status: ('A' for Active; 'I' for Inactive)
REMARK    1  A    between atoms: C_1  and  C_2
REMARK    2  A    between atoms: C_2  and  C_3
REMARK    3  A    between atoms: C_2  and  C_4
REMARK    4  A    between atoms: C_4  and  O_5
REMARK    5  A    between atoms: O_5  and  C_6
REMARK    6  A    between atoms: C_9  and  C_10
REMARK    7  A    between atoms: C_10  and  N_11
REMARK    8  A    between atoms: N_14  and  C_15
REMARK    9  A    between atoms: N_14  and  C_23
REMARK   10  A    between atoms: C_15  and  C_16
REMARK   11  A    between atoms: N_26  and  C_27
REMARK                            x       y       z     vdW  Elec       q    Type
REMARK                         _______ _______ _______ _____ _____    ______ ____
ROOT
ATOM      1  N   UNL     1      -8.065   0.659 128.048  0.00  0.00    +0.000 N 
ATOM      2  C   UNL     1      -8.098   0.372 126.699  0.00  0.00    +0.000 C 
ATOM      3  O   UNL     1      -7.898   1.339 125.928  0.00  0.00    +0.000 OA
ATOM      4  N   UNL     1      -8.220  -0.970 126.229  0.00  0.00    +0.000 N 
ATOM      5  H   UNL     1      -8.448  -0.015 128.686  0.00  0.00    +0.000 HD
ENDROOT
BRANCH   4   6
ATOM      6  C   UNL     1      -8.457  -1.242 124.747  0.00  0.00    +0.000 C 
ATOM      7  C   UNL     1      -8.619  -2.749 124.326  0.00  0.00    +0.000 C 
ATOM      8  C   UNL     1      -7.302  -3.533 124.464  0.00  0.00    +0.000 C 
ATOM      9  N   UNL     1      -6.207  -2.894 123.729  0.00  0.00    +0.000 NA
ATOM     10  C   UNL     1      -4.960  -3.611 123.999  0.00  0.00    +0.000 C 
ATOM     11  C   UNL     1      -6.061  -1.481 124.122  0.00  0.00    +0.000 C 
ATOM     12  C   UNL     1      -7.350  -0.720 123.830  0.00  0.00    +0.000 C 
ENDBRANCH   4   6
BRANCH   1  13
ATOM     13  C   UNL     1      -7.452   1.926 128.601  0.00  0.00    +0.000 C 
BRANCH  13  17
ATOM     14  C   UNL     1     -10.237   5.076 130.090  0.00  0.00    +0.000 A 
ATOM     15  C   UNL     1     -10.420   3.765 130.469  0.00  0.00    +0.000 A 
ATOM     16  C   UNL     1      -9.527   2.716 130.023  0.00  0.00    +0.000 A 
ATOM     17  C   UNL     1      -8.345   2.976 129.308  0.00  0.00    +0.000 A 
ATOM     18  C   UNL     1      -8.095   4.316 129.210  0.00  0.00    +0.000 A 
ATOM     19  C   UNL     1      -9.140   5.262 129.339  0.00  0.00    +0.000 A 
BRANCH  14  20
ATOM     20  O   UNL     1     -10.964   6.135 130.536  0.00  0.00    +0.000 OA
BRANCH  20  21
ATOM     21  C   UNL     1     -11.965   6.775 129.686  0.00  0.00    +0.000 C 
BRANCH  21  23
ATOM     22  C   UNL     1     -10.787   8.342 128.055  0.00  0.00    +0.000 C 
ATOM     23  C   UNL     1     -11.516   8.220 129.395  0.00  0.00    +0.000 C 
ATOM     24  C   UNL     1     -12.741   9.126 129.418  0.00  0.00    +0.000 C 
ENDBRANCH  21  23
ENDBRANCH  20  21
ENDBRANCH  14  20
ENDBRANCH  13  17
ENDBRANCH   1  13
BRANCH   4  25
ATOM     25  C   UNL     1      -8.297  -2.200 127.029  0.00  0.00    +0.000 C 
BRANCH  25  26
ATOM     26  C   UNL     1      -7.259  -2.460 128.043  0.00  0.00    +0.000 A 
ATOM     27  C   UNL     1      -7.598  -3.001 129.288  0.00  0.00    +0.000 A 
ATOM     28  C   UNL     1      -6.571  -3.551 130.018  0.00  0.00    +0.000 A 
ATOM     29  C   UNL     1      -5.254  -3.388 129.512  0.00  0.00    +0.000 A 
ATOM     30  F   UNL     1      -4.232  -4.220 129.686  0.00  0.00    +0.000 F 
ATOM     31  C   UNL     1      -4.925  -2.637 128.428  0.00  0.00    +0.000 A 
ATOM     32  C   UNL     1      -5.940  -2.193 127.657  0.00  0.00    +0.000 A 
ENDBRANCH  25  26
ENDBRANCH   4  25
TORSDOF 8
ENDMDL
MODEL 5
REMARK VINA RESULT:      -7.7      5.247      7.435
REMARK  Name = Pimavanserin
REMARK  11 active torsions:
REMARK  status: ('A' for Active; 'I' for Inactive)
REMARK    1  A    between atoms: C_1  and  C_2
REMARK    2  A    between atoms: C_2  and  C_3
REMARK    3  A    between atoms: C_2  and  C_4
REMARK    4  A    between atoms: C_4  and  O_5
REMARK    5  A    between atoms: O_5  and  C_6
REMARK    6  A    between atoms: C_9  and  C_10
REMARK    7  A    between atoms: C_10  and  N_11
REMARK    8  A    between atoms: N_14  and  C_15
REMARK    9  A    between atoms: N_14  and  C_23
REMARK   10  A    between atoms: C_15  and  C_16
REMARK   11  A    between atoms: N_26  and  C_27
REMARK                            x       y       z     vdW  Elec       q    Type
REMARK                         _______ _______ _______ _____ _____    ______ ____
ROOT
ATOM      1  N   UNL     1      -8.555   2.047 128.413  0.00  0.00    +0.000 N 
ATOM      2  C   UNL     1      -7.472   1.985 127.560  0.00  0.00    +0.000 C 
ATOM      3  O   UNL     1      -6.481   2.682 127.882  0.00  0.00    +0.000 OA
ATOM      4  N   UNL     1      -7.446   1.079 126.458  0.00  0.00    +0.000 N 
ATOM      5  H   UNL     1      -9.439   1.704 128.082  0.00  0.00    +0.000 HD
ENDROOT
BRANCH   4   6
ATOM      6  C   UNL     1      -6.333   1.171 125.419  0.00  0.00    +0.000 C 
ATOM      7  C   UNL     1      -5.953   2.614 124.922  0.00  0.00    +0.000 C 
ATOM      8  C   UNL     1      -7.070   3.247 124.074  0.00  0.00    +0.000 C 
ATOM      9  N   UNL     1      -7.456   2.387 122.952  0.00  0.00    +0.000 NA
ATOM     10  C   UNL     1      -8.602   2.981 122.260  0.00  0.00    +0.000 C 
ATOM     11  C   UNL     1      -7.807   1.034 123.420  0.00  0.00    +0.000 C 
ATOM     12  C   UNL     1      -6.616   0.399 124.129  0.00  0.00    +0.000 C 
ENDBRANCH   4   6
BRANCH   1  13
ATOM     13  C   UNL     1      -8.456   2.577 129.826  0.00  0.00    +0.000 C 
BRANCH  13  17
ATOM     14  C   UNL     1     -10.743   6.355 130.453  0.00  0.00    +0.000 A 
ATOM     15  C   UNL     1     -11.367   5.140 130.623  0.00  0.00    +0.000 A 
ATOM     16  C   UNL     1     -10.655   3.891 130.448  0.00  0.00    +0.000 A 
ATOM     17  C   UNL     1      -9.266   3.830 130.243  0.00  0.00    +0.000 A 
ATOM     18  C   UNL     1      -8.680   5.059 130.360  0.00  0.00    +0.000 A 
ATOM     19  C   UNL     1      -9.434   6.243 130.177  0.00  0.00    +0.000 A 
BRANCH  14  20
ATOM     20  O   UNL     1     -11.303   7.571 130.691  0.00  0.00    +0.000 OA
BRANCH  20  21
ATOM     21  C   UNL     1     -12.387   8.079 129.853  0.00  0.00    +0.000 C 
BRANCH  21  23
ATOM     22  C   UNL     1     -13.615   7.293 127.760  0.00  0.00    +0.000 C 
ATOM     23  C   UNL     1     -12.257   7.460 128.448  0.00  0.00    +0.000 C 
ATOM     24  C   UNL     1     -11.342   8.342 127.608  0.00  0.00    +0.000 C 
ENDBRANCH  21  23
ENDBRANCH  20  21
ENDBRANCH  14  20
ENDBRANCH  13  17
ENDBRANCH   1  13
BRANCH   4  25
ATOM     25  C   UNL     1      -8.472   0.100 126.074  0.00  0.00    +0.000 C 
BRANCH  25  26
ATOM     26  C   UNL     1      -8.385  -1.273 126.604  0.00  0.00    +0.000 A 
ATOM     27  C   UNL     1      -7.690  -1.537 127.789  0.00  0.00    +0.000 A 
ATOM     28  C   UNL     1      -7.960  -2.736 128.404  0.00  0.00    +0.000 A 
ATOM     29  C   UNL     1      -8.798  -3.649 127.709  0.00  0.00    +0.000 A 
ATOM     30  F   UNL     1      -9.609  -4.549 128.256  0.00  0.00    +0.000 F 
ATOM     31  C   UNL     1      -9.256  -3.474 126.442  0.00  0.00    +0.000 A 
ATOM     32  C   UNL     1      -9.081  -2.255 125.889  0.00  0.00    +0.000 A 
ENDBRANCH  25  26
ENDBRANCH   4  25
TORSDOF 8
ENDMDL
MODEL 6
REMARK VINA RESULT:      -7.6      4.881      8.703
REMARK  Name = Pimavanserin
REMARK  11 active torsions:
REMARK  status: ('A' for Active; 'I' for Inactive)
REMARK    1  A    between atoms: C_1  and  C_2
REMARK    2  A    between atoms: C_2  and  C_3
REMARK    3  A    between atoms: C_2  and  C_4
REMARK    4  A    between atoms: C_4  and  O_5
REMARK    5  A    between atoms: O_5  and  C_6
REMARK    6  A    between atoms: C_9  and  C_10
REMARK    7  A    between atoms: C_10  and  N_11
REMARK    8  A    between atoms: N_14  and  C_15
REMARK    9  A    between atoms: N_14  and  C_23
REMARK   10  A    between atoms: C_15  and  C_16
REMARK   11  A    between atoms: N_26  and  C_27
REMARK                            x       y       z     vdW  Elec       q    Type
REMARK                         _______ _______ _______ _____ _____    ______ ____
ROOT
ATOM      1  N   UNL     1      -8.258   4.084 128.196  0.00  0.00    +0.000 N 
ATOM      2  C   UNL     1      -7.734   4.867 129.205  0.00  0.00    +0.000 C 
ATOM      3  O   UNL     1      -6.487   5.002 129.202  0.00  0.00    +0.000 OA
ATOM      4  N   UNL     1      -8.579   5.579 130.108  0.00  0.00    +0.000 N 
ATOM      5  H   UNL     1      -9.202   3.756 128.293  0.00  0.00    +0.000 HD
ENDROOT
BRANCH   4   6
ATOM      6  C   UNL     1      -7.983   6.269 131.330  0.00  0.00    +0.000 C 
ATOM      7  C   UNL     1      -6.538   5.817 131.758  0.00  0.00    +0.000 C 
ATOM      8  C   UNL     1      -6.522   4.382 132.312  0.00  0.00    +0.000 C 
ATOM      9  N   UNL     1      -7.476   4.211 133.412  0.00  0.00    +0.000 NA
ATOM     10  C   UNL     1      -7.506   2.804 133.812  0.00  0.00    +0.000 C 
ATOM     11  C   UNL     1      -8.827   4.640 133.010  0.00  0.00    +0.000 C 
ATOM     12  C   UNL     1      -8.812   6.110 132.605  0.00  0.00    +0.000 C 
ENDBRANCH   4   6
BRANCH   1  13
ATOM     13  C   UNL     1      -7.483   3.731 126.947  0.00  0.00    +0.000 C 
BRANCH  13  17
ATOM     14  C   UNL     1      -8.977   0.207 124.658  0.00  0.00    +0.000 A 
ATOM     15  C   UNL     1      -7.990   1.003 124.122  0.00  0.00    +0.000 A 
ATOM     16  C   UNL     1      -7.464   2.144 124.842  0.00  0.00    +0.000 A 
ATOM     17  C   UNL     1      -7.809   2.429 126.174  0.00  0.00    +0.000 A 
ATOM     18  C   UNL     1      -8.579   1.441 126.721  0.00  0.00    +0.000 A 
ATOM     19  C   UNL     1      -9.333   0.568 125.901  0.00  0.00    +0.000 A 
BRANCH  14  20
ATOM     20  O   UNL     1      -9.460  -0.936 124.099  0.00  0.00    +0.000 OA
BRANCH  20  21
ATOM     21  C   UNL     1      -8.621  -1.767 123.238  0.00  0.00    +0.000 C 
BRANCH  21  23
ATOM     22  C   UNL     1      -7.029  -3.477 124.259  0.00  0.00    +0.000 C 
ATOM     23  C   UNL     1      -8.479  -3.159 123.882  0.00  0.00    +0.000 C 
ATOM     24  C   UNL     1      -9.374  -3.222 125.113  0.00  0.00    +0.000 C 
ENDBRANCH  21  23
ENDBRANCH  20  21
ENDBRANCH  14  20
ENDBRANCH  13  17
ENDBRANCH   1  13
BRANCH   4  25
ATOM     25  C   UNL     1     -10.048   5.631 130.113  0.00  0.00    +0.000 C 
BRANCH  25  26
ATOM     26  C   UNL     1     -10.720   6.875 129.696  0.00  0.00    +0.000 A 
ATOM     27  C   UNL     1     -10.298   7.565 128.555  0.00  0.00    +0.000 A 
ATOM     28  C   UNL     1     -11.181   8.478 128.028  0.00  0.00    +0.000 A 
ATOM     29  C   UNL     1     -12.364   8.740 128.770  0.00  0.00    +0.000 A 
ATOM     30  F   UNL     1     -13.542   9.105 128.274  0.00  0.00    +0.000 F 
ATOM     31  C   UNL     1     -12.633   8.244 130.006  0.00  0.00    +0.000 A 
ATOM     32  C   UNL     1     -11.821   7.268 130.466  0.00  0.00    +0.000 A 
ENDBRANCH  25  26
ENDBRANCH   4  25
TORSDOF 8
ENDMDL
MODEL 7
REMARK VINA RESULT:      -7.6      5.792      9.430
REMARK  Name = Pimavanserin
REMARK  11 active torsions:
REMARK  status: ('A' for Active; 'I' for Inactive)
REMARK    1  A    between atoms: C_1  and  C_2
REMARK    2  A    between atoms: C_2  and  C_3
REMARK    3  A    between atoms: C_2  and  C_4
REMARK    4  A    between atoms: C_4  and  O_5
REMARK    5  A    between atoms: O_5  and  C_6
REMARK    6  A    between atoms: C_9  and  C_10
REMARK    7  A    between atoms: C_10  and  N_11
REMARK    8  A    between atoms: N_14  and  C_15
REMARK    9  A    between atoms: N_14  and  C_23
REMARK   10  A    between atoms: C_15  and  C_16
REMARK   11  A    between atoms: N_26  and  C_27
REMARK                            x       y       z     vdW  Elec       q    Type
REMARK                         _______ _______ _______ _____ _____    ______ ____
ROOT
ATOM      1  N   UNL     1      -6.291   2.473 128.410  0.00  0.00    +0.000 N 
ATOM      2  C   UNL     1      -7.600   2.671 128.798  0.00  0.00    +0.000 C 
ATOM      3  O   UNL     1      -8.310   3.338 128.009  0.00  0.00    +0.000 OA
ATOM      4  N   UNL     1      -8.134   2.038 129.961  0.00  0.00    +0.000 N 
ATOM      5  H   UNL     1      -5.634   2.159 129.102  0.00  0.00    +0.000 HD
ENDROOT
BRANCH   4   6
ATOM      6  C   UNL     1      -9.514   2.430 130.478  0.00  0.00    +0.000 C 
ATOM      7  C   UNL     1      -9.777   3.967 130.687  0.00  0.00    +0.000 C 
ATOM      8  C   UNL     1      -8.956   4.540 131.855  0.00  0.00    +0.000 C 
ATOM      9  N   UNL     1      -9.178   3.793 133.096  0.00  0.00    +0.000 NA
ATOM     10  C   UNL     1      -8.282   4.303 134.135  0.00  0.00    +0.000 C 
ATOM     11  C   UNL     1      -8.937   2.353 132.897  0.00  0.00    +0.000 C 
ATOM     12  C   UNL     1      -9.876   1.807 131.827  0.00  0.00    +0.000 C 
ENDBRANCH   4   6
BRANCH   1  13
ATOM     13  C   UNL     1      -5.817   2.678 126.989  0.00  0.00    +0.000 C 
BRANCH  13  17
ATOM     14  C   UNL     1      -6.736  -0.805 124.358  0.00  0.00    +0.000 A 
ATOM     15  C   UNL     1      -7.090   0.465 123.961  0.00  0.00    +0.000 A 
ATOM     16  C   UNL     1      -6.792   1.624 124.778  0.00  0.00    +0.000 A 
ATOM     17  C   UNL     1      -6.004   1.554 125.939  0.00  0.00    +0.000 A 
ATOM     18  C   UNL     1      -5.465   0.310 126.113  0.00  0.00    +0.000 A 
ATOM     19  C   UNL     1      -6.056  -0.828 125.515  0.00  0.00    +0.000 A 
BRANCH  14  20
ATOM     20  O   UNL     1      -6.886  -1.934 123.616  0.00  0.00    +0.000 OA
BRANCH  20  21
ATOM     21  C   UNL     1      -6.967  -3.248 124.250  0.00  0.00    +0.000 C 
BRANCH  21  23
ATOM     22  C   UNL     1      -9.034  -3.166 125.741  0.00  0.00    +0.000 C 
ATOM     23  C   UNL     1      -8.451  -3.632 124.405  0.00  0.00    +0.000 C 
ATOM     24  C   UNL     1      -9.235  -3.030 123.246  0.00  0.00    +0.000 C 
ENDBRANCH  21  23
ENDBRANCH  20  21
ENDBRANCH  14  20
ENDBRANCH  13  17
ENDBRANCH   1  13
BRANCH   4  25
ATOM     25  C   UNL     1      -7.453   1.108 130.872  0.00  0.00    +0.000 C 
BRANCH  25  26
ATOM     26  C   UNL     1      -7.390  -0.322 130.519  0.00  0.00    +0.000 A 
ATOM     27  C   UNL     1      -7.308  -1.298 131.517  0.00  0.00    +0.000 A 
ATOM     28  C   UNL     1      -7.625  -2.583 131.145  0.00  0.00    +0.000 A 
ATOM     29  C   UNL     1      -7.858  -2.821 129.765  0.00  0.00    +0.000 A 
ATOM     30  F   UNL     1      -8.662  -3.746 129.247  0.00  0.00    +0.000 F 
ATOM     31  C   UNL     1      -7.682  -1.905 128.777  0.00  0.00    +0.000 A 
ATOM     32  C   UNL     1      -7.480  -0.625 129.156  0.00  0.00    +0.000 A 
ENDBRANCH  25  26
ENDBRANCH   4  25
TORSDOF 8
ENDMDL
MODEL 8
REMARK VINA RESULT:      -7.6      4.899      8.746
REMARK  Name = Pimavanserin
REMARK  11 active torsions:
REMARK  status: ('A' for Active; 'I' for Inactive)
REMARK    1  A    between atoms: C_1  and  C_2
REMARK    2  A    between atoms: C_2  and  C_3
REMARK    3  A    between atoms: C_2  and  C_4
REMARK    4  A    between atoms: C_4  and  O_5
REMARK    5  A    between atoms: O_5  and  C_6
REMARK    6  A    between atoms: C_9  and  C_10
REMARK    7  A    between atoms: C_10  and  N_11
REMARK    8  A    between atoms: N_14  and  C_15
REMARK    9  A    between atoms: N_14  and  C_23
REMARK   10  A    between atoms: C_15  and  C_16
REMARK   11  A    between atoms: N_26  and  C_27
REMARK                            x       y       z     vdW  Elec       q    Type
REMARK                         _______ _______ _______ _____ _____    ______ ____
ROOT
ATOM      1  N   UNL     1      -8.151   3.960 128.337  0.00  0.00    +0.000 N 
ATOM      2  C   UNL     1      -8.480   3.617 129.633  0.00  0.00    +0.000 C 
ATOM      3  O   UNL     1      -8.277   2.421 129.951  0.00  0.00    +0.000 OA
ATOM      4  N   UNL     1      -8.899   4.600 130.578  0.00  0.00    +0.000 N 
ATOM      5  H   UNL     1      -8.510   4.823 127.970  0.00  0.00    +0.000 HD
ENDROOT
BRANCH   4   6
ATOM      6  C   UNL     1      -9.448   4.172 131.935  0.00  0.00    +0.000 C 
ATOM      7  C   UNL     1      -9.679   5.313 132.992  0.00  0.00    +0.000 C 
ATOM      8  C   UNL     1      -8.355   5.913 133.494  0.00  0.00    +0.000 C 
ATOM      9  N   UNL     1      -7.453   4.883 134.018  0.00  0.00    +0.000 NA
ATOM     10  C   UNL     1      -6.168   5.494 134.362  0.00  0.00    +0.000 C 
ATOM     11  C   UNL     1      -7.242   3.812 133.027  0.00  0.00    +0.000 C 
ATOM     12  C   UNL     1      -8.572   3.157 132.672  0.00  0.00    +0.000 C 
ENDBRANCH   4   6
BRANCH   1  13
ATOM     13  C   UNL     1      -7.253   3.110 127.468  0.00  0.00    +0.000 C 
BRANCH  13  17
ATOM     14  C   UNL     1      -9.205  -0.592 125.926  0.00  0.00    +0.000 A 
ATOM     15  C   UNL     1      -9.459   0.618 125.322  0.00  0.00    +0.000 A 
ATOM     16  C   UNL     1      -8.830   1.840 125.780  0.00  0.00    +0.000 A 
ATOM     17  C   UNL     1      -7.821   1.856 126.757  0.00  0.00    +0.000 A 
ATOM     18  C   UNL     1      -7.434   0.593 127.108  0.00  0.00    +0.000 A 
ATOM     19  C   UNL     1      -8.294  -0.513 126.909  0.00  0.00    +0.000 A 
BRANCH  14  20
ATOM     20  O   UNL     1      -9.670  -1.799 125.504  0.00  0.00    +0.000 OA
BRANCH  20  21
ATOM     21  C   UNL     1      -8.960  -3.035 125.823  0.00  0.00    +0.000 C 
BRANCH  21  23
ATOM     22  C   UNL     1      -9.372  -3.276 123.318  0.00  0.00    +0.000 C 
ATOM     23  C   UNL     1      -8.506  -3.698 124.508  0.00  0.00    +0.000 C 
ATOM     24  C   UNL     1      -7.048  -3.337 124.258  0.00  0.00    +0.000 C 
ENDBRANCH  21  23
ENDBRANCH  20  21
ENDBRANCH  14  20
ENDBRANCH  13  17
ENDBRANCH   1  13
BRANCH   4  25
ATOM     25  C   UNL     1      -9.019   6.051 130.373  0.00  0.00    +0.000 C 
BRANCH  25  26
ATOM     26  C   UNL     1     -10.213   6.580 129.689  0.00  0.00    +0.000 A 
ATOM     27  C   UNL     1     -11.432   5.898 129.753  0.00  0.00    +0.000 A 
ATOM     28  C   UNL     1     -12.556   6.617 129.422  0.00  0.00    +0.000 A 
ATOM     29  C   UNL     1     -12.361   7.927 128.908  0.00  0.00    +0.000 A 
ATOM     30  F   UNL     1     -13.193   8.956 129.031  0.00  0.00    +0.000 F 
ATOM     31  C   UNL     1     -11.152   8.475 128.615  0.00  0.00    +0.000 A 
ATOM     32  C   UNL     1     -10.057   7.812 129.043  0.00  0.00    +0.000 A 
ENDBRANCH  25  26
ENDBRANCH   4  25
TORSDOF 8
ENDMDL
MODEL 9
REMARK VINA RESULT:      -7.6      5.821      8.067
REMARK  Name = Pimavanserin
REMARK  11 active torsions:
REMARK  status: ('A' for Active; 'I' for Inactive)
REMARK    1  A    between atoms: C_1  and  C_2
REMARK    2  A    between atoms: C_2  and  C_3
REMARK    3  A    between atoms: C_2  and  C_4
REMARK    4  A    between atoms: C_4  and  O_5
REMARK    5  A    between atoms: O_5  and  C_6
REMARK    6  A    between atoms: C_9  and  C_10
REMARK    7  A    between atoms: C_10  and  N_11
REMARK    8  A    between atoms: N_14  and  C_15
REMARK    9  A    between atoms: N_14  and  C_23
REMARK   10  A    between atoms: C_15  and  C_16
REMARK   11  A    between atoms: N_26  and  C_27
REMARK                            x       y       z     vdW  Elec       q    Type
REMARK                         _______ _______ _______ _____ _____    ______ ____
ROOT
ATOM      1  N   UNL     1      -7.745   0.377 131.406  0.00  0.00    +0.000 N 
ATOM      2  C   UNL     1      -6.460   0.020 131.050  0.00  0.00    +0.000 C 
ATOM      3  O   UNL     1      -5.566   0.857 131.317  0.00  0.00    +0.000 OA
ATOM      4  N   UNL     1      -6.166  -1.277 130.534  0.00  0.00    +0.000 N 
ATOM      5  H   UNL     1      -8.508  -0.140 131.007  0.00  0.00    +0.000 HD
ENDROOT
BRANCH   4   6
ATOM      6  C   UNL     1      -4.784  -1.577 129.962  0.00  0.00    +0.000 C 
ATOM      7  C   UNL     1      -4.513  -3.062 129.523  0.00  0.00    +0.000 C 
ATOM      8  C   UNL     1      -4.440  -4.017 130.727  0.00  0.00    +0.000 C 
ATOM      9  N   UNL     1      -3.457  -3.571 131.719  0.00  0.00    +0.000 NA
ATOM     10  C   UNL     1      -3.522  -4.444 132.892  0.00  0.00    +0.000 C 
ATOM     11  C   UNL     1      -3.711  -2.177 132.124  0.00  0.00    +0.000 C 
ATOM     12  C   UNL     1      -3.630  -1.255 130.912  0.00  0.00    +0.000 C 
ENDBRANCH   4   6
BRANCH   1  13
ATOM     13  C   UNL     1      -8.045   1.486 132.389  0.00  0.00    +0.000 C 
BRANCH  13  17
ATOM     14  C   UNL     1     -10.365   5.088 131.150  0.00  0.00    +0.000 A 
ATOM     15  C   UNL     1     -10.460   3.927 130.417  0.00  0.00    +0.000 A 
ATOM     16  C   UNL     1      -9.738   2.731 130.797  0.00  0.00    +0.000 A 
ATOM     17  C   UNL     1      -9.021   2.624 132.001  0.00  0.00    +0.000 A 
ATOM     18  C   UNL     1      -9.202   3.720 132.798  0.00  0.00    +0.000 A 
ATOM     19  C   UNL     1      -9.603   4.961 132.248  0.00  0.00    +0.000 A 
BRANCH  14  20
ATOM     20  O   UNL     1     -11.078   6.224 130.926  0.00  0.00    +0.000 OA
BRANCH  20  21
ATOM     21  C   UNL     1     -10.513   7.331 130.157  0.00  0.00    +0.000 C 
BRANCH  21  23
ATOM     22  C   UNL     1     -12.548   8.788 129.672  0.00  0.00    +0.000 C 
ATOM     23  C   UNL     1     -11.544   7.780 129.106  0.00  0.00    +0.000 C 
ATOM     24  C   UNL     1     -10.802   8.381 127.919  0.00  0.00    +0.000 C 
ENDBRANCH  21  23
ENDBRANCH  20  21
ENDBRANCH  14  20
ENDBRANCH  13  17
ENDBRANCH   1  13
BRANCH   4  25
ATOM     25  C   UNL     1      -7.096  -2.396 130.330  0.00  0.00    +0.000 C 
BRANCH  25  26
ATOM     26  C   UNL     1      -7.821  -2.500 129.050  0.00  0.00    +0.000 A 
ATOM     27  C   UNL     1      -7.711  -1.493 128.086  0.00  0.00    +0.000 A 
ATOM     28  C   UNL     1      -8.098  -1.823 126.808  0.00  0.00    +0.000 A 
ATOM     29  C   UNL     1      -8.705  -3.093 126.621  0.00  0.00    +0.000 A 
ATOM     30  F   UNL     1      -8.660  -3.836 125.519  0.00  0.00    +0.000 F 
ATOM     31  C   UNL     1      -9.034  -3.953 127.620  0.00  0.00    +0.000 A 
ATOM     32  C   UNL     1      -8.555  -3.675 128.852  0.00  0.00    +0.000 A 
ENDBRANCH  25  26
ENDBRANCH   4  25
TORSDOF 8
ENDMDL
