MODEL 1
REMARK VINA RESULT:      -7.6      0.000      0.000
REMARK  Name = Pimethixene
REMARK  1 active torsions:
REMARK  status: ('A' for Active; 'I' for Inactive)
REMARK    1  A    between atoms: C_1  and  N_2
REMARK                            x       y       z     vdW  Elec       q    Type
REMARK                         _______ _______ _______ _____ _____    ______ ____
ROOT
ATOM      1  C   UNL     1      -3.271   3.908 128.693  0.00  0.00    +0.000 C 
ATOM      2  N   UNL     1      -3.288   2.739 127.803  0.00  0.00    +0.000 NA
ATOM      3  C   UNL     1      -4.617   2.095 127.814  0.00  0.00    +0.000 C 
ATOM      4  C   UNL     1      -5.708   3.076 127.337  0.00  0.00    +0.000 C 
ATOM      5  C   UNL     1      -5.495   3.367 125.847  0.00  0.00    +0.000 C 
ATOM      6  C   UNL     1      -4.119   4.085 125.887  0.00  0.00    +0.000 C 
ATOM      7  C   UNL     1      -3.020   3.163 126.428  0.00  0.00    +0.000 C 
ATOM      8  C   UNL     1      -6.344   3.035 124.810  0.00  0.00    +0.000 C 
ATOM      9  C   UNL     1      -6.068   3.540 123.378  0.00  0.00    +0.000 A 
ATOM     10  C   UNL     1      -4.968   4.341 123.026  0.00  0.00    +0.000 A 
ATOM     11  C   UNL     1      -4.636   4.795 121.752  0.00  0.00    +0.000 A 
ATOM     12  C   UNL     1      -5.480   4.537 120.729  0.00  0.00    +0.000 A 
ATOM     13  C   UNL     1      -6.633   3.806 121.000  0.00  0.00    +0.000 A 
ATOM     14  C   UNL     1      -6.921   3.303 122.301  0.00  0.00    +0.000 A 
ATOM     15  S   UNL     1      -8.458   2.447 122.379  0.00  0.00    +0.000 S 
ATOM     16  C   UNL     1      -8.582   1.951 124.067  0.00  0.00    +0.000 A 
ATOM     17  C   UNL     1      -9.763   1.206 124.324  0.00  0.00    +0.000 A 
ATOM     18  C   UNL     1     -10.066   0.715 125.584  0.00  0.00    +0.000 A 
ATOM     19  C   UNL     1      -9.143   0.889 126.578  0.00  0.00    +0.000 A 
ATOM     20  C   UNL     1      -7.922   1.499 126.273  0.00  0.00    +0.000 A 
ATOM     21  C   UNL     1      -7.623   2.177 125.067  0.00  0.00    +0.000 A 
ENDROOT
TORSDOF 0
ENDMDL
MODEL 2
REMARK VINA RESULT:      -7.4      3.684      6.500
REMARK  Name = Pimethixene
REMARK  1 active torsions:
REMARK  status: ('A' for Active; 'I' for Inactive)
REMARK    1  A    between atoms: C_1  and  N_2
REMARK                            x       y       z     vdW  Elec       q    Type
REMARK                         _______ _______ _______ _____ _____    ______ ____
ROOT
ATOM      1  C   UNL     1      -6.532   4.282 126.025  0.00  0.00    +0.000 C 
ATOM      2  N   UNL     1      -7.871   3.755 126.324  0.00  0.00    +0.000 NA
ATOM      3  C   UNL     1      -8.282   2.770 125.303  0.00  0.00    +0.000 C 
ATOM      4  C   UNL     1      -7.299   1.582 125.257  0.00  0.00    +0.000 C 
ATOM      5  C   UNL     1      -7.427   0.782 126.558  0.00  0.00    +0.000 C 
ATOM      6  C   UNL     1      -6.939   1.832 127.593  0.00  0.00    +0.000 C 
ATOM      7  C   UNL     1      -7.851   3.064 127.614  0.00  0.00    +0.000 C 
ATOM      8  C   UNL     1      -7.877  -0.517 126.689  0.00  0.00    +0.000 C 
ATOM      9  C   UNL     1      -7.796  -1.242 128.050  0.00  0.00    +0.000 A 
ATOM     10  C   UNL     1      -7.285  -0.657 129.222  0.00  0.00    +0.000 A 
ATOM     11  C   UNL     1      -7.223  -1.235 130.487  0.00  0.00    +0.000 A 
ATOM     12  C   UNL     1      -7.599  -2.525 130.632  0.00  0.00    +0.000 A 
ATOM     13  C   UNL     1      -8.054  -3.205 129.506  0.00  0.00    +0.000 A 
ATOM     14  C   UNL     1      -8.164  -2.574 128.235  0.00  0.00    +0.000 A 
ATOM     15  S   UNL     1      -8.730  -3.666 126.975  0.00  0.00    +0.000 S 
ATOM     16  C   UNL     1      -8.761  -2.661 125.525  0.00  0.00    +0.000 A 
ATOM     17  C   UNL     1      -9.229  -3.372 124.388  0.00  0.00    +0.000 A 
ATOM     18  C   UNL     1      -9.336  -2.778 123.141  0.00  0.00    +0.000 A 
ATOM     19  C   UNL     1      -9.060  -1.442 123.041  0.00  0.00    +0.000 A 
ATOM     20  C   UNL     1      -8.738  -0.726 124.198  0.00  0.00    +0.000 A 
ATOM     21  C   UNL     1      -8.439  -1.297 125.458  0.00  0.00    +0.000 A 
ENDROOT
TORSDOF 0
ENDMDL
MODEL 3
REMARK VINA RESULT:      -7.3      3.564      5.802
REMARK  Name = Pimethixene
REMARK  1 active torsions:
REMARK  status: ('A' for Active; 'I' for Inactive)
REMARK    1  A    between atoms: C_1  and  N_2
REMARK                            x       y       z     vdW  Elec       q    Type
REMARK                         _______ _______ _______ _____ _____    ______ ____
ROOT
ATOM      1  C   UNL     1      -7.833   4.590 125.882  0.00  0.00    +0.000 C 
ATOM      2  N   UNL     1      -6.767   3.579 125.826  0.00  0.00    +0.000 NA
ATOM      3  C   UNL     1      -6.713   2.810 127.085  0.00  0.00    +0.000 C 
ATOM      4  C   UNL     1      -8.049   2.082 127.344  0.00  0.00    +0.000 C 
ATOM      5  C   UNL     1      -8.226   0.982 126.291  0.00  0.00    +0.000 C 
ATOM      6  C   UNL     1      -8.329   1.834 124.997  0.00  0.00    +0.000 C 
ATOM      7  C   UNL     1      -7.044   2.631 124.746  0.00  0.00    +0.000 C 
ATOM      8  C   UNL     1      -8.261  -0.379 126.516  0.00  0.00    +0.000 C 
ATOM      9  C   UNL     1      -8.608  -1.356 125.373  0.00  0.00    +0.000 A 
ATOM     10  C   UNL     1      -8.898  -0.952 124.057  0.00  0.00    +0.000 A 
ATOM     11  C   UNL     1      -9.175  -1.778 122.971  0.00  0.00    +0.000 A 
ATOM     12  C   UNL     1      -9.277  -3.110 123.174  0.00  0.00    +0.000 A 
ATOM     13  C   UNL     1      -9.073  -3.592 124.464  0.00  0.00    +0.000 A 
ATOM     14  C   UNL     1      -8.732  -2.734 125.547  0.00  0.00    +0.000 A 
ATOM     15  S   UNL     1      -8.568  -3.592 127.076  0.00  0.00    +0.000 S 
ATOM     16  C   UNL     1      -8.169  -2.323 128.234  0.00  0.00    +0.000 A 
ATOM     17  C   UNL     1      -7.963  -2.834 129.543  0.00  0.00    +0.000 A 
ATOM     18  C   UNL     1      -7.639  -2.015 130.612  0.00  0.00    +0.000 A 
ATOM     19  C   UNL     1      -7.429  -0.686 130.361  0.00  0.00    +0.000 A 
ATOM     20  C   UNL     1      -7.495  -0.226 129.042  0.00  0.00    +0.000 A 
ATOM     21  C   UNL     1      -7.991  -0.962 127.941  0.00  0.00    +0.000 A 
ENDROOT
TORSDOF 0
ENDMDL
MODEL 4
REMARK VINA RESULT:      -7.3      0.777      4.428
REMARK  Name = Pimethixene
REMARK  1 active torsions:
REMARK  status: ('A' for Active; 'I' for Inactive)
REMARK    1  A    between atoms: C_1  and  N_2
REMARK                            x       y       z     vdW  Elec       q    Type
REMARK                         _______ _______ _______ _____ _____    ______ ____
ROOT
ATOM      1  C   UNL     1      -3.351   3.310 128.417  0.00  0.00    +0.000 C 
ATOM      2  N   UNL     1      -4.378   4.272 127.994  0.00  0.00    +0.000 NA
ATOM      3  C   UNL     1      -4.167   4.676 126.589  0.00  0.00    +0.000 C 
ATOM      4  C   UNL     1      -4.238   3.455 125.649  0.00  0.00    +0.000 C 
ATOM      5  C   UNL     1      -5.677   2.929 125.628  0.00  0.00    +0.000 C 
ATOM      6  C   UNL     1      -5.839   2.470 127.103  0.00  0.00    +0.000 C 
ATOM      7  C   UNL     1      -5.700   3.648 128.074  0.00  0.00    +0.000 C 
ATOM      8  C   UNL     1      -6.537   2.914 124.548  0.00  0.00    +0.000 C 
ATOM      9  C   UNL     1      -7.903   2.202 124.641  0.00  0.00    +0.000 A 
ATOM     10  C   UNL     1      -8.368   1.544 125.793  0.00  0.00    +0.000 A 
ATOM     11  C   UNL     1      -9.602   0.921 125.960  0.00  0.00    +0.000 A 
ATOM     12  C   UNL     1     -10.438   0.838 124.901  0.00  0.00    +0.000 A 
ATOM     13  C   UNL     1     -10.028   1.404 123.698  0.00  0.00    +0.000 A 
ATOM     14  C   UNL     1      -8.786   2.086 123.568  0.00  0.00    +0.000 A 
ATOM     15  S   UNL     1      -8.495   2.674 121.933  0.00  0.00    +0.000 S 
ATOM     16  C   UNL     1      -6.914   3.450 122.036  0.00  0.00    +0.000 A 
ATOM     17  C   UNL     1      -6.514   4.022 120.800  0.00  0.00    +0.000 A 
ATOM     18  C   UNL     1      -5.306   4.684 120.650  0.00  0.00    +0.000 A 
ATOM     19  C   UNL     1      -4.528   4.856 121.762  0.00  0.00    +0.000 A 
ATOM     20  C   UNL     1      -5.003   4.412 123.000  0.00  0.00    +0.000 A 
ATOM     21  C   UNL     1      -6.131   3.579 123.194  0.00  0.00    +0.000 A 
ENDROOT
TORSDOF 0
ENDMDL
MODEL 5
REMARK VINA RESULT:      -7.2      3.636      5.919
REMARK  Name = Pimethixene
REMARK  1 active torsions:
REMARK  status: ('A' for Active; 'I' for Inactive)
REMARK    1  A    between atoms: C_1  and  N_2
REMARK                            x       y       z     vdW  Elec       q    Type
REMARK                         _______ _______ _______ _____ _____    ______ ____
ROOT
ATOM      1  C   UNL     1      -6.544  -2.954 130.881  0.00  0.00    +0.000 C 
ATOM      2  N   UNL     1      -7.877  -2.441 130.535  0.00  0.00    +0.000 NA
ATOM      3  C   UNL     1      -7.811  -1.004 130.202  0.00  0.00    +0.000 C 
ATOM      4  C   UNL     1      -6.877  -0.760 128.998  0.00  0.00    +0.000 C 
ATOM      5  C   UNL     1      -7.519  -1.361 127.743  0.00  0.00    +0.000 C 
ATOM      6  C   UNL     1      -7.521  -2.869 128.113  0.00  0.00    +0.000 C 
ATOM      7  C   UNL     1      -8.382  -3.140 129.353  0.00  0.00    +0.000 C 
ATOM      8  C   UNL     1      -7.959  -0.674 126.630  0.00  0.00    +0.000 C 
ATOM      9  C   UNL     1      -8.437  -1.435 125.375  0.00  0.00    +0.000 A 
ATOM     10  C   UNL     1      -8.468  -2.837 125.272  0.00  0.00    +0.000 A 
ATOM     11  C   UNL     1      -8.925  -3.587 124.192  0.00  0.00    +0.000 A 
ATOM     12  C   UNL     1      -9.305  -2.942 123.066  0.00  0.00    +0.000 A 
ATOM     13  C   UNL     1      -9.241  -1.552 123.055  0.00  0.00    +0.000 A 
ATOM     14  C   UNL     1      -8.825  -0.805 124.193  0.00  0.00    +0.000 A 
ATOM     15  S   UNL     1      -8.799   0.931 123.901  0.00  0.00    +0.000 S 
ATOM     16  C   UNL     1      -8.244   1.611 125.431  0.00  0.00    +0.000 A 
ATOM     17  C   UNL     1      -8.187   3.029 125.401  0.00  0.00    +0.000 A 
ATOM     18  C   UNL     1      -7.777   3.774 126.495  0.00  0.00    +0.000 A 
ATOM     19  C   UNL     1      -7.508   3.109 127.659  0.00  0.00    +0.000 A 
ATOM     20  C   UNL     1      -7.707   1.725 127.712  0.00  0.00    +0.000 A 
ATOM     21  C   UNL     1      -7.947   0.888 126.597  0.00  0.00    +0.000 A 
ENDROOT
TORSDOF 0
ENDMDL
MODEL 6
REMARK VINA RESULT:      -7.1      3.334      4.964
REMARK  Name = Pimethixene
REMARK  1 active torsions:
REMARK  status: ('A' for Active; 'I' for Inactive)
REMARK    1  A    between atoms: C_1  and  N_2
REMARK                            x       y       z     vdW  Elec       q    Type
REMARK                         _______ _______ _______ _____ _____    ______ ____
ROOT
ATOM      1  C   UNL     1      -7.127  -2.233 131.067  0.00  0.00    +0.000 C 
ATOM      2  N   UNL     1      -6.192  -2.033 129.951  0.00  0.00    +0.000 NA
ATOM      3  C   UNL     1      -6.671  -2.728 128.740  0.00  0.00    +0.000 C 
ATOM      4  C   UNL     1      -8.052  -2.192 128.307  0.00  0.00    +0.000 C 
ATOM      5  C   UNL     1      -7.894  -0.748 127.820  0.00  0.00    +0.000 C 
ATOM      6  C   UNL     1      -7.441  -0.048 129.130  0.00  0.00    +0.000 C 
ATOM      7  C   UNL     1      -6.105  -0.607 129.632  0.00  0.00    +0.000 C 
ATOM      8  C   UNL     1      -8.105  -0.280 126.538  0.00  0.00    +0.000 C 
ATOM      9  C   UNL     1      -8.060   1.233 126.237  0.00  0.00    +0.000 A 
ATOM     10  C   UNL     1      -7.803   2.218 127.206  0.00  0.00    +0.000 A 
ATOM     11  C   UNL     1      -7.705   3.592 126.998  0.00  0.00    +0.000 A 
ATOM     12  C   UNL     1      -7.968   4.083 125.766  0.00  0.00    +0.000 A 
ATOM     13  C   UNL     1      -8.300   3.182 124.759  0.00  0.00    +0.000 A 
ATOM     14  C   UNL     1      -8.336   1.777 124.984  0.00  0.00    +0.000 A 
ATOM     15  S   UNL     1      -8.821   0.868 123.555  0.00  0.00    +0.000 S 
ATOM     16  C   UNL     1      -8.802  -0.812 124.095  0.00  0.00    +0.000 A 
ATOM     17  C   UNL     1      -9.143  -1.715 123.054  0.00  0.00    +0.000 A 
ATOM     18  C   UNL     1      -9.191  -3.086 123.254  0.00  0.00    +0.000 A 
ATOM     19  C   UNL     1      -8.811  -3.569 124.476  0.00  0.00    +0.000 A 
ATOM     20  C   UNL     1      -8.342  -2.676 125.444  0.00  0.00    +0.000 A 
ATOM     21  C   UNL     1      -8.434  -1.265 125.371  0.00  0.00    +0.000 A 
ENDROOT
TORSDOF 0
ENDMDL
MODEL 7
REMARK VINA RESULT:      -7.0      3.091      6.501
REMARK  Name = Pimethixene
REMARK  1 active torsions:
REMARK  status: ('A' for Active; 'I' for Inactive)
REMARK    1  A    between atoms: C_1  and  N_2
REMARK                            x       y       z     vdW  Elec       q    Type
REMARK                         _______ _______ _______ _____ _____    ______ ____
ROOT
ATOM      1  C   UNL     1      -9.607  -3.191 123.364  0.00  0.00    +0.000 C 
ATOM      2  N   UNL     1      -8.190  -2.962 123.681  0.00  0.00    +0.000 NA
ATOM      3  C   UNL     1      -7.684  -1.768 122.975  0.00  0.00    +0.000 C 
ATOM      4  C   UNL     1      -8.475  -0.509 123.385  0.00  0.00    +0.000 C 
ATOM      5  C   UNL     1      -8.163  -0.183 124.850  0.00  0.00    +0.000 C 
ATOM      6  C   UNL     1      -8.754  -1.432 125.557  0.00  0.00    +0.000 C 
ATOM      7  C   UNL     1      -8.040  -2.716 125.116  0.00  0.00    +0.000 C 
ATOM      8  C   UNL     1      -7.515   0.939 125.327  0.00  0.00    +0.000 C 
ATOM      9  C   UNL     1      -7.417   1.203 126.844  0.00  0.00    +0.000 A 
ATOM     10  C   UNL     1      -7.954   0.351 127.825  0.00  0.00    +0.000 A 
ATOM     11  C   UNL     1      -7.866   0.505 129.207  0.00  0.00    +0.000 A 
ATOM     12  C   UNL     1      -7.291   1.623 129.702  0.00  0.00    +0.000 A 
ATOM     13  C   UNL     1      -6.792   2.558 128.798  0.00  0.00    +0.000 A 
ATOM     14  C   UNL     1      -6.843   2.350 127.391  0.00  0.00    +0.000 A 
ATOM     15  S   UNL     1      -6.179   3.700 126.476  0.00  0.00    +0.000 S 
ATOM     16  C   UNL     1      -6.373   3.207 124.793  0.00  0.00    +0.000 A 
ATOM     17  C   UNL     1      -5.858   4.172 123.887  0.00  0.00    +0.000 A 
ATOM     18  C   UNL     1      -5.904   3.993 122.514  0.00  0.00    +0.000 A 
ATOM     19  C   UNL     1      -6.385   2.804 122.038  0.00  0.00    +0.000 A 
ATOM     20  C   UNL     1      -6.755   1.808 122.948  0.00  0.00    +0.000 A 
ATOM     21  C   UNL     1      -6.902   1.987 124.344  0.00  0.00    +0.000 A 
ENDROOT
TORSDOF 0
ENDMDL
MODEL 8
REMARK VINA RESULT:      -6.8      3.037      4.398
REMARK  Name = Pimethixene
REMARK  1 active torsions:
REMARK  status: ('A' for Active; 'I' for Inactive)
REMARK    1  A    between atoms: C_1  and  N_2
REMARK                            x       y       z     vdW  Elec       q    Type
REMARK                         _______ _______ _______ _____ _____    ______ ____
ROOT
ATOM      1  C   UNL     1      -6.898   3.340 130.984  0.00  0.00    +0.000 C 
ATOM      2  N   UNL     1      -5.998   2.626 130.066  0.00  0.00    +0.000 NA
ATOM      3  C   UNL     1      -6.284   1.178 130.079  0.00  0.00    +0.000 C 
ATOM      4  C   UNL     1      -7.736   0.899 129.637  0.00  0.00    +0.000 C 
ATOM      5  C   UNL     1      -7.880   1.252 128.153  0.00  0.00    +0.000 C 
ATOM      6  C   UNL     1      -7.623   2.783 128.193  0.00  0.00    +0.000 C 
ATOM      7  C   UNL     1      -6.212   3.102 128.699  0.00  0.00    +0.000 C 
ATOM      8  C   UNL     1      -8.152   0.379 127.119  0.00  0.00    +0.000 C 
ATOM      9  C   UNL     1      -8.427   0.910 125.695  0.00  0.00    +0.000 A 
ATOM     10  C   UNL     1      -8.413   2.272 125.350  0.00  0.00    +0.000 A 
ATOM     11  C   UNL     1      -8.608   2.816 124.083  0.00  0.00    +0.000 A 
ATOM     12  C   UNL     1      -8.937   1.991 123.064  0.00  0.00    +0.000 A 
ATOM     13  C   UNL     1      -9.041   0.630 123.332  0.00  0.00    +0.000 A 
ATOM     14  C   UNL     1      -8.780   0.091 124.623  0.00  0.00    +0.000 A 
ATOM     15  S   UNL     1      -9.020  -1.652 124.699  0.00  0.00    +0.000 S 
ATOM     16  C   UNL     1      -8.655  -2.057 126.377  0.00  0.00    +0.000 A 
ATOM     17  C   UNL     1      -8.765  -3.450 126.630  0.00  0.00    +0.000 A 
ATOM     18  C   UNL     1      -8.522  -3.993 127.882  0.00  0.00    +0.000 A 
ATOM     19  C   UNL     1      -8.079  -3.156 128.869  0.00  0.00    +0.000 A 
ATOM     20  C   UNL     1      -7.839  -1.813 128.564  0.00  0.00    +0.000 A 
ATOM     21  C   UNL     1      -8.231  -1.161 127.371  0.00  0.00    +0.000 A 
ENDROOT
TORSDOF 0
ENDMDL
MODEL 9
REMARK VINA RESULT:      -6.8      3.317      5.987
REMARK  Name = Pimethixene
REMARK  1 active torsions:
REMARK  status: ('A' for Active; 'I' for Inactive)
REMARK    1  A    between atoms: C_1  and  N_2
REMARK                            x       y       z     vdW  Elec       q    Type
REMARK                         _______ _______ _______ _____ _____    ______ ____
ROOT
ATOM      1  C   UNL     1      -6.708   3.421 130.796  0.00  0.00    +0.000 C 
ATOM      2  N   UNL     1      -8.073   3.071 130.379  0.00  0.00    +0.000 NA
ATOM      3  C   UNL     1      -8.272   3.366 128.946  0.00  0.00    +0.000 C 
ATOM      4  C   UNL     1      -7.285   2.560 128.076  0.00  0.00    +0.000 C 
ATOM      5  C   UNL     1      -7.648   1.074 128.161  0.00  0.00    +0.000 C 
ATOM      6  C   UNL     1      -7.376   0.795 129.664  0.00  0.00    +0.000 C 
ATOM      7  C   UNL     1      -8.290   1.635 130.564  0.00  0.00    +0.000 C 
ATOM      8  C   UNL     1      -8.099   0.273 127.131  0.00  0.00    +0.000 C 
ATOM      9  C   UNL     1      -8.269  -1.247 127.335  0.00  0.00    +0.000 A 
ATOM     10  C   UNL     1      -7.996  -1.912 128.544  0.00  0.00    +0.000 A 
ATOM     11  C   UNL     1      -8.168  -3.268 128.810  0.00  0.00    +0.000 A 
ATOM     12  C   UNL     1      -8.550  -4.086 127.804  0.00  0.00    +0.000 A 
ATOM     13  C   UNL     1      -8.776  -3.522 126.552  0.00  0.00    +0.000 A 
ATOM     14  C   UNL     1      -8.650  -2.123 126.319  0.00  0.00    +0.000 A 
ATOM     15  S   UNL     1      -8.954  -1.678 124.643  0.00  0.00    +0.000 S 
ATOM     16  C   UNL     1      -8.721   0.071 124.619  0.00  0.00    +0.000 A 
ATOM     17  C   UNL     1      -8.958   0.628 123.335  0.00  0.00    +0.000 A 
ATOM     18  C   UNL     1      -8.833   1.985 123.085  0.00  0.00    +0.000 A 
ATOM     19  C   UNL     1      -8.558   2.808 124.143  0.00  0.00    +0.000 A 
ATOM     20  C   UNL     1      -8.470   2.259 125.426  0.00  0.00    +0.000 A 
ATOM     21  C   UNL     1      -8.409   0.878 125.724  0.00  0.00    +0.000 A 
ENDROOT
TORSDOF 0
ENDMDL
