MODEL 1
REMARK VINA RESULT:      -9.3      0.000      0.000
REMARK  Name = Pimozide
REMARK  7 active torsions:
REMARK  status: ('A' for Active; 'I' for Inactive)
REMARK    1  A    between atoms: C_5  and  C_8
REMARK    2  A    between atoms: C_8  and  C_9
REMARK    3  A    between atoms: C_8  and  C_28
REMARK    4  A    between atoms: C_9  and  C_10
REMARK    5  A    between atoms: C_10  and  C_11
REMARK    6  A    between atoms: C_11  and  N_12
REMARK    7  A    between atoms: C_15  and  N_18
REMARK                            x       y       z     vdW  Elec       q    Type
REMARK                         _______ _______ _______ _____ _____    ______ ____
ROOT
ATOM      1  C   UNL     1      -8.346   2.299 127.202  0.00  0.00    +0.000 C 
ENDROOT
BRANCH   1   2
ATOM      2  N   UNL     1      -7.302   1.855 128.159  0.00  0.00    +0.000 NA
ATOM      3  C   UNL     1      -7.879   1.552 129.486  0.00  0.00    +0.000 C 
ATOM      4  C   UNL     1      -6.841   1.010 130.448  0.00  0.00    +0.000 C 
ATOM      5  C   UNL     1      -6.028  -0.132 129.826  0.00  0.00    +0.000 C 
ATOM      6  C   UNL     1      -5.327   0.344 128.566  0.00  0.00    +0.000 C 
ATOM      7  C   UNL     1      -6.344   0.864 127.600  0.00  0.00    +0.000 C 
BRANCH   5   8
ATOM      8  N   UNL     1      -6.775  -1.389 129.653  0.00  0.00    +0.000 N 
ATOM      9  C   UNL     1      -6.829  -2.368 130.671  0.00  0.00    +0.000 A 
ATOM     10  O   UNL     1      -6.301  -2.327 131.782  0.00  0.00    +0.000 OA
ATOM     11  N   UNL     1      -7.611  -3.423 130.184  0.00  0.00    +0.000 N 
ATOM     12  C   UNL     1      -8.035  -3.130 128.894  0.00  0.00    +0.000 A 
ATOM     13  C   UNL     1      -8.823  -3.874 128.023  0.00  0.00    +0.000 A 
ATOM     14  C   UNL     1      -9.116  -3.356 126.749  0.00  0.00    +0.000 A 
ATOM     15  C   UNL     1      -8.619  -2.128 126.375  0.00  0.00    +0.000 A 
ATOM     16  C   UNL     1      -7.841  -1.436 127.287  0.00  0.00    +0.000 A 
ATOM     17  C   UNL     1      -7.531  -1.895 128.552  0.00  0.00    +0.000 A 
ATOM     18  H   UNL     1      -7.815  -4.250 130.718  0.00  0.00    +0.000 HD
ENDBRANCH   5   8
ENDBRANCH   1   2
BRANCH   1  19
ATOM     19  C   UNL     1      -7.714   2.969 125.995  0.00  0.00    +0.000 C 
BRANCH  19  20
ATOM     20  C   UNL     1      -8.364   2.760 124.672  0.00  0.00    +0.000 C 
BRANCH  20  21
ATOM     21  C   UNL     1      -7.402   2.107 123.630  0.00  0.00    +0.000 C 
BRANCH  21  26
ATOM     22  F   UNL     1      -7.235   4.795 118.608  0.00  0.00    +0.000 F 
ATOM     23  C   UNL     1      -7.274   4.190 119.800  0.00  0.00    +0.000 A 
ATOM     24  C   UNL     1      -8.494   3.909 120.387  0.00  0.00    +0.000 A 
ATOM     25  C   UNL     1      -8.519   3.355 121.666  0.00  0.00    +0.000 A 
ATOM     26  C   UNL     1      -7.345   2.895 122.297  0.00  0.00    +0.000 A 
ATOM     27  C   UNL     1      -6.131   3.179 121.651  0.00  0.00    +0.000 A 
ATOM     28  C   UNL     1      -6.092   3.870 120.443  0.00  0.00    +0.000 A 
ENDBRANCH  21  26
BRANCH  21  29
ATOM     29  C   UNL     1      -7.801   0.635 123.459  0.00  0.00    +0.000 A 
ATOM     30  C   UNL     1      -6.804  -0.354 123.389  0.00  0.00    +0.000 A 
ATOM     31  C   UNL     1      -7.138  -1.660 123.041  0.00  0.00    +0.000 A 
ATOM     32  C   UNL     1      -8.472  -2.003 122.852  0.00  0.00    +0.000 A 
ATOM     33  F   UNL     1      -8.794  -3.261 122.536  0.00  0.00    +0.000 F 
ATOM     34  C   UNL     1      -9.479  -1.063 122.980  0.00  0.00    +0.000 A 
ATOM     35  C   UNL     1      -9.143   0.249 123.267  0.00  0.00    +0.000 A 
ENDBRANCH  21  29
ENDBRANCH  20  21
ENDBRANCH  19  20
ENDBRANCH   1  19
TORSDOF 7
ENDMDL
MODEL 2
REMARK VINA RESULT:      -9.2      3.362      7.056
REMARK  Name = Pimozide
REMARK  7 active torsions:
REMARK  status: ('A' for Active; 'I' for Inactive)
REMARK    1  A    between atoms: C_5  and  C_8
REMARK    2  A    between atoms: C_8  and  C_9
REMARK    3  A    between atoms: C_8  and  C_28
REMARK    4  A    between atoms: C_9  and  C_10
REMARK    5  A    between atoms: C_10  and  C_11
REMARK    6  A    between atoms: C_11  and  N_12
REMARK    7  A    between atoms: C_15  and  N_18
REMARK                            x       y       z     vdW  Elec       q    Type
REMARK                         _______ _______ _______ _____ _____    ______ ____
ROOT
ATOM      1  C   UNL     1      -5.392   0.902 128.267  0.00  0.00    +0.000 C 
ENDROOT
BRANCH   1   2
ATOM      2  N   UNL     1      -5.248   2.255 127.674  0.00  0.00    +0.000 NA
ATOM      3  C   UNL     1      -4.375   2.232 126.481  0.00  0.00    +0.000 C 
ATOM      4  C   UNL     1      -4.291   3.589 125.811  0.00  0.00    +0.000 C 
ATOM      5  C   UNL     1      -5.679   4.197 125.578  0.00  0.00    +0.000 C 
ATOM      6  C   UNL     1      -6.417   4.347 126.896  0.00  0.00    +0.000 C 
ATOM      7  C   UNL     1      -6.524   3.010 127.559  0.00  0.00    +0.000 C 
BRANCH   5   8
ATOM      8  N   UNL     1      -6.467   3.533 124.526  0.00  0.00    +0.000 N 
ATOM      9  C   UNL     1      -6.257   3.808 123.155  0.00  0.00    +0.000 A 
ATOM     10  O   UNL     1      -5.443   4.586 122.661  0.00  0.00    +0.000 OA
ATOM     11  N   UNL     1      -7.164   3.019 122.435  0.00  0.00    +0.000 N 
ATOM     12  C   UNL     1      -7.932   2.271 123.319  0.00  0.00    +0.000 A 
ATOM     13  C   UNL     1      -8.948   1.356 123.065  0.00  0.00    +0.000 A 
ATOM     14  C   UNL     1      -9.586   0.722 124.145  0.00  0.00    +0.000 A 
ATOM     15  C   UNL     1      -9.206   1.012 125.436  0.00  0.00    +0.000 A 
ATOM     16  C   UNL     1      -8.188   1.930 125.624  0.00  0.00    +0.000 A 
ATOM     17  C   UNL     1      -7.524   2.575 124.599  0.00  0.00    +0.000 A 
ATOM     18  H   UNL     1      -7.219   3.018 121.432  0.00  0.00    +0.000 HD
ENDBRANCH   5   8
ENDBRANCH   1   2
BRANCH   1  19
ATOM     19  C   UNL     1      -6.781   0.721 128.851  0.00  0.00    +0.000 C 
BRANCH  19  20
ATOM     20  C   UNL     1      -7.555  -0.480 128.429  0.00  0.00    +0.000 C 
BRANCH  20  21
ATOM     21  C   UNL     1      -6.692  -1.485 127.601  0.00  0.00    +0.000 C 
BRANCH  21  26
ATOM     22  F   UNL     1      -9.591  -3.459 123.109  0.00  0.00    +0.000 F 
ATOM     23  C   UNL     1      -8.901  -3.023 124.169  0.00  0.00    +0.000 A 
ATOM     24  C   UNL     1      -7.600  -2.585 124.005  0.00  0.00    +0.000 A 
ATOM     25  C   UNL     1      -6.865  -2.212 125.130  0.00  0.00    +0.000 A 
ATOM     26  C   UNL     1      -7.466  -2.084 126.400  0.00  0.00    +0.000 A 
ATOM     27  C   UNL     1      -8.797  -2.515 126.511  0.00  0.00    +0.000 A 
ATOM     28  C   UNL     1      -9.490  -3.033 125.419  0.00  0.00    +0.000 A 
ENDBRANCH  21  26
BRANCH  21  29
ATOM     29  C   UNL     1      -6.126  -2.542 128.558  0.00  0.00    +0.000 A 
ATOM     30  C   UNL     1      -6.983  -3.191 129.465  0.00  0.00    +0.000 A 
ATOM     31  C   UNL     1      -6.455  -4.003 130.465  0.00  0.00    +0.000 A 
ATOM     32  C   UNL     1      -5.086  -4.243 130.508  0.00  0.00    +0.000 A 
ATOM     33  F   UNL     1      -4.582  -5.038 131.457  0.00  0.00    +0.000 F 
ATOM     34  C   UNL     1      -4.229  -3.668 129.587  0.00  0.00    +0.000 A 
ATOM     35  C   UNL     1      -4.745  -2.813 128.629  0.00  0.00    +0.000 A 
ENDBRANCH  21  29
ENDBRANCH  20  21
ENDBRANCH  19  20
ENDBRANCH   1  19
TORSDOF 7
ENDMDL
MODEL 3
REMARK VINA RESULT:      -9.0      0.786      4.009
REMARK  Name = Pimozide
REMARK  7 active torsions:
REMARK  status: ('A' for Active; 'I' for Inactive)
REMARK    1  A    between atoms: C_5  and  C_8
REMARK    2  A    between atoms: C_8  and  C_9
REMARK    3  A    between atoms: C_8  and  C_28
REMARK    4  A    between atoms: C_9  and  C_10
REMARK    5  A    between atoms: C_10  and  C_11
REMARK    6  A    between atoms: C_11  and  N_12
REMARK    7  A    between atoms: C_15  and  N_18
REMARK                            x       y       z     vdW  Elec       q    Type
REMARK                         _______ _______ _______ _____ _____    ______ ____
ROOT
ATOM      1  C   UNL     1      -5.277   1.815 126.713  0.00  0.00    +0.000 C 
ENDROOT
BRANCH   1   2
ATOM      2  N   UNL     1      -5.636   1.821 128.153  0.00  0.00    +0.000 NA
ATOM      3  C   UNL     1      -7.103   1.820 128.345  0.00  0.00    +0.000 C 
ATOM      4  C   UNL     1      -7.485   1.734 129.808  0.00  0.00    +0.000 C 
ATOM      5  C   UNL     1      -6.745   0.600 130.525  0.00  0.00    +0.000 C 
ATOM      6  C   UNL     1      -5.244   0.802 130.424  0.00  0.00    +0.000 C 
ATOM      7  C   UNL     1      -4.850   0.869 128.982  0.00  0.00    +0.000 C 
BRANCH   5   8
ATOM      8  N   UNL     1      -7.191  -0.753 130.151  0.00  0.00    +0.000 N 
ATOM      9  C   UNL     1      -7.197  -1.817 131.081  0.00  0.00    +0.000 A 
ATOM     10  O   UNL     1      -6.857  -1.785 132.263  0.00  0.00    +0.000 OA
ATOM     11  N   UNL     1      -7.670  -2.949 130.404  0.00  0.00    +0.000 N 
ATOM     12  C   UNL     1      -7.949  -2.618 129.084  0.00  0.00    +0.000 A 
ATOM     13  C   UNL     1      -8.435  -3.410 128.049  0.00  0.00    +0.000 A 
ATOM     14  C   UNL     1      -8.634  -2.836 126.781  0.00  0.00    +0.000 A 
ATOM     15  C   UNL     1      -8.344  -1.507 126.575  0.00  0.00    +0.000 A 
ATOM     16  C   UNL     1      -7.865  -0.771 127.644  0.00  0.00    +0.000 A 
ATOM     17  C   UNL     1      -7.658  -1.284 128.910  0.00  0.00    +0.000 A 
ATOM     18  H   UNL     1      -7.781  -3.847 130.843  0.00  0.00    +0.000 HD
ENDBRANCH   5   8
ENDBRANCH   1   2
BRANCH   1  19
ATOM     19  C   UNL     1      -6.509   2.043 125.855  0.00  0.00    +0.000 C 
BRANCH  19  20
ATOM     20  C   UNL     1      -6.297   2.449 124.438  0.00  0.00    +0.000 C 
BRANCH  20  21
ATOM     21  C   UNL     1      -7.569   2.236 123.559  0.00  0.00    +0.000 C 
BRANCH  21  26
ATOM     22  F   UNL     1      -8.744  -3.301 122.895  0.00  0.00    +0.000 F 
ATOM     23  C   UNL     1      -8.469  -1.998 123.022  0.00  0.00    +0.000 A 
ATOM     24  C   UNL     1      -9.503  -1.089 123.148  0.00  0.00    +0.000 A 
ATOM     25  C   UNL     1      -9.205   0.273 123.195  0.00  0.00    +0.000 A 
ATOM     26  C   UNL     1      -7.879   0.738 123.313  0.00  0.00    +0.000 A 
ATOM     27  C   UNL     1      -6.863  -0.225 123.206  0.00  0.00    +0.000 A 
ATOM     28  C   UNL     1      -7.153  -1.573 123.005  0.00  0.00    +0.000 A 
ENDBRANCH  21  26
BRANCH  21  29
ATOM     29  C   UNL     1      -7.410   3.053 122.269  0.00  0.00    +0.000 A 
ATOM     30  C   UNL     1      -8.545   3.382 121.508  0.00  0.00    +0.000 A 
ATOM     31  C   UNL     1      -8.399   3.949 120.245  0.00  0.00    +0.000 A 
ATOM     32  C   UNL     1      -7.130   4.272 119.777  0.00  0.00    +0.000 A 
ATOM     33  F   UNL     1      -6.991   4.833 118.572  0.00  0.00    +0.000 F 
ATOM     34  C   UNL     1      -6.000   4.018 120.535  0.00  0.00    +0.000 A 
ATOM     35  C   UNL     1      -6.141   3.400 121.766  0.00  0.00    +0.000 A 
ENDBRANCH  21  29
ENDBRANCH  20  21
ENDBRANCH  19  20
ENDBRANCH   1  19
TORSDOF 7
ENDMDL
MODEL 4
REMARK VINA RESULT:      -9.0      4.076      8.753
REMARK  Name = Pimozide
REMARK  7 active torsions:
REMARK  status: ('A' for Active; 'I' for Inactive)
REMARK    1  A    between atoms: C_5  and  C_8
REMARK    2  A    between atoms: C_8  and  C_9
REMARK    3  A    between atoms: C_8  and  C_28
REMARK    4  A    between atoms: C_9  and  C_10
REMARK    5  A    between atoms: C_10  and  C_11
REMARK    6  A    between atoms: C_11  and  N_12
REMARK    7  A    between atoms: C_15  and  N_18
REMARK                            x       y       z     vdW  Elec       q    Type
REMARK                         _______ _______ _______ _____ _____    ______ ____
ROOT
ATOM      1  C   UNL     1      -9.380  -3.294 126.538  0.00  0.00    +0.000 C 
ENDROOT
BRANCH   1   2
ATOM      2  N   UNL     1      -8.655  -2.985 125.281  0.00  0.00    +0.000 NA
ATOM      3  C   UNL     1      -9.590  -2.662 124.182  0.00  0.00    +0.000 C 
ATOM      4  C   UNL     1      -8.863  -2.255 122.917  0.00  0.00    +0.000 C 
ATOM      5  C   UNL     1      -7.800  -1.185 123.189  0.00  0.00    +0.000 C 
ATOM      6  C   UNL     1      -6.783  -1.695 124.194  0.00  0.00    +0.000 C 
ATOM      7  C   UNL     1      -7.486  -2.082 125.457  0.00  0.00    +0.000 C 
BRANCH   5   8
ATOM      8  N   UNL     1      -8.342   0.145 123.511  0.00  0.00    +0.000 N 
ATOM      9  C   UNL     1      -9.593   0.579 123.016  0.00  0.00    +0.000 A 
ATOM     10  O   UNL     1     -10.370  -0.042 122.292  0.00  0.00    +0.000 OA
ATOM     11  N   UNL     1      -9.801   1.875 123.506  0.00  0.00    +0.000 N 
ATOM     12  C   UNL     1      -8.714   2.258 124.281  0.00  0.00    +0.000 A 
ATOM     13  C   UNL     1      -8.480   3.447 124.964  0.00  0.00    +0.000 A 
ATOM     14  C   UNL     1      -7.283   3.599 125.688  0.00  0.00    +0.000 A 
ATOM     15  C   UNL     1      -6.359   2.579 125.710  0.00  0.00    +0.000 A 
ATOM     16  C   UNL     1      -6.650   1.421 125.011  0.00  0.00    +0.000 A 
ATOM     17  C   UNL     1      -7.812   1.218 124.292  0.00  0.00    +0.000 A 
ATOM     18  H   UNL     1     -10.626   2.413 123.307  0.00  0.00    +0.000 HD
ENDBRANCH   5   8
ENDBRANCH   1   2
BRANCH   1  19
ATOM     19  C   UNL     1      -8.451  -3.951 127.543  0.00  0.00    +0.000 C 
BRANCH  19  20
ATOM     20  C   UNL     1      -8.325  -3.314 128.884  0.00  0.00    +0.000 C 
BRANCH  20  21
ATOM     21  C   UNL     1      -7.061  -2.404 128.996  0.00  0.00    +0.000 C 
BRANCH  21  26
ATOM     22  F   UNL     1      -3.185  -4.541 132.586  0.00  0.00    +0.000 F 
ATOM     23  C   UNL     1      -4.082  -4.054 131.722  0.00  0.00    +0.000 A 
ATOM     24  C   UNL     1      -5.260  -4.742 131.496  0.00  0.00    +0.000 A 
ATOM     25  C   UNL     1      -6.148  -4.267 130.532  0.00  0.00    +0.000 A 
ATOM     26  C   UNL     1      -5.973  -3.008 129.919  0.00  0.00    +0.000 A 
ATOM     27  C   UNL     1      -4.774  -2.334 130.200  0.00  0.00    +0.000 A 
ATOM     28  C   UNL     1      -3.812  -2.877 131.048  0.00  0.00    +0.000 A 
ENDBRANCH  21  26
BRANCH  21  29
ATOM     29  C   UNL     1      -7.512  -0.997 129.413  0.00  0.00    +0.000 A 
ATOM     30  C   UNL     1      -8.026  -0.785 130.704  0.00  0.00    +0.000 A 
ATOM     31  C   UNL     1      -8.616   0.434 131.029  0.00  0.00    +0.000 A 
ATOM     32  C   UNL     1      -8.612   1.470 130.101  0.00  0.00    +0.000 A 
ATOM     33  F   UNL     1      -9.162   2.646 130.420  0.00  0.00    +0.000 F 
ATOM     34  C   UNL     1      -8.054   1.307 128.846  0.00  0.00    +0.000 A 
ATOM     35  C   UNL     1      -7.521   0.077 128.502  0.00  0.00    +0.000 A 
ENDBRANCH  21  29
ENDBRANCH  20  21
ENDBRANCH  19  20
ENDBRANCH   1  19
TORSDOF 7
ENDMDL
MODEL 5
REMARK VINA RESULT:      -8.9      1.562      2.070
REMARK  Name = Pimozide
REMARK  7 active torsions:
REMARK  status: ('A' for Active; 'I' for Inactive)
REMARK    1  A    between atoms: C_5  and  C_8
REMARK    2  A    between atoms: C_8  and  C_9
REMARK    3  A    between atoms: C_8  and  C_28
REMARK    4  A    between atoms: C_9  and  C_10
REMARK    5  A    between atoms: C_10  and  C_11
REMARK    6  A    between atoms: C_11  and  N_12
REMARK    7  A    between atoms: C_15  and  N_18
REMARK                            x       y       z     vdW  Elec       q    Type
REMARK                         _______ _______ _______ _____ _____    ______ ____
ROOT
ATOM      1  C   UNL     1      -7.826   4.077 126.887  0.00  0.00    +0.000 C 
ENDROOT
BRANCH   1   2
ATOM      2  N   UNL     1      -7.729   3.539 128.266  0.00  0.00    +0.000 NA
ATOM      3  C   UNL     1      -8.535   2.309 128.425  0.00  0.00    +0.000 C 
ATOM      4  C   UNL     1      -8.374   1.697 129.802  0.00  0.00    +0.000 C 
ATOM      5  C   UNL     1      -6.899   1.552 130.193  0.00  0.00    +0.000 C 
ATOM      6  C   UNL     1      -6.213   2.906 130.176  0.00  0.00    +0.000 C 
ATOM      7  C   UNL     1      -6.347   3.513 128.816  0.00  0.00    +0.000 C 
BRANCH   5   8
ATOM      8  N   UNL     1      -6.172   0.506 129.454  0.00  0.00    +0.000 N 
ATOM      9  C   UNL     1      -4.807   0.233 129.702  0.00  0.00    +0.000 A 
ATOM     10  O   UNL     1      -4.067   0.783 130.515  0.00  0.00    +0.000 OA
ATOM     11  N   UNL     1      -4.433  -0.803 128.836  0.00  0.00    +0.000 N 
ATOM     12  C   UNL     1      -5.522  -1.173 128.057  0.00  0.00    +0.000 A 
ATOM     13  C   UNL     1      -5.622  -2.147 127.069  0.00  0.00    +0.000 A 
ATOM     14  C   UNL     1      -6.851  -2.332 126.410  0.00  0.00    +0.000 A 
ATOM     15  C   UNL     1      -7.934  -1.550 126.741  0.00  0.00    +0.000 A 
ATOM     16  C   UNL     1      -7.771  -0.598 127.733  0.00  0.00    +0.000 A 
ATOM     17  C   UNL     1      -6.590  -0.382 128.416  0.00  0.00    +0.000 A 
ATOM     18  H   UNL     1      -3.508  -1.196 128.815  0.00  0.00    +0.000 HD
ENDBRANCH   5   8
ENDBRANCH   1   2
BRANCH   1  19
ATOM     19  C   UNL     1      -7.194   3.117 125.894  0.00  0.00    +0.000 C 
BRANCH  19  20
ATOM     20  C   UNL     1      -8.003   2.723 124.707  0.00  0.00    +0.000 C 
BRANCH  20  21
ATOM     21  C   UNL     1      -7.148   2.007 123.614  0.00  0.00    +0.000 C 
BRANCH  21  26
ATOM     22  F   UNL     1      -7.145   4.985 118.755  0.00  0.00    +0.000 F 
ATOM     23  C   UNL     1      -7.147   4.261 119.880  0.00  0.00    +0.000 A 
ATOM     24  C   UNL     1      -5.949   3.843 120.427  0.00  0.00    +0.000 A 
ATOM     25  C   UNL     1      -5.969   3.020 121.553  0.00  0.00    +0.000 A 
ATOM     26  C   UNL     1      -7.162   2.760 122.260  0.00  0.00    +0.000 A 
ATOM     27  C   UNL     1      -8.351   3.228 121.679  0.00  0.00    +0.000 A 
ATOM     28  C   UNL     1      -8.350   3.922 120.472  0.00  0.00    +0.000 A 
ENDBRANCH  21  26
BRANCH  21  29
ATOM     29  C   UNL     1      -7.613   0.548 123.512  0.00  0.00    +0.000 A 
ATOM     30  C   UNL     1      -6.691  -0.455 123.168  0.00  0.00    +0.000 A 
ATOM     31  C   UNL     1      -7.134  -1.744 122.883  0.00  0.00    +0.000 A 
ATOM     32  C   UNL     1      -8.481  -2.057 123.029  0.00  0.00    +0.000 A 
ATOM     33  F   UNL     1      -8.904  -3.299 122.773  0.00  0.00    +0.000 F 
ATOM     34  C   UNL     1      -9.400  -1.104 123.430  0.00  0.00    +0.000 A 
ATOM     35  C   UNL     1      -8.969   0.193 123.656  0.00  0.00    +0.000 A 
ENDBRANCH  21  29
ENDBRANCH  20  21
ENDBRANCH  19  20
ENDBRANCH   1  19
TORSDOF 7
ENDMDL
MODEL 6
REMARK VINA RESULT:      -8.8      3.415      7.441
REMARK  Name = Pimozide
REMARK  7 active torsions:
REMARK  status: ('A' for Active; 'I' for Inactive)
REMARK    1  A    between atoms: C_5  and  C_8
REMARK    2  A    between atoms: C_8  and  C_9
REMARK    3  A    between atoms: C_8  and  C_28
REMARK    4  A    between atoms: C_9  and  C_10
REMARK    5  A    between atoms: C_10  and  C_11
REMARK    6  A    between atoms: C_11  and  N_12
REMARK    7  A    between atoms: C_15  and  N_18
REMARK                            x       y       z     vdW  Elec       q    Type
REMARK                         _______ _______ _______ _____ _____    ______ ____
ROOT
ATOM      1  C   UNL     1      -4.575   1.553 128.572  0.00  0.00    +0.000 C 
ENDROOT
BRANCH   1   2
ATOM      2  N   UNL     1      -4.779   2.812 127.813  0.00  0.00    +0.000 NA
ATOM      3  C   UNL     1      -4.046   2.792 126.528  0.00  0.00    +0.000 C 
ATOM      4  C   UNL     1      -4.316   4.032 125.700  0.00  0.00    +0.000 C 
ATOM      5  C   UNL     1      -5.817   4.321 125.579  0.00  0.00    +0.000 C 
ATOM      6  C   UNL     1      -6.432   4.508 126.954  0.00  0.00    +0.000 C 
ATOM      7  C   UNL     1      -6.189   3.282 127.776  0.00  0.00    +0.000 C 
BRANCH   5   8
ATOM      8  N   UNL     1      -6.552   3.378 124.720  0.00  0.00    +0.000 N 
ATOM      9  C   UNL     1      -6.335   3.317 123.325  0.00  0.00    +0.000 A 
ATOM     10  O   UNL     1      -5.553   3.991 122.656  0.00  0.00    +0.000 OA
ATOM     11  N   UNL     1      -7.188   2.326 122.820  0.00  0.00    +0.000 N 
ATOM     12  C   UNL     1      -7.931   1.780 123.859  0.00  0.00    +0.000 A 
ATOM     13  C   UNL     1      -8.895   0.778 123.835  0.00  0.00    +0.000 A 
ATOM     14  C   UNL     1      -9.517   0.396 125.036  0.00  0.00    +0.000 A 
ATOM     15  C   UNL     1      -9.174   1.015 126.217  0.00  0.00    +0.000 A 
ATOM     16  C   UNL     1      -8.207   2.005 126.175  0.00  0.00    +0.000 A 
ATOM     17  C   UNL     1      -7.560   2.412 125.025  0.00  0.00    +0.000 A 
ATOM     18  H   UNL     1      -7.225   2.076 121.847  0.00  0.00    +0.000 HD
ENDBRANCH   5   8
ENDBRANCH   1   2
BRANCH   1  19
ATOM     19  C   UNL     1      -5.823   0.689 128.517  0.00  0.00    +0.000 C 
BRANCH  19  20
ATOM     20  C   UNL     1      -5.831  -0.447 127.553  0.00  0.00    +0.000 C 
BRANCH  20  21
ATOM     21  C   UNL     1      -6.844  -1.565 127.958  0.00  0.00    +0.000 C 
BRANCH  21  26
ATOM     22  F   UNL     1      -4.589  -5.130 131.789  0.00  0.00    +0.000 F 
ATOM     23  C   UNL     1      -5.125  -4.316 130.873  0.00  0.00    +0.000 A 
ATOM     24  C   UNL     1      -6.461  -3.972 130.961  0.00  0.00    +0.000 A 
ATOM     25  C   UNL     1      -7.027  -3.192 129.953  0.00  0.00    +0.000 A 
ATOM     26  C   UNL     1      -6.237  -2.584 128.955  0.00  0.00    +0.000 A 
ATOM     27  C   UNL     1      -4.880  -2.942 128.923  0.00  0.00    +0.000 A 
ATOM     28  C   UNL     1      -4.341  -3.843 129.837  0.00  0.00    +0.000 A 
ENDBRANCH  21  26
BRANCH  21  29
ATOM     29  C   UNL     1      -7.393  -2.208 126.677  0.00  0.00    +0.000 A 
ATOM     30  C   UNL     1      -6.650  -2.133 125.486  0.00  0.00    +0.000 A 
ATOM     31  C   UNL     1      -7.219  -2.537 124.281  0.00  0.00    +0.000 A 
ATOM     32  C   UNL     1      -8.491  -3.100 124.274  0.00  0.00    +0.000 A 
ATOM     33  F   UNL     1      -9.030  -3.505 123.120  0.00  0.00    +0.000 F 
ATOM     34  C   UNL     1      -9.217  -3.245 125.443  0.00  0.00    +0.000 A 
ATOM     35  C   UNL     1      -8.676  -2.789 126.632  0.00  0.00    +0.000 A 
ENDBRANCH  21  29
ENDBRANCH  20  21
ENDBRANCH  19  20
ENDBRANCH   1  19
TORSDOF 7
ENDMDL
MODEL 7
REMARK VINA RESULT:      -8.7      3.919      8.258
REMARK  Name = Pimozide
REMARK  7 active torsions:
REMARK  status: ('A' for Active; 'I' for Inactive)
REMARK    1  A    between atoms: C_5  and  C_8
REMARK    2  A    between atoms: C_8  and  C_9
REMARK    3  A    between atoms: C_8  and  C_28
REMARK    4  A    between atoms: C_9  and  C_10
REMARK    5  A    between atoms: C_10  and  C_11
REMARK    6  A    between atoms: C_11  and  N_12
REMARK    7  A    between atoms: C_15  and  N_18
REMARK                            x       y       z     vdW  Elec       q    Type
REMARK                         _______ _______ _______ _____ _____    ______ ____
ROOT
ATOM      1  C   UNL     1      -8.827  -3.620 126.473  0.00  0.00    +0.000 C 
ENDROOT
BRANCH   1   2
ATOM      2  N   UNL     1      -8.294  -3.256 125.137  0.00  0.00    +0.000 NA
ATOM      3  C   UNL     1      -9.384  -2.940 124.188  0.00  0.00    +0.000 C 
ATOM      4  C   UNL     1      -8.854  -2.478 122.846  0.00  0.00    +0.000 C 
ATOM      5  C   UNL     1      -7.797  -1.378 122.997  0.00  0.00    +0.000 C 
ATOM      6  C   UNL     1      -6.634  -1.876 123.837  0.00  0.00    +0.000 C 
ATOM      7  C   UNL     1      -7.141  -2.317 125.173  0.00  0.00    +0.000 C 
BRANCH   5   8
ATOM      8  N   UNL     1      -8.329  -0.075 123.430  0.00  0.00    +0.000 N 
ATOM      9  C   UNL     1      -9.605   0.379 123.023  0.00  0.00    +0.000 A 
ATOM     10  O   UNL     1     -10.413  -0.201 122.298  0.00  0.00    +0.000 OA
ATOM     11  N   UNL     1      -9.796   1.639 123.604  0.00  0.00    +0.000 N 
ATOM     12  C   UNL     1      -8.675   1.980 124.351  0.00  0.00    +0.000 A 
ATOM     13  C   UNL     1      -8.414   3.125 125.096  0.00  0.00    +0.000 A 
ATOM     14  C   UNL     1      -7.186   3.240 125.771  0.00  0.00    +0.000 A 
ATOM     15  C   UNL     1      -6.256   2.229 125.684  0.00  0.00    +0.000 A 
ATOM     16  C   UNL     1      -6.575   1.115 124.927  0.00  0.00    +0.000 A 
ATOM     17  C   UNL     1      -7.768   0.949 124.252  0.00  0.00    +0.000 A 
ATOM     18  H   UNL     1     -10.632   2.183 123.479  0.00  0.00    +0.000 HD
ENDBRANCH   5   8
ENDBRANCH   1   2
BRANCH   1  19
ATOM     19  C   UNL     1      -8.231  -2.727 127.546  0.00  0.00    +0.000 C 
BRANCH  19  20
ATOM     20  C   UNL     1      -7.541  -3.389 128.689  0.00  0.00    +0.000 C 
BRANCH  20  21
ATOM     21  C   UNL     1      -7.597  -2.535 129.995  0.00  0.00    +0.000 C 
BRANCH  21  26
ATOM     22  F   UNL     1      -5.835   2.789 128.982  0.00  0.00    +0.000 F 
ATOM     23  C   UNL     1      -6.241   1.543 129.248  0.00  0.00    +0.000 A 
ATOM     24  C   UNL     1      -7.550   1.315 129.629  0.00  0.00    +0.000 A 
ATOM     25  C   UNL     1      -7.938   0.024 129.983  0.00  0.00    +0.000 A 
ATOM     26  C   UNL     1      -7.091  -1.086 129.781  0.00  0.00    +0.000 A 
ATOM     27  C   UNL     1      -5.779  -0.808 129.367  0.00  0.00    +0.000 A 
ATOM     28  C   UNL     1      -5.340   0.497 129.158  0.00  0.00    +0.000 A 
ENDBRANCH  21  26
BRANCH  21  29
ATOM     29  C   UNL     1      -6.849  -3.292 131.101  0.00  0.00    +0.000 A 
ATOM     30  C   UNL     1      -5.908  -4.278 130.756  0.00  0.00    +0.000 A 
ATOM     31  C   UNL     1      -5.368  -5.103 131.740  0.00  0.00    +0.000 A 
ATOM     32  C   UNL     1      -5.695  -4.888 133.074  0.00  0.00    +0.000 A 
ATOM     33  F   UNL     1      -5.163  -5.669 134.020  0.00  0.00    +0.000 F 
ATOM     34  C   UNL     1      -6.569  -3.883 133.446  0.00  0.00    +0.000 A 
ATOM     35  C   UNL     1      -7.151  -3.100 132.463  0.00  0.00    +0.000 A 
ENDBRANCH  21  29
ENDBRANCH  20  21
ENDBRANCH  19  20
ENDBRANCH   1  19
TORSDOF 7
ENDMDL
MODEL 8
REMARK VINA RESULT:      -8.7      4.644      7.694
REMARK  Name = Pimozide
REMARK  7 active torsions:
REMARK  status: ('A' for Active; 'I' for Inactive)
REMARK    1  A    between atoms: C_5  and  C_8
REMARK    2  A    between atoms: C_8  and  C_9
REMARK    3  A    between atoms: C_8  and  C_28
REMARK    4  A    between atoms: C_9  and  C_10
REMARK    5  A    between atoms: C_10  and  C_11
REMARK    6  A    between atoms: C_11  and  N_12
REMARK    7  A    between atoms: C_15  and  N_18
REMARK                            x       y       z     vdW  Elec       q    Type
REMARK                         _______ _______ _______ _____ _____    ______ ____
ROOT
ATOM      1  C   UNL     1      -8.979   2.545 130.074  0.00  0.00    +0.000 C 
ENDROOT
BRANCH   1   2
ATOM      2  N   UNL     1      -8.835   3.896 130.671  0.00  0.00    +0.000 NA
ATOM      3  C   UNL     1      -8.525   4.912 129.642  0.00  0.00    +0.000 C 
ATOM      4  C   UNL     1      -8.465   6.310 130.222  0.00  0.00    +0.000 C 
ATOM      5  C   UNL     1      -9.694   6.624 131.082  0.00  0.00    +0.000 C 
ATOM      6  C   UNL     1      -9.810   5.627 132.221  0.00  0.00    +0.000 C 
ATOM      7  C   UNL     1      -9.890   4.243 131.660  0.00  0.00    +0.000 C 
BRANCH   5   8
ATOM      8  N   UNL     1     -10.940   6.808 130.320  0.00  0.00    +0.000 N 
ATOM      9  C   UNL     1     -12.205   6.799 130.952  0.00  0.00    +0.000 A 
ATOM     10  O   UNL     1     -12.447   6.649 132.148  0.00  0.00    +0.000 OA
ATOM     11  N   UNL     1     -13.165   6.996 129.949  0.00  0.00    +0.000 N 
ATOM     12  C   UNL     1     -12.532   7.118 128.719  0.00  0.00    +0.000 A 
ATOM     13  C   UNL     1     -13.073   7.322 127.454  0.00  0.00    +0.000 A 
ATOM     14  C   UNL     1     -12.212   7.410 126.345  0.00  0.00    +0.000 A 
ATOM     15  C   UNL     1     -10.852   7.289 126.519  0.00  0.00    +0.000 A 
ATOM     16  C   UNL     1     -10.375   7.087 127.802  0.00  0.00    +0.000 A 
ATOM     17  C   UNL     1     -11.176   7.001 128.925  0.00  0.00    +0.000 A 
ATOM     18  H   UNL     1     -14.152   7.039 130.133  0.00  0.00    +0.000 HD
ENDBRANCH   5   8
ENDBRANCH   1   2
BRANCH   1  19
ATOM     19  C   UNL     1      -8.300   2.487 128.717  0.00  0.00    +0.000 C 
BRANCH  19  20
ATOM     20  C   UNL     1      -8.255   1.168 128.026  0.00  0.00    +0.000 C 
BRANCH  20  21
ATOM     21  C   UNL     1      -8.135   1.310 126.476  0.00  0.00    +0.000 C 
BRANCH  21  26
ATOM     22  F   UNL     1      -9.245  -3.565 123.741  0.00  0.00    +0.000 F 
ATOM     23  C   UNL     1      -8.956  -2.425 124.379  0.00  0.00    +0.000 A 
ATOM     24  C   UNL     1      -8.837  -1.250 123.662  0.00  0.00    +0.000 A 
ATOM     25  C   UNL     1      -8.453  -0.086 124.328  0.00  0.00    +0.000 A 
ATOM     26  C   UNL     1      -8.372  -0.030 125.735  0.00  0.00    +0.000 A 
ATOM     27  C   UNL     1      -8.527  -1.244 126.423  0.00  0.00    +0.000 A 
ATOM     28  C   UNL     1      -8.760  -2.440 125.748  0.00  0.00    +0.000 A 
ENDBRANCH  21  26
BRANCH  21  29
ATOM     29  C   UNL     1      -6.785   1.964 126.152  0.00  0.00    +0.000 A 
ATOM     30  C   UNL     1      -5.597   1.377 126.622  0.00  0.00    +0.000 A 
ATOM     31  C   UNL     1      -4.388   2.058 126.504  0.00  0.00    +0.000 A 
ATOM     32  C   UNL     1      -4.346   3.278 125.838  0.00  0.00    +0.000 A 
ATOM     33  F   UNL     1      -3.182   3.923 125.709  0.00  0.00    +0.000 F 
ATOM     34  C   UNL     1      -5.491   3.846 125.309  0.00  0.00    +0.000 A 
ATOM     35  C   UNL     1      -6.703   3.198 125.478  0.00  0.00    +0.000 A 
ENDBRANCH  21  29
ENDBRANCH  20  21
ENDBRANCH  19  20
ENDBRANCH   1  19
TORSDOF 7
ENDMDL
MODEL 9
REMARK VINA RESULT:      -8.7      5.156      9.290
REMARK  Name = Pimozide
REMARK  7 active torsions:
REMARK  status: ('A' for Active; 'I' for Inactive)
REMARK    1  A    between atoms: C_5  and  C_8
REMARK    2  A    between atoms: C_8  and  C_9
REMARK    3  A    between atoms: C_8  and  C_28
REMARK    4  A    between atoms: C_9  and  C_10
REMARK    5  A    between atoms: C_10  and  C_11
REMARK    6  A    between atoms: C_11  and  N_12
REMARK    7  A    between atoms: C_15  and  N_18
REMARK                            x       y       z     vdW  Elec       q    Type
REMARK                         _______ _______ _______ _____ _____    ______ ____
ROOT
ATOM      1  C   UNL     1      -8.198   0.898 131.799  0.00  0.00    +0.000 C 
ENDROOT
BRANCH   1   2
ATOM      2  N   UNL     1      -8.123   1.887 132.904  0.00  0.00    +0.000 NA
ATOM      3  C   UNL     1      -6.813   2.572 132.927  0.00  0.00    +0.000 C 
ATOM      4  C   UNL     1      -6.752   3.648 133.991  0.00  0.00    +0.000 C 
ATOM      5  C   UNL     1      -7.964   4.585 133.925  0.00  0.00    +0.000 C 
ATOM      6  C   UNL     1      -9.250   3.797 134.099  0.00  0.00    +0.000 C 
ATOM      7  C   UNL     1      -9.331   2.742 133.041  0.00  0.00    +0.000 C 
BRANCH   5   8
ATOM      8  N   UNL     1      -7.972   5.491 132.765  0.00  0.00    +0.000 N 
ATOM      9  C   UNL     1      -6.779   6.031 132.235  0.00  0.00    +0.000 A 
ATOM     10  O   UNL     1      -5.629   5.843 132.629  0.00  0.00    +0.000 OA
ATOM     11  N   UNL     1      -7.142   6.842 131.151  0.00  0.00    +0.000 N 
ATOM     12  C   UNL     1      -8.523   6.825 131.001  0.00  0.00    +0.000 A 
ATOM     13  C   UNL     1      -9.327   7.474 130.070  0.00  0.00    +0.000 A 
ATOM     14  C   UNL     1     -10.721   7.299 130.127  0.00  0.00    +0.000 A 
ATOM     15  C   UNL     1     -11.274   6.496 131.099  0.00  0.00    +0.000 A 
ATOM     16  C   UNL     1     -10.421   5.878 131.996  0.00  0.00    +0.000 A 
ATOM     17  C   UNL     1      -9.047   6.010 131.979  0.00  0.00    +0.000 A 
ATOM     18  H   UNL     1      -6.475   7.342 130.589  0.00  0.00    +0.000 HD
ENDBRANCH   5   8
ENDBRANCH   1   2
BRANCH   1  19
ATOM     19  C   UNL     1      -6.813   0.390 131.443  0.00  0.00    +0.000 C 
BRANCH  19  20
ATOM     20  C   UNL     1      -6.696  -0.529 130.276  0.00  0.00    +0.000 C 
BRANCH  20  21
ATOM     21  C   UNL     1      -7.537  -1.832 130.455  0.00  0.00    +0.000 C 
BRANCH  21  26
ATOM     22  F   UNL     1      -4.976  -5.955 133.441  0.00  0.00    +0.000 F 
ATOM     23  C   UNL     1      -5.555  -4.969 132.747  0.00  0.00    +0.000 A 
ATOM     24  C   UNL     1      -5.269  -4.818 131.403  0.00  0.00    +0.000 A 
ATOM     25  C   UNL     1      -5.814  -3.736 130.712  0.00  0.00    +0.000 A 
ATOM     26  C   UNL     1      -6.798  -2.907 131.290  0.00  0.00    +0.000 A 
ATOM     27  C   UNL     1      -7.075  -3.116 132.650  0.00  0.00    +0.000 A 
ATOM     28  C   UNL     1      -6.419  -4.099 133.387  0.00  0.00    +0.000 A 
ENDBRANCH  21  26
BRANCH  21  29
ATOM     29  C   UNL     1      -7.974  -2.321 129.068  0.00  0.00    +0.000 A 
ATOM     30  C   UNL     1      -8.718  -3.508 128.950  0.00  0.00    +0.000 A 
ATOM     31  C   UNL     1      -8.952  -4.065 127.695  0.00  0.00    +0.000 A 
ATOM     32  C   UNL     1      -8.526  -3.394 126.554  0.00  0.00    +0.000 A 
ATOM     33  F   UNL     1      -8.767  -3.919 125.348  0.00  0.00    +0.000 F 
ATOM     34  C   UNL     1      -7.849  -2.191 126.640  0.00  0.00    +0.000 A 
ATOM     35  C   UNL     1      -7.563  -1.667 127.889  0.00  0.00    +0.000 A 
ENDBRANCH  21  29
ENDBRANCH  20  21
ENDBRANCH  19  20
ENDBRANCH   1  19
TORSDOF 7
ENDMDL
