MODEL 1
REMARK VINA RESULT:      -6.3      0.000      0.000
REMARK  Name = Pinacidil
REMARK  8 active torsions:
REMARK  status: ('A' for Active; 'I' for Inactive)
REMARK    1  A    between atoms: C_1  and  C_2
REMARK    2  A    between atoms: C_2  and  N_3
REMARK    3  A    between atoms: C_2  and  C_15
REMARK    4  A    between atoms: N_5  and  C_6
REMARK    5  A    between atoms: N_8  and  C_9
REMARK    6  A    between atoms: C_15  and  C_16
REMARK    7  A    between atoms: C_15  and  C_17
REMARK    8  A    between atoms: C_15  and  C_18
REMARK                            x       y       z     vdW  Elec       q    Type
REMARK                         _______ _______ _______ _____ _____    ______ ____
ROOT
ATOM      1  N   UNL     1     -11.859   5.677 129.932  0.00  0.00    +0.000 N 
ATOM      2  C   UNL     1     -10.770   4.870 130.177  0.00  0.00    +0.000 C 
ATOM      3  N   UNL     1      -9.524   5.419 130.337  0.00  0.00    +0.000 N 
ATOM      4  N   UNL     1     -11.002   3.576 130.252  0.00  0.00    +0.000 NA
ATOM      5  H   UNL     1     -12.736   5.180 129.788  0.00  0.00    +0.000 HD
ATOM      6  H   UNL     1      -8.778   4.782 130.540  0.00  0.00    +0.000 HD
ENDROOT
BRANCH   4   7
ATOM      7  C   UNL     1      -9.986   2.643 130.593  0.00  0.00    +0.000 A 
ATOM      8  C   UNL     1      -9.923   2.042 131.855  0.00  0.00    +0.000 A 
ATOM      9  C   UNL     1      -8.906   1.147 132.141  0.00  0.00    +0.000 A 
ATOM     10  N   UNL     1      -7.981   0.765 131.244  0.00  0.00    +0.000 NA
ATOM     11  C   UNL     1      -8.086   1.301 130.008  0.00  0.00    +0.000 A 
ATOM     12  C   UNL     1      -9.051   2.234 129.643  0.00  0.00    +0.000 A 
ENDBRANCH   4   7
BRANCH   1  14
ATOM     13  C   UNL     1     -12.750   7.565 131.213  0.00  0.00    +0.000 C 
ATOM     14  C   UNL     1     -11.916   7.135 129.984  0.00  0.00    +0.000 C 
BRANCH  14  15
ATOM     15  C   UNL     1     -12.473   7.830 128.708  0.00  0.00    +0.000 C 
ATOM     16  C   UNL     1     -13.671   7.051 128.147  0.00  0.00    +0.000 C 
ATOM     17  C   UNL     1     -12.934   9.262 129.091  0.00  0.00    +0.000 C 
ATOM     18  C   UNL     1     -11.399   7.970 127.619  0.00  0.00    +0.000 C 
ENDBRANCH  14  15
ENDBRANCH   1  14
BRANCH   3  19
ATOM     19  C   UNL     1      -9.096   6.778 130.235  0.00  0.00    +0.000 C 
ATOM     20  N   UNL     1      -8.672   7.852 130.089  0.00  0.00    +0.000 NA
ENDBRANCH   3  19
TORSDOF 4
ENDMDL
MODEL 2
REMARK VINA RESULT:      -6.1      2.463      4.181
REMARK  Name = Pinacidil
REMARK  8 active torsions:
REMARK  status: ('A' for Active; 'I' for Inactive)
REMARK    1  A    between atoms: C_1  and  C_2
REMARK    2  A    between atoms: C_2  and  N_3
REMARK    3  A    between atoms: C_2  and  C_15
REMARK    4  A    between atoms: N_5  and  C_6
REMARK    5  A    between atoms: N_8  and  C_9
REMARK    6  A    between atoms: C_15  and  C_16
REMARK    7  A    between atoms: C_15  and  C_17
REMARK    8  A    between atoms: C_15  and  C_18
REMARK                            x       y       z     vdW  Elec       q    Type
REMARK                         _______ _______ _______ _____ _____    ______ ____
ROOT
ATOM      1  N   UNL     1      -9.928   7.502 129.676  0.00  0.00    +0.000 N 
ATOM      2  C   UNL     1      -9.013   6.735 130.363  0.00  0.00    +0.000 C 
ATOM      3  N   UNL     1      -9.255   5.405 130.587  0.00  0.00    +0.000 N 
ATOM      4  N   UNL     1      -7.919   7.348 130.768  0.00  0.00    +0.000 NA
ATOM      5  H   UNL     1      -9.684   8.487 129.591  0.00  0.00    +0.000 HD
ATOM      6  H   UNL     1      -8.538   4.896 131.068  0.00  0.00    +0.000 HD
ENDROOT
BRANCH   4   7
ATOM      7  C   UNL     1      -6.854   6.654 131.402  0.00  0.00    +0.000 A 
ATOM      8  C   UNL     1      -5.589   6.540 130.816  0.00  0.00    +0.000 A 
ATOM      9  C   UNL     1      -4.587   5.844 131.470  0.00  0.00    +0.000 A 
ATOM     10  N   UNL     1      -4.738   5.301 132.690  0.00  0.00    +0.000 NA
ATOM     11  C   UNL     1      -5.942   5.470 133.278  0.00  0.00    +0.000 A 
ATOM     12  C   UNL     1      -7.016   6.122 132.681  0.00  0.00    +0.000 A 
ENDBRANCH   4   7
BRANCH   1  14
ATOM     13  C   UNL     1     -10.941   7.321 127.454  0.00  0.00    +0.000 C 
ATOM     14  C   UNL     1     -11.118   7.044 128.964  0.00  0.00    +0.000 C 
BRANCH  14  15
ATOM     15  C   UNL     1     -12.465   7.650 129.451  0.00  0.00    +0.000 C 
ATOM     16  C   UNL     1     -12.499   9.164 129.203  0.00  0.00    +0.000 C 
ATOM     17  C   UNL     1     -13.620   6.980 128.658  0.00  0.00    +0.000 C 
ATOM     18  C   UNL     1     -12.712   7.371 130.942  0.00  0.00    +0.000 C 
ENDBRANCH  14  15
ENDBRANCH   1  14
BRANCH   3  19
ATOM     19  C   UNL     1     -10.396   4.609 130.266  0.00  0.00    +0.000 C 
ATOM     20  N   UNL     1     -11.307   3.905 130.090  0.00  0.00    +0.000 NA
ENDBRANCH   3  19
TORSDOF 4
ENDMDL
MODEL 3
REMARK VINA RESULT:      -6.1      2.003      6.424
REMARK  Name = Pinacidil
REMARK  8 active torsions:
REMARK  status: ('A' for Active; 'I' for Inactive)
REMARK    1  A    between atoms: C_1  and  C_2
REMARK    2  A    between atoms: C_2  and  N_3
REMARK    3  A    between atoms: C_2  and  C_15
REMARK    4  A    between atoms: N_5  and  C_6
REMARK    5  A    between atoms: N_8  and  C_9
REMARK    6  A    between atoms: C_15  and  C_16
REMARK    7  A    between atoms: C_15  and  C_17
REMARK    8  A    between atoms: C_15  and  C_18
REMARK                            x       y       z     vdW  Elec       q    Type
REMARK                         _______ _______ _______ _____ _____    ______ ____
ROOT
ATOM      1  N   UNL     1     -10.364   4.560 131.778  0.00  0.00    +0.000 N 
ATOM      2  C   UNL     1     -10.738   5.462 130.806  0.00  0.00    +0.000 C 
ATOM      3  N   UNL     1      -9.962   5.638 129.691  0.00  0.00    +0.000 N 
ATOM      4  N   UNL     1     -11.863   6.115 131.012  0.00  0.00    +0.000 NA
ATOM      5  H   UNL     1     -10.980   4.523 132.588  0.00  0.00    +0.000 HD
ATOM      6  H   UNL     1     -10.302   6.288 129.008  0.00  0.00    +0.000 HD
ENDROOT
BRANCH   4   7
ATOM      7  C   UNL     1     -12.412   7.001 130.047  0.00  0.00    +0.000 A 
ATOM      8  C   UNL     1     -13.126   6.540 128.936  0.00  0.00    +0.000 A 
ATOM      9  C   UNL     1     -13.630   7.445 128.018  0.00  0.00    +0.000 A 
ATOM     10  N   UNL     1     -13.525   8.777 128.156  0.00  0.00    +0.000 NA
ATOM     11  C   UNL     1     -12.889   9.218 129.264  0.00  0.00    +0.000 A 
ATOM     12  C   UNL     1     -12.320   8.382 130.219  0.00  0.00    +0.000 A 
ENDBRANCH   4   7
BRANCH   1  14
ATOM     13  C   UNL     1      -9.883   2.167 131.585  0.00  0.00    +0.000 C 
ATOM     14  C   UNL     1      -9.280   3.584 131.717  0.00  0.00    +0.000 C 
BRANCH  14  15
ATOM     15  C   UNL     1      -8.281   3.615 132.909  0.00  0.00    +0.000 C 
ATOM     16  C   UNL     1      -7.152   4.621 132.643  0.00  0.00    +0.000 C 
ATOM     17  C   UNL     1      -9.054   4.046 134.185  0.00  0.00    +0.000 C 
ATOM     18  C   UNL     1      -7.677   2.230 133.186  0.00  0.00    +0.000 C 
ENDBRANCH  14  15
ENDBRANCH   1  14
BRANCH   3  19
ATOM     19  C   UNL     1      -8.704   5.058 129.342  0.00  0.00    +0.000 C 
ATOM     20  N   UNL     1      -7.684   4.638 128.970  0.00  0.00    +0.000 NA
ENDBRANCH   3  19
TORSDOF 4
ENDMDL
MODEL 4
REMARK VINA RESULT:      -6.0      1.770      6.533
REMARK  Name = Pinacidil
REMARK  8 active torsions:
REMARK  status: ('A' for Active; 'I' for Inactive)
REMARK    1  A    between atoms: C_1  and  C_2
REMARK    2  A    between atoms: C_2  and  N_3
REMARK    3  A    between atoms: C_2  and  C_15
REMARK    4  A    between atoms: N_5  and  C_6
REMARK    5  A    between atoms: N_8  and  C_9
REMARK    6  A    between atoms: C_15  and  C_16
REMARK    7  A    between atoms: C_15  and  C_17
REMARK    8  A    between atoms: C_15  and  C_18
REMARK                            x       y       z     vdW  Elec       q    Type
REMARK                         _______ _______ _______ _____ _____    ______ ____
ROOT
ATOM      1  N   UNL     1     -10.471   4.655 131.135  0.00  0.00    +0.000 N 
ATOM      2  C   UNL     1     -10.805   5.922 130.711  0.00  0.00    +0.000 C 
ATOM      3  N   UNL     1      -9.833   6.873 130.539  0.00  0.00    +0.000 N 
ATOM      4  N   UNL     1     -12.082   6.147 130.479  0.00  0.00    +0.000 NA
ATOM      5  H   UNL     1     -11.261   4.027 131.271  0.00  0.00    +0.000 HD
ATOM      6  H   UNL     1     -10.137   7.766 130.203  0.00  0.00    +0.000 HD
ENDROOT
BRANCH   4   7
ATOM      7  C   UNL     1     -12.550   7.379 129.948  0.00  0.00    +0.000 A 
ATOM      8  C   UNL     1     -12.930   7.513 128.608  0.00  0.00    +0.000 A 
ATOM      9  C   UNL     1     -13.368   8.739 128.137  0.00  0.00    +0.000 A 
ATOM     10  N   UNL     1     -13.509   9.825 128.916  0.00  0.00    +0.000 NA
ATOM     11  C   UNL     1     -13.202   9.671 130.222  0.00  0.00    +0.000 A 
ATOM     12  C   UNL     1     -12.719   8.489 130.775  0.00  0.00    +0.000 A 
ENDBRANCH   4   7
BRANCH   1  14
ATOM     13  C   UNL     1      -8.751   3.351 129.979  0.00  0.00    +0.000 C 
ATOM     14  C   UNL     1      -9.133   4.089 131.282  0.00  0.00    +0.000 C 
BRANCH  14  15
ATOM     15  C   UNL     1      -8.938   3.137 132.496  0.00  0.00    +0.000 C 
ATOM     16  C   UNL     1      -9.768   1.857 132.320  0.00  0.00    +0.000 C 
ATOM     17  C   UNL     1      -7.435   2.758 132.586  0.00  0.00    +0.000 C 
ATOM     18  C   UNL     1      -9.320   3.814 133.821  0.00  0.00    +0.000 C 
ENDBRANCH  14  15
ENDBRANCH   1  14
BRANCH   3  19
ATOM     19  C   UNL     1      -8.429   6.811 130.792  0.00  0.00    +0.000 C 
ATOM     20  N   UNL     1      -7.278   6.857 130.966  0.00  0.00    +0.000 NA
ENDBRANCH   3  19
TORSDOF 4
ENDMDL
MODEL 5
REMARK VINA RESULT:      -5.9      6.560      9.665
REMARK  Name = Pinacidil
REMARK  8 active torsions:
REMARK  status: ('A' for Active; 'I' for Inactive)
REMARK    1  A    between atoms: C_1  and  C_2
REMARK    2  A    between atoms: C_2  and  N_3
REMARK    3  A    between atoms: C_2  and  C_15
REMARK    4  A    between atoms: N_5  and  C_6
REMARK    5  A    between atoms: N_8  and  C_9
REMARK    6  A    between atoms: C_15  and  C_16
REMARK    7  A    between atoms: C_15  and  C_17
REMARK    8  A    between atoms: C_15  and  C_18
REMARK                            x       y       z     vdW  Elec       q    Type
REMARK                         _______ _______ _______ _____ _____    ______ ____
ROOT
ATOM      1  N   UNL     1      -7.767  -0.659 125.041  0.00  0.00    +0.000 N 
ATOM      2  C   UNL     1      -7.735   0.696 124.794  0.00  0.00    +0.000 C 
ATOM      3  N   UNL     1      -8.694   1.279 124.007  0.00  0.00    +0.000 N 
ATOM      4  N   UNL     1      -6.754   1.373 125.356  0.00  0.00    +0.000 NA
ATOM      5  H   UNL     1      -6.994  -1.010 125.602  0.00  0.00    +0.000 HD
ATOM      6  H   UNL     1      -8.631   2.272 123.889  0.00  0.00    +0.000 HD
ENDROOT
BRANCH   4   7
ATOM      7  C   UNL     1      -6.658   2.787 125.262  0.00  0.00    +0.000 A 
ATOM      8  C   UNL     1      -5.790   3.415 124.362  0.00  0.00    +0.000 A 
ATOM      9  C   UNL     1      -5.727   4.797 124.317  0.00  0.00    +0.000 A 
ATOM     10  N   UNL     1      -6.506   5.599 125.063  0.00  0.00    +0.000 NA
ATOM     11  C   UNL     1      -7.387   4.986 125.884  0.00  0.00    +0.000 A 
ATOM     12  C   UNL     1      -7.494   3.606 126.021  0.00  0.00    +0.000 A 
ENDBRANCH   4   7
BRANCH   1  14
ATOM     13  C   UNL     1      -9.370  -2.242 126.000  0.00  0.00    +0.000 C 
ATOM     14  C   UNL     1      -8.831  -1.600 124.702  0.00  0.00    +0.000 C 
BRANCH  14  15
ATOM     15  C   UNL     1      -8.441  -2.717 123.692  0.00  0.00    +0.000 C 
ATOM     16  C   UNL     1      -7.667  -2.127 122.504  0.00  0.00    +0.000 C 
ATOM     17  C   UNL     1      -7.539  -3.747 124.423  0.00  0.00    +0.000 C 
ATOM     18  C   UNL     1      -9.673  -3.474 123.174  0.00  0.00    +0.000 C 
ENDBRANCH  14  15
ENDBRANCH   1  14
BRANCH   3  19
ATOM     19  C   UNL     1      -9.779   0.691 123.289  0.00  0.00    +0.000 C 
ATOM     20  N   UNL     1     -10.692   0.307 122.677  0.00  0.00    +0.000 NA
ENDBRANCH   3  19
TORSDOF 4
ENDMDL
MODEL 6
REMARK VINA RESULT:      -5.7      8.207      9.400
REMARK  Name = Pinacidil
REMARK  8 active torsions:
REMARK  status: ('A' for Active; 'I' for Inactive)
REMARK    1  A    between atoms: C_1  and  C_2
REMARK    2  A    between atoms: C_2  and  N_3
REMARK    3  A    between atoms: C_2  and  C_15
REMARK    4  A    between atoms: N_5  and  C_6
REMARK    5  A    between atoms: N_8  and  C_9
REMARK    6  A    between atoms: C_15  and  C_16
REMARK    7  A    between atoms: C_15  and  C_17
REMARK    8  A    between atoms: C_15  and  C_18
REMARK                            x       y       z     vdW  Elec       q    Type
REMARK                         _______ _______ _______ _____ _____    ______ ____
ROOT
ATOM      1  N   UNL     1      -8.237  -2.698 126.710  0.00  0.00    +0.000 N 
ATOM      2  C   UNL     1      -7.409  -2.711 127.811  0.00  0.00    +0.000 C 
ATOM      3  N   UNL     1      -6.241  -1.994 127.806  0.00  0.00    +0.000 N 
ATOM      4  N   UNL     1      -7.809  -3.430 128.839  0.00  0.00    +0.000 NA
ATOM      5  H   UNL     1      -9.062  -3.290 126.788  0.00  0.00    +0.000 HD
ATOM      6  H   UNL     1      -5.696  -2.022 128.647  0.00  0.00    +0.000 HD
ENDROOT
BRANCH   4   7
ATOM      7  C   UNL     1      -7.099  -3.454 130.069  0.00  0.00    +0.000 A 
ATOM      8  C   UNL     1      -7.430  -2.610 131.135  0.00  0.00    +0.000 A 
ATOM      9  C   UNL     1      -6.699  -2.664 132.309  0.00  0.00    +0.000 A 
ATOM     10  N   UNL     1      -5.699  -3.537 132.519  0.00  0.00    +0.000 NA
ATOM     11  C   UNL     1      -5.425  -4.392 131.510  0.00  0.00    +0.000 A 
ATOM     12  C   UNL     1      -6.082  -4.385 130.284  0.00  0.00    +0.000 A 
ENDBRANCH   4   7
BRANCH   1  14
ATOM     13  C   UNL     1      -9.310  -0.852 125.511  0.00  0.00    +0.000 C 
ATOM     14  C   UNL     1      -8.130  -1.851 125.526  0.00  0.00    +0.000 C 
BRANCH  14  15
ATOM     15  C   UNL     1      -8.069  -2.604 124.166  0.00  0.00    +0.000 C 
ATOM     16  C   UNL     1      -7.666  -1.647 123.035  0.00  0.00    +0.000 C 
ATOM     17  C   UNL     1      -7.008  -3.732 124.278  0.00  0.00    +0.000 C 
ATOM     18  C   UNL     1      -9.410  -3.269 123.820  0.00  0.00    +0.000 C 
ENDBRANCH  14  15
ENDBRANCH   1  14
BRANCH   3  19
ATOM     19  C   UNL     1      -5.642  -1.216 126.770  0.00  0.00    +0.000 C 
ATOM     20  N   UNL     1      -5.162  -0.500 125.987  0.00  0.00    +0.000 NA
ENDBRANCH   3  19
TORSDOF 4
ENDMDL
MODEL 7
REMARK VINA RESULT:      -5.6      6.135      9.162
REMARK  Name = Pinacidil
REMARK  8 active torsions:
REMARK  status: ('A' for Active; 'I' for Inactive)
REMARK    1  A    between atoms: C_1  and  C_2
REMARK    2  A    between atoms: C_2  and  N_3
REMARK    3  A    between atoms: C_2  and  C_15
REMARK    4  A    between atoms: N_5  and  C_6
REMARK    5  A    between atoms: N_8  and  C_9
REMARK    6  A    between atoms: C_15  and  C_16
REMARK    7  A    between atoms: C_15  and  C_17
REMARK    8  A    between atoms: C_15  and  C_18
REMARK                            x       y       z     vdW  Elec       q    Type
REMARK                         _______ _______ _______ _____ _____    ______ ____
ROOT
ATOM      1  N   UNL     1      -7.273  -0.905 125.503  0.00  0.00    +0.000 N 
ATOM      2  C   UNL     1      -7.163   0.459 125.665  0.00  0.00    +0.000 C 
ATOM      3  N   UNL     1      -8.175   1.288 125.257  0.00  0.00    +0.000 N 
ATOM      4  N   UNL     1      -6.056   0.897 126.228  0.00  0.00    +0.000 NA
ATOM      5  H   UNL     1      -6.458  -1.438 125.799  0.00  0.00    +0.000 HD
ATOM      6  H   UNL     1      -8.046   2.267 125.426  0.00  0.00    +0.000 HD
ENDROOT
BRANCH   4   7
ATOM      7  C   UNL     1      -5.855   2.268 126.540  0.00  0.00    +0.000 A 
ATOM      8  C   UNL     1      -6.256   2.819 127.762  0.00  0.00    +0.000 A 
ATOM      9  C   UNL     1      -6.047   4.164 128.011  0.00  0.00    +0.000 A 
ATOM     10  N   UNL     1      -5.419   4.988 127.156  0.00  0.00    +0.000 NA
ATOM     11  C   UNL     1      -4.978   4.436 126.005  0.00  0.00    +0.000 A 
ATOM     12  C   UNL     1      -5.175   3.104 125.654  0.00  0.00    +0.000 A 
ENDBRANCH   4   7
BRANCH   1  14
ATOM     13  C   UNL     1      -8.999  -2.452 126.294  0.00  0.00    +0.000 C 
ATOM     14  C   UNL     1      -8.452  -1.659 125.085  0.00  0.00    +0.000 C 
BRANCH  14  15
ATOM     15  C   UNL     1      -8.239  -2.623 123.884  0.00  0.00    +0.000 C 
ATOM     16  C   UNL     1      -7.563  -1.892 122.716  0.00  0.00    +0.000 C 
ATOM     17  C   UNL     1      -7.326  -3.791 124.347  0.00  0.00    +0.000 C 
ATOM     18  C   UNL     1      -9.562  -3.239 123.404  0.00  0.00    +0.000 C 
ENDBRANCH  14  15
ENDBRANCH   1  14
BRANCH   3  19
ATOM     19  C   UNL     1      -9.401   0.986 124.589  0.00  0.00    +0.000 C 
ATOM     20  N   UNL     1     -10.426   0.839 124.057  0.00  0.00    +0.000 NA
ENDBRANCH   3  19
TORSDOF 4
ENDMDL
MODEL 8
REMARK VINA RESULT:      -5.5      2.590      6.458
REMARK  Name = Pinacidil
REMARK  8 active torsions:
REMARK  status: ('A' for Active; 'I' for Inactive)
REMARK    1  A    between atoms: C_1  and  C_2
REMARK    2  A    between atoms: C_2  and  N_3
REMARK    3  A    between atoms: C_2  and  C_15
REMARK    4  A    between atoms: N_5  and  C_6
REMARK    5  A    between atoms: N_8  and  C_9
REMARK    6  A    between atoms: C_15  and  C_16
REMARK    7  A    between atoms: C_15  and  C_17
REMARK    8  A    between atoms: C_15  and  C_18
REMARK                            x       y       z     vdW  Elec       q    Type
REMARK                         _______ _______ _______ _____ _____    ______ ____
ROOT
ATOM      1  N   UNL     1      -8.249   6.660 131.193  0.00  0.00    +0.000 N 
ATOM      2  C   UNL     1      -9.204   6.440 130.225  0.00  0.00    +0.000 C 
ATOM      3  N   UNL     1      -9.548   5.161 129.871  0.00  0.00    +0.000 N 
ATOM      4  N   UNL     1      -9.752   7.510 129.686  0.00  0.00    +0.000 NA
ATOM      5  H   UNL     1      -8.030   7.640 131.363  0.00  0.00    +0.000 HD
ATOM      6  H   UNL     1     -10.268   5.068 129.181  0.00  0.00    +0.000 HD
ENDROOT
BRANCH   4   7
ATOM      7  C   UNL     1     -10.814   7.424 128.747  0.00  0.00    +0.000 A 
ATOM      8  C   UNL     1     -10.586   7.385 127.368  0.00  0.00    +0.000 A 
ATOM      9  C   UNL     1     -11.657   7.313 126.494  0.00  0.00    +0.000 A 
ATOM     10  N   UNL     1     -12.936   7.221 126.896  0.00  0.00    +0.000 NA
ATOM     11  C   UNL     1     -13.146   7.195 128.230  0.00  0.00    +0.000 A 
ATOM     12  C   UNL     1     -12.135   7.300 129.180  0.00  0.00    +0.000 A 
ENDBRANCH   4   7
BRANCH   1  14
ATOM     13  C   UNL     1      -8.215   5.819 133.493  0.00  0.00    +0.000 C 
ATOM     14  C   UNL     1      -7.627   5.672 132.071  0.00  0.00    +0.000 C 
BRANCH  14  15
ATOM     15  C   UNL     1      -6.074   5.723 132.142  0.00  0.00    +0.000 C 
ATOM     16  C   UNL     1      -5.604   5.919 133.590  0.00  0.00    +0.000 C 
ATOM     17  C   UNL     1      -5.514   4.378 131.605  0.00  0.00    +0.000 C 
ATOM     18  C   UNL     1      -5.498   6.843 131.262  0.00  0.00    +0.000 C 
ENDBRANCH  14  15
ENDBRANCH   1  14
BRANCH   3  19
ATOM     19  C   UNL     1      -9.021   3.909 130.312  0.00  0.00    +0.000 C 
ATOM     20  N   UNL     1      -8.684   2.869 130.711  0.00  0.00    +0.000 NA
ENDBRANCH   3  19
TORSDOF 4
ENDMDL
MODEL 9
REMARK VINA RESULT:      -5.3      8.369     10.677
REMARK  Name = Pinacidil
REMARK  8 active torsions:
REMARK  status: ('A' for Active; 'I' for Inactive)
REMARK    1  A    between atoms: C_1  and  C_2
REMARK    2  A    between atoms: C_2  and  N_3
REMARK    3  A    between atoms: C_2  and  C_15
REMARK    4  A    between atoms: N_5  and  C_6
REMARK    5  A    between atoms: N_8  and  C_9
REMARK    6  A    between atoms: C_15  and  C_16
REMARK    7  A    between atoms: C_15  and  C_17
REMARK    8  A    between atoms: C_15  and  C_18
REMARK                            x       y       z     vdW  Elec       q    Type
REMARK                         _______ _______ _______ _____ _____    ______ ____
ROOT
ATOM      1  N   UNL     1      -5.244  -2.290 127.875  0.00  0.00    +0.000 N 
ATOM      2  C   UNL     1      -6.414  -2.292 127.146  0.00  0.00    +0.000 C 
ATOM      3  N   UNL     1      -7.626  -2.300 127.785  0.00  0.00    +0.000 N 
ATOM      4  N   UNL     1      -6.289  -2.277 125.835  0.00  0.00    +0.000 NA
ATOM      5  H   UNL     1      -4.393  -2.323 127.317  0.00  0.00    +0.000 HD
ATOM      6  H   UNL     1      -8.439  -2.274 127.200  0.00  0.00    +0.000 HD
ENDROOT
BRANCH   4   7
ATOM      7  C   UNL     1      -7.411  -2.182 124.969  0.00  0.00    +0.000 A 
ATOM      8  C   UNL     1      -7.854  -0.957 124.459  0.00  0.00    +0.000 A 
ATOM      9  C   UNL     1      -8.960  -0.917 123.628  0.00  0.00    +0.000 A 
ATOM     10  N   UNL     1      -9.623  -2.013 123.222  0.00  0.00    +0.000 NA
ATOM     11  C   UNL     1      -9.151  -3.199 123.668  0.00  0.00    +0.000 A 
ATOM     12  C   UNL     1      -8.071  -3.331 124.534  0.00  0.00    +0.000 A 
ENDBRANCH   4   7
BRANCH   1  14
ATOM     13  C   UNL     1      -4.465  -0.736 129.599  0.00  0.00    +0.000 C 
ATOM     14  C   UNL     1      -5.094  -2.119 129.317  0.00  0.00    +0.000 C 
BRANCH  14  15
ATOM     15  C   UNL     1      -4.271  -3.223 130.041  0.00  0.00    +0.000 C 
ATOM     16  C   UNL     1      -3.101  -3.689 129.163  0.00  0.00    +0.000 C 
ATOM     17  C   UNL     1      -3.710  -2.630 131.361  0.00  0.00    +0.000 C 
ATOM     18  C   UNL     1      -5.142  -4.432 130.415  0.00  0.00    +0.000 C 
ENDBRANCH  14  15
ENDBRANCH   1  14
BRANCH   3  19
ATOM     19  C   UNL     1      -7.934  -2.370 129.178  0.00  0.00    +0.000 C 
ATOM     20  N   UNL     1      -8.222  -2.331 130.305  0.00  0.00    +0.000 NA
ENDBRANCH   3  19
TORSDOF 4
ENDMDL
