MODEL 1
REMARK VINA RESULT:      -7.4      0.000      0.000
REMARK  Name = Pinaverium
REMARK  14 active torsions:
REMARK  status: ('A' for Active; 'I' for Inactive)
REMARK    1  A    between atoms: C_1  and  O_2
REMARK    2  A    between atoms: O_2  and  C_3
REMARK    3  A    between atoms: C_4  and  O_5
REMARK    4  A    between atoms: O_5  and  C_6
REMARK    5  A    between atoms: C_8  and  C_9
REMARK    6  A    between atoms: C_9  and  N_10
REMARK    7  A    between atoms: N_10  and  C_11
REMARK    8  A    between atoms: C_11  and  C_12
REMARK    9  A    between atoms: C_12  and  O_13
REMARK   10  A    between atoms: O_13  and  C_14
REMARK   11  A    between atoms: C_14  and  C_15
REMARK   12  A    between atoms: C_15  and  C_16
REMARK   13  A    between atoms: C_22  and  C_23
REMARK   14  A    between atoms: C_22  and  C_24
REMARK                            x       y       z     vdW  Elec       q    Type
REMARK                         _______ _______ _______ _____ _____    ______ ____
ROOT
ATOM      1  N   UNL     1      -7.981   2.109 130.480  0.00  0.00    +0.000 N 
ATOM      2  C   UNL     1      -8.728   0.754 130.701  0.00  0.00    +0.000 C 
ATOM      3  C   UNL     1      -8.786   0.293 132.173  0.00  0.00    +0.000 C 
ATOM      4  O   UNL     1      -7.606   0.496 132.940  0.00  0.00    +0.000 OA
ATOM      5  C   UNL     1      -7.011   1.785 132.880  0.00  0.00    +0.000 C 
ATOM      6  C   UNL     1      -6.800   2.365 131.467  0.00  0.00    +0.000 C 
ENDROOT
BRANCH   1   7
ATOM      7  C   UNL     1      -7.423   2.141 129.056  0.00  0.00    +0.000 C 
BRANCH   7  11
ATOM      8  C   UNL     1      -8.595  -0.796 126.094  0.00  0.00    +0.000 A 
ATOM      9  C   UNL     1      -9.174   0.462 126.165  0.00  0.00    +0.000 A 
ATOM     10  C   UNL     1      -8.745   1.365 127.129  0.00  0.00    +0.000 A 
ATOM     11  C   UNL     1      -7.720   1.023 128.072  0.00  0.00    +0.000 A 
ATOM     12  C   UNL     1      -7.177  -0.287 127.953  0.00  0.00    +0.000 A 
ATOM     13 BR   UNL     1      -5.789  -1.258 128.813  0.00  0.00    +0.000 Br
ATOM     14  C   UNL     1      -7.638  -1.168 127.015  0.00  0.00    +0.000 A 
BRANCH   8  16
ATOM     15  C   UNL     1      -9.414  -2.919 125.884  0.00  0.00    +0.000 C 
ATOM     16  O   UNL     1      -8.889  -1.781 125.213  0.00  0.00    +0.000 OA
ENDBRANCH   8  16
BRANCH   9  17
ATOM     17  O   UNL     1     -10.173   0.650 125.255  0.00  0.00    +0.000 OA
ATOM     18  C   UNL     1      -9.965   1.523 124.171  0.00  0.00    +0.000 C 
ENDBRANCH   9  17
ENDBRANCH   7  11
ENDBRANCH   1   7
BRANCH   1  19
ATOM     19  C   UNL     1      -9.005   3.291 130.547  0.00  0.00    +0.000 C 
BRANCH  19  20
ATOM     20  C   UNL     1      -8.279   4.600 130.587  0.00  0.00    +0.000 C 
BRANCH  20  21
ATOM     21  O   UNL     1      -8.392   5.364 131.784  0.00  0.00    +0.000 OA
BRANCH  21  22
ATOM     22  C   UNL     1      -9.785   5.251 132.075  0.00  0.00    +0.000 C 
BRANCH  22  23
ATOM     23  C   UNL     1     -10.711   6.427 131.874  0.00  0.00    +0.000 C 
BRANCH  23  24
ATOM     24  C   UNL     1     -11.798   6.163 130.748  0.00  0.00    +0.000 C 
ATOM     25  C   UNL     1     -12.965   7.142 130.820  0.00  0.00    +0.000 C 
ATOM     26  C   UNL     1     -12.529   8.530 130.235  0.00  0.00    +0.000 C 
ATOM     27  C   UNL     1     -11.641   8.355 128.962  0.00  0.00    +0.000 C 
ATOM     28  C   UNL     1     -10.387   7.412 129.021  0.00  0.00    +0.000 C 
ATOM     29  C   UNL     1     -11.406   6.276 129.226  0.00  0.00    +0.000 C 
ATOM     30  C   UNL     1     -12.338   7.300 128.036  0.00  0.00    +0.000 C 
ATOM     31  C   UNL     1     -13.733   8.011 127.853  0.00  0.00    +0.000 C 
ATOM     32  C   UNL     1     -11.822   7.236 126.577  0.00  0.00    +0.000 C 
ENDBRANCH  23  24
ENDBRANCH  22  23
ENDBRANCH  21  22
ENDBRANCH  20  21
ENDBRANCH  19  20
ENDBRANCH   1  19
TORSDOF 10
ENDMDL
MODEL 2
REMARK VINA RESULT:      -7.2      3.662      7.805
REMARK  Name = Pinaverium
REMARK  14 active torsions:
REMARK  status: ('A' for Active; 'I' for Inactive)
REMARK    1  A    between atoms: C_1  and  O_2
REMARK    2  A    between atoms: O_2  and  C_3
REMARK    3  A    between atoms: C_4  and  O_5
REMARK    4  A    between atoms: O_5  and  C_6
REMARK    5  A    between atoms: C_8  and  C_9
REMARK    6  A    between atoms: C_9  and  N_10
REMARK    7  A    between atoms: N_10  and  C_11
REMARK    8  A    between atoms: C_11  and  C_12
REMARK    9  A    between atoms: C_12  and  O_13
REMARK   10  A    between atoms: O_13  and  C_14
REMARK   11  A    between atoms: C_14  and  C_15
REMARK   12  A    between atoms: C_15  and  C_16
REMARK   13  A    between atoms: C_22  and  C_23
REMARK   14  A    between atoms: C_22  and  C_24
REMARK                            x       y       z     vdW  Elec       q    Type
REMARK                         _______ _______ _______ _____ _____    ______ ____
ROOT
ATOM      1  N   UNL     1      -7.056   2.234 128.981  0.00  0.00    +0.000 N 
ATOM      2  C   UNL     1      -6.482   3.683 129.099  0.00  0.00    +0.000 C 
ATOM      3  C   UNL     1      -7.346   4.642 129.946  0.00  0.00    +0.000 C 
ATOM      4  O   UNL     1      -8.754   4.531 129.775  0.00  0.00    +0.000 OA
ATOM      5  C   UNL     1      -9.311   3.226 129.837  0.00  0.00    +0.000 C 
ATOM      6  C   UNL     1      -8.614   2.153 128.976  0.00  0.00    +0.000 C 
ENDROOT
BRANCH   1   7
ATOM      7  C   UNL     1      -6.546   1.604 127.684  0.00  0.00    +0.000 C 
BRANCH   7  11
ATOM      8  C   UNL     1      -6.109   3.942 124.063  0.00  0.00    +0.000 A 
ATOM      9  C   UNL     1      -7.311   3.356 124.430  0.00  0.00    +0.000 A 
ATOM     10  C   UNL     1      -7.391   2.629 125.611  0.00  0.00    +0.000 A 
ATOM     11  C   UNL     1      -6.249   2.454 126.462  0.00  0.00    +0.000 A 
ATOM     12  C   UNL     1      -5.045   3.071 126.021  0.00  0.00    +0.000 A 
ATOM     13 BR   UNL     1      -3.291   3.268 126.724  0.00  0.00    +0.000 Br
ATOM     14  C   UNL     1      -4.985   3.754 124.839  0.00  0.00    +0.000 A 
BRANCH   8  16
ATOM     15  C   UNL     1      -5.461   3.862 121.873  0.00  0.00    +0.000 C 
ATOM     16  O   UNL     1      -5.869   4.686 122.958  0.00  0.00    +0.000 OA
ENDBRANCH   8  16
BRANCH   9  17
ATOM     17  O   UNL     1      -8.307   3.544 123.517  0.00  0.00    +0.000 OA
ATOM     18  C   UNL     1      -8.955   2.425 122.961  0.00  0.00    +0.000 C 
ENDBRANCH   9  17
ENDBRANCH   7  11
ENDBRANCH   1   7
BRANCH   1  19
ATOM     19  C   UNL     1      -6.474   1.343 130.128  0.00  0.00    +0.000 C 
BRANCH  19  20
ATOM     20  C   UNL     1      -7.162   0.013 130.148  0.00  0.00    +0.000 C 
BRANCH  20  21
ATOM     21  O   UNL     1      -6.343  -1.140 129.983  0.00  0.00    +0.000 OA
BRANCH  21  22
ATOM     22  C   UNL     1      -7.164  -1.971 129.164  0.00  0.00    +0.000 C 
BRANCH  22  23
ATOM     23  C   UNL     1      -6.647  -2.509 127.850  0.00  0.00    +0.000 C 
BRANCH  23  24
ATOM     24  C   UNL     1      -7.215  -1.714 126.599  0.00  0.00    +0.000 C 
ATOM     25  C   UNL     1      -6.164  -1.498 125.516  0.00  0.00    +0.000 C 
ATOM     26  C   UNL     1      -5.945  -2.829 124.717  0.00  0.00    +0.000 C 
ATOM     27  C   UNL     1      -7.300  -3.561 124.455  0.00  0.00    +0.000 C 
ATOM     28  C   UNL     1      -8.268  -3.845 125.658  0.00  0.00    +0.000 C 
ATOM     29  C   UNL     1      -8.400  -2.314 125.750  0.00  0.00    +0.000 C 
ATOM     30  C   UNL     1      -8.325  -2.496 123.935  0.00  0.00    +0.000 C 
ATOM     31  C   UNL     1      -7.529  -1.975 122.679  0.00  0.00    +0.000 C 
ATOM     32  C   UNL     1      -9.612  -3.059 123.284  0.00  0.00    +0.000 C 
ENDBRANCH  23  24
ENDBRANCH  22  23
ENDBRANCH  21  22
ENDBRANCH  20  21
ENDBRANCH  19  20
ENDBRANCH   1  19
TORSDOF 10
ENDMDL
MODEL 3
REMARK VINA RESULT:      -7.0      2.096      3.276
REMARK  Name = Pinaverium
REMARK  14 active torsions:
REMARK  status: ('A' for Active; 'I' for Inactive)
REMARK    1  A    between atoms: C_1  and  O_2
REMARK    2  A    between atoms: O_2  and  C_3
REMARK    3  A    between atoms: C_4  and  O_5
REMARK    4  A    between atoms: O_5  and  C_6
REMARK    5  A    between atoms: C_8  and  C_9
REMARK    6  A    between atoms: C_9  and  N_10
REMARK    7  A    between atoms: N_10  and  C_11
REMARK    8  A    between atoms: C_11  and  C_12
REMARK    9  A    between atoms: C_12  and  O_13
REMARK   10  A    between atoms: O_13  and  C_14
REMARK   11  A    between atoms: C_14  and  C_15
REMARK   12  A    between atoms: C_15  and  C_16
REMARK   13  A    between atoms: C_22  and  C_23
REMARK   14  A    between atoms: C_22  and  C_24
REMARK                            x       y       z     vdW  Elec       q    Type
REMARK                         _______ _______ _______ _____ _____    ______ ____
ROOT
ATOM      1  N   UNL     1      -6.507   2.822 127.906  0.00  0.00    +0.000 N 
ATOM      2  C   UNL     1      -5.383   1.846 127.431  0.00  0.00    +0.000 C 
ATOM      3  C   UNL     1      -4.297   2.506 126.553  0.00  0.00    +0.000 C 
ATOM      4  O   UNL     1      -4.757   3.454 125.598  0.00  0.00    +0.000 OA
ATOM      5  C   UNL     1      -5.652   4.455 126.061  0.00  0.00    +0.000 C 
ATOM      6  C   UNL     1      -6.852   3.955 126.891  0.00  0.00    +0.000 C 
ENDROOT
BRANCH   1   7
ATOM      7  C   UNL     1      -7.782   2.018 128.168  0.00  0.00    +0.000 C 
BRANCH   7  11
ATOM      8  C   UNL     1      -9.051  -1.135 125.481  0.00  0.00    +0.000 A 
ATOM      9  C   UNL     1      -9.372   0.198 125.270  0.00  0.00    +0.000 A 
ATOM     10  C   UNL     1      -8.924   1.165 126.161  0.00  0.00    +0.000 A 
ATOM     11  C   UNL     1      -8.142   0.817 127.312  0.00  0.00    +0.000 A 
ATOM     12  C   UNL     1      -7.858  -0.567 127.477  0.00  0.00    +0.000 A 
ATOM     13 BR   UNL     1      -6.838  -1.602 128.701  0.00  0.00    +0.000 Br
ATOM     14  C   UNL     1      -8.338  -1.503 126.603  0.00  0.00    +0.000 A 
BRANCH   8  16
ATOM     15  C   UNL     1      -8.302  -2.609 123.904  0.00  0.00    +0.000 C 
ATOM     16  O   UNL     1      -9.398  -2.189 124.707  0.00  0.00    +0.000 OA
ENDBRANCH   8  16
BRANCH   9  17
ATOM     17  O   UNL     1     -10.164   0.397 124.177  0.00  0.00    +0.000 OA
ATOM     18  C   UNL     1      -9.748   1.296 123.177  0.00  0.00    +0.000 C 
ENDBRANCH   9  17
ENDBRANCH   7  11
ENDBRANCH   1   7
BRANCH   1  19
ATOM     19  C   UNL     1      -6.118   3.439 129.291  0.00  0.00    +0.000 C 
BRANCH  19  20
ATOM     20  C   UNL     1      -6.193   2.393 130.360  0.00  0.00    +0.000 C 
BRANCH  20  21
ATOM     21  O   UNL     1      -6.954   2.712 131.521  0.00  0.00    +0.000 OA
BRANCH  21  22
ATOM     22  C   UNL     1      -7.426   4.023 131.214  0.00  0.00    +0.000 C 
BRANCH  22  23
ATOM     23  C   UNL     1      -8.861   4.408 131.486  0.00  0.00    +0.000 C 
BRANCH  23  24
ATOM     24  C   UNL     1      -9.696   4.634 130.155  0.00  0.00    +0.000 C 
ATOM     25  C   UNL     1     -11.201   4.630 130.401  0.00  0.00    +0.000 C 
ATOM     26  C   UNL     1     -11.637   5.993 131.042  0.00  0.00    +0.000 C 
ATOM     27  C   UNL     1     -10.884   7.194 130.385  0.00  0.00    +0.000 C 
ATOM     28  C   UNL     1      -9.318   7.159 130.284  0.00  0.00    +0.000 C 
ATOM     29  C   UNL     1      -9.532   5.967 129.332  0.00  0.00    +0.000 C 
ATOM     30  C   UNL     1     -10.948   7.005 128.831  0.00  0.00    +0.000 C 
ATOM     31  C   UNL     1     -12.512   6.946 128.650  0.00  0.00    +0.000 C 
ATOM     32  C   UNL     1     -10.578   8.247 127.983  0.00  0.00    +0.000 C 
ENDBRANCH  23  24
ENDBRANCH  22  23
ENDBRANCH  21  22
ENDBRANCH  20  21
ENDBRANCH  19  20
ENDBRANCH   1  19
TORSDOF 10
ENDMDL
MODEL 4
REMARK VINA RESULT:      -7.0      4.449      7.865
REMARK  Name = Pinaverium
REMARK  14 active torsions:
REMARK  status: ('A' for Active; 'I' for Inactive)
REMARK    1  A    between atoms: C_1  and  O_2
REMARK    2  A    between atoms: O_2  and  C_3
REMARK    3  A    between atoms: C_4  and  O_5
REMARK    4  A    between atoms: O_5  and  C_6
REMARK    5  A    between atoms: C_8  and  C_9
REMARK    6  A    between atoms: C_9  and  N_10
REMARK    7  A    between atoms: N_10  and  C_11
REMARK    8  A    between atoms: C_11  and  C_12
REMARK    9  A    between atoms: C_12  and  O_13
REMARK   10  A    between atoms: O_13  and  C_14
REMARK   11  A    between atoms: C_14  and  C_15
REMARK   12  A    between atoms: C_15  and  C_16
REMARK   13  A    between atoms: C_22  and  C_23
REMARK   14  A    between atoms: C_22  and  C_24
REMARK                            x       y       z     vdW  Elec       q    Type
REMARK                         _______ _______ _______ _____ _____    ______ ____
ROOT
ATOM      1  N   UNL     1      -6.533   3.308 126.920  0.00  0.00    +0.000 N 
ATOM      2  C   UNL     1      -6.078   3.956 128.266  0.00  0.00    +0.000 C 
ATOM      3  C   UNL     1      -4.569   4.276 128.340  0.00  0.00    +0.000 C 
ATOM      4  O   UNL     1      -3.696   3.303 127.780  0.00  0.00    +0.000 OA
ATOM      5  C   UNL     1      -4.008   2.830 126.477  0.00  0.00    +0.000 C 
ATOM      6  C   UNL     1      -5.467   2.385 126.253  0.00  0.00    +0.000 C 
ENDROOT
BRANCH   1   7
ATOM      7  C   UNL     1      -7.790   2.473 127.172  0.00  0.00    +0.000 C 
BRANCH   7  11
ATOM      8  C   UNL     1      -7.847  -0.705 130.116  0.00  0.00    +0.000 A 
ATOM      9  C   UNL     1      -7.442  -0.911 128.805  0.00  0.00    +0.000 A 
ATOM     10  C   UNL     1      -7.433   0.152 127.912  0.00  0.00    +0.000 A 
ATOM     11  C   UNL     1      -7.849   1.467 128.307  0.00  0.00    +0.000 A 
ATOM     12  C   UNL     1      -8.263   1.607 129.661  0.00  0.00    +0.000 A 
ATOM     13 BR   UNL     1      -8.816   3.053 130.763  0.00  0.00    +0.000 Br
ATOM     14  C   UNL     1      -8.293   0.538 130.513  0.00  0.00    +0.000 A 
BRANCH   8  16
ATOM     15  C   UNL     1      -7.883  -0.998 132.382  0.00  0.00    +0.000 C 
ATOM     16  O   UNL     1      -7.902  -1.626 131.107  0.00  0.00    +0.000 OA
ENDBRANCH   8  16
BRANCH   9  17
ATOM     17  O   UNL     1      -7.125  -2.210 128.535  0.00  0.00    +0.000 OA
ATOM     18  C   UNL     1      -8.109  -3.065 128.003  0.00  0.00    +0.000 C 
ENDBRANCH   9  17
ENDBRANCH   7  11
ENDBRANCH   1   7
BRANCH   1  19
ATOM     19  C   UNL     1      -6.977   4.428 125.920  0.00  0.00    +0.000 C 
BRANCH  19  20
ATOM     20  C   UNL     1      -7.155   3.854 124.549  0.00  0.00    +0.000 C 
BRANCH  20  21
ATOM     21  O   UNL     1      -8.487   3.554 124.143  0.00  0.00    +0.000 OA
BRANCH  21  22
ATOM     22  C   UNL     1      -8.269   2.660 123.053  0.00  0.00    +0.000 C 
BRANCH  22  23
ATOM     23  C   UNL     1      -7.284   1.521 123.176  0.00  0.00    +0.000 C 
BRANCH  23  24
ATOM     24  C   UNL     1      -7.761   0.410 124.205  0.00  0.00    +0.000 C 
ATOM     25  C   UNL     1      -9.193  -0.048 123.949  0.00  0.00    +0.000 C 
ATOM     26  C   UNL     1      -9.227  -1.013 122.714  0.00  0.00    +0.000 C 
ATOM     27  C   UNL     1      -8.009  -1.990 122.725  0.00  0.00    +0.000 C 
ATOM     28  C   UNL     1      -6.557  -1.411 122.875  0.00  0.00    +0.000 C 
ATOM     29  C   UNL     1      -7.013  -0.974 124.280  0.00  0.00    +0.000 C 
ATOM     30  C   UNL     1      -7.880  -2.577 124.172  0.00  0.00    +0.000 C 
ATOM     31  C   UNL     1      -9.316  -3.210 124.314  0.00  0.00    +0.000 C 
ATOM     32  C   UNL     1      -6.970  -3.821 124.319  0.00  0.00    +0.000 C 
ENDBRANCH  23  24
ENDBRANCH  22  23
ENDBRANCH  21  22
ENDBRANCH  20  21
ENDBRANCH  19  20
ENDBRANCH   1  19
TORSDOF 10
ENDMDL
MODEL 5
REMARK VINA RESULT:      -7.0      2.990      7.883
REMARK  Name = Pinaverium
REMARK  14 active torsions:
REMARK  status: ('A' for Active; 'I' for Inactive)
REMARK    1  A    between atoms: C_1  and  O_2
REMARK    2  A    between atoms: O_2  and  C_3
REMARK    3  A    between atoms: C_4  and  O_5
REMARK    4  A    between atoms: O_5  and  C_6
REMARK    5  A    between atoms: C_8  and  C_9
REMARK    6  A    between atoms: C_9  and  N_10
REMARK    7  A    between atoms: N_10  and  C_11
REMARK    8  A    between atoms: C_11  and  C_12
REMARK    9  A    between atoms: C_12  and  O_13
REMARK   10  A    between atoms: O_13  and  C_14
REMARK   11  A    between atoms: C_14  and  C_15
REMARK   12  A    between atoms: C_15  and  C_16
REMARK   13  A    between atoms: C_22  and  C_23
REMARK   14  A    between atoms: C_22  and  C_24
REMARK                            x       y       z     vdW  Elec       q    Type
REMARK                         _______ _______ _______ _____ _____    ______ ____
ROOT
ATOM      1  N   UNL     1      -6.982  -0.463 130.390  0.00  0.00    +0.000 N 
ATOM      2  C   UNL     1      -5.844   0.531 130.785  0.00  0.00    +0.000 C 
ATOM      3  C   UNL     1      -5.275   0.316 132.205  0.00  0.00    +0.000 C 
ATOM      4  O   UNL     1      -6.225   0.007 133.218  0.00  0.00    +0.000 OA
ATOM      5  C   UNL     1      -7.163  -1.020 132.931  0.00  0.00    +0.000 C 
ATOM      6  C   UNL     1      -7.891  -0.911 131.576  0.00  0.00    +0.000 C 
ENDROOT
BRANCH   1   7
ATOM      7  C   UNL     1      -7.873   0.198 129.336  0.00  0.00    +0.000 C 
BRANCH   7  11
ATOM      8  C   UNL     1      -8.554   4.472 129.146  0.00  0.00    +0.000 A 
ATOM      9  C   UNL     1      -7.883   3.780 128.148  0.00  0.00    +0.000 A 
ATOM     10  C   UNL     1      -7.708   2.407 128.261  0.00  0.00    +0.000 A 
ATOM     11  C   UNL     1      -8.195   1.680 129.398  0.00  0.00    +0.000 A 
ATOM     12  C   UNL     1      -8.862   2.451 130.390  0.00  0.00    +0.000 A 
ATOM     13 BR   UNL     1      -9.771   2.070 132.014  0.00  0.00    +0.000 Br
ATOM     14  C   UNL     1      -8.994   3.807 130.271  0.00  0.00    +0.000 A 
BRANCH   8  16
ATOM     15  C   UNL     1      -9.205   6.202 130.489  0.00  0.00    +0.000 C 
ATOM     16  O   UNL     1      -8.816   5.800 129.182  0.00  0.00    +0.000 OA
ENDBRANCH   8  16
BRANCH   9  17
ATOM     17  O   UNL     1      -7.420   4.585 127.149  0.00  0.00    +0.000 OA
ATOM     18  C   UNL     1      -7.809   4.330 125.820  0.00  0.00    +0.000 C 
ENDBRANCH   9  17
ENDBRANCH   7  11
ENDBRANCH   1   7
BRANCH   1  19
ATOM     19  C   UNL     1      -6.365  -1.714 129.681  0.00  0.00    +0.000 C 
BRANCH  19  20
ATOM     20  C   UNL     1      -7.148  -2.942 130.031  0.00  0.00    +0.000 C 
BRANCH  20  21
ATOM     21  O   UNL     1      -7.366  -3.887 128.987  0.00  0.00    +0.000 OA
BRANCH  21  22
ATOM     22  C   UNL     1      -8.699  -3.575 128.583  0.00  0.00    +0.000 C 
BRANCH  22  23
ATOM     23  C   UNL     1      -9.083  -3.588 127.122  0.00  0.00    +0.000 C 
BRANCH  23  24
ATOM     24  C   UNL     1      -7.863  -3.242 126.167  0.00  0.00    +0.000 C 
ATOM     25  C   UNL     1      -7.984  -3.904 124.798  0.00  0.00    +0.000 C 
ATOM     26  C   UNL     1      -9.035  -3.131 123.928  0.00  0.00    +0.000 C 
ATOM     27  C   UNL     1      -8.901  -1.587 124.118  0.00  0.00    +0.000 C 
ATOM     28  C   UNL     1      -8.904  -0.986 125.569  0.00  0.00    +0.000 C 
ATOM     29  C   UNL     1      -7.579  -1.749 125.752  0.00  0.00    +0.000 C 
ATOM     30  C   UNL     1      -7.380  -1.223 124.015  0.00  0.00    +0.000 C 
ATOM     31  C   UNL     1      -7.080  -1.804 122.581  0.00  0.00    +0.000 C 
ATOM     32  C   UNL     1      -7.056   0.279 123.823  0.00  0.00    +0.000 C 
ENDBRANCH  23  24
ENDBRANCH  22  23
ENDBRANCH  21  22
ENDBRANCH  20  21
ENDBRANCH  19  20
ENDBRANCH   1  19
TORSDOF 10
ENDMDL
MODEL 6
REMARK VINA RESULT:      -7.0      3.551      7.891
REMARK  Name = Pinaverium
REMARK  14 active torsions:
REMARK  status: ('A' for Active; 'I' for Inactive)
REMARK    1  A    between atoms: C_1  and  O_2
REMARK    2  A    between atoms: O_2  and  C_3
REMARK    3  A    between atoms: C_4  and  O_5
REMARK    4  A    between atoms: O_5  and  C_6
REMARK    5  A    between atoms: C_8  and  C_9
REMARK    6  A    between atoms: C_9  and  N_10
REMARK    7  A    between atoms: N_10  and  C_11
REMARK    8  A    between atoms: C_11  and  C_12
REMARK    9  A    between atoms: C_12  and  O_13
REMARK   10  A    between atoms: O_13  and  C_14
REMARK   11  A    between atoms: C_14  and  C_15
REMARK   12  A    between atoms: C_15  and  C_16
REMARK   13  A    between atoms: C_22  and  C_23
REMARK   14  A    between atoms: C_22  and  C_24
REMARK                            x       y       z     vdW  Elec       q    Type
REMARK                         _______ _______ _______ _____ _____    ______ ____
ROOT
ATOM      1  N   UNL     1      -7.423   1.783 129.706  0.00  0.00    +0.000 N 
ATOM      2  C   UNL     1      -6.447   2.698 130.514  0.00  0.00    +0.000 C 
ATOM      3  C   UNL     1      -7.137   3.859 131.262  0.00  0.00    +0.000 C 
ATOM      4  O   UNL     1      -8.187   4.517 130.564  0.00  0.00    +0.000 OA
ATOM      5  C   UNL     1      -9.179   3.694 129.967  0.00  0.00    +0.000 C 
ATOM      6  C   UNL     1      -8.658   2.524 129.107  0.00  0.00    +0.000 C 
ENDROOT
BRANCH   1   7
ATOM      7  C   UNL     1      -6.654   1.136 128.553  0.00  0.00    +0.000 C 
BRANCH   7  11
ATOM      8  C   UNL     1      -5.419   3.483 125.127  0.00  0.00    +0.000 A 
ATOM      9  C   UNL     1      -4.626   3.340 126.256  0.00  0.00    +0.000 A 
ATOM     10  C   UNL     1      -5.073   2.562 127.317  0.00  0.00    +0.000 A 
ATOM     11  C   UNL     1      -6.349   1.909 127.282  0.00  0.00    +0.000 A 
ATOM     12  C   UNL     1      -7.117   2.107 126.101  0.00  0.00    +0.000 A 
ATOM     13 BR   UNL     1      -8.779   1.461 125.444  0.00  0.00    +0.000 Br
ATOM     14  C   UNL     1      -6.669   2.903 125.084  0.00  0.00    +0.000 A 
BRANCH   8  16
ATOM     15  C   UNL     1      -5.972   3.808 122.934  0.00  0.00    +0.000 C 
ATOM     16  O   UNL     1      -5.127   4.191 124.011  0.00  0.00    +0.000 OA
ENDBRANCH   8  16
BRANCH   9  17
ATOM     17  O   UNL     1      -3.463   4.051 126.196  0.00  0.00    +0.000 OA
ATOM     18  C   UNL     1      -2.480   3.853 127.183  0.00  0.00    +0.000 C 
ENDBRANCH   9  17
ENDBRANCH   7  11
ENDBRANCH   1   7
BRANCH   1  19
ATOM     19  C   UNL     1      -7.894   0.592 130.606  0.00  0.00    +0.000 C 
BRANCH  19  20
ATOM     20  C   UNL     1      -7.291  -0.690 130.121  0.00  0.00    +0.000 C 
BRANCH  20  21
ATOM     21  O   UNL     1      -8.170  -1.801 129.975  0.00  0.00    +0.000 OA
BRANCH  21  22
ATOM     22  C   UNL     1      -7.409  -2.671 129.137  0.00  0.00    +0.000 C 
BRANCH  22  23
ATOM     23  C   UNL     1      -7.968  -3.156 127.821  0.00  0.00    +0.000 C 
BRANCH  23  24
ATOM     24  C   UNL     1      -7.977  -2.025 126.707  0.00  0.00    +0.000 C 
ATOM     25  C   UNL     1      -6.573  -1.627 126.266  0.00  0.00    +0.000 C 
ATOM     26  C   UNL     1      -5.987  -2.724 125.311  0.00  0.00    +0.000 C 
ATOM     27  C   UNL     1      -7.074  -3.251 124.321  0.00  0.00    +0.000 C 
ATOM     28  C   UNL     1      -8.451  -3.752 124.883  0.00  0.00    +0.000 C 
ATOM     29  C   UNL     1      -8.664  -2.289 125.314  0.00  0.00    +0.000 C 
ATOM     30  C   UNL     1      -7.817  -2.008 123.722  0.00  0.00    +0.000 C 
ATOM     31  C   UNL     1      -6.581  -1.252 123.103  0.00  0.00    +0.000 C 
ATOM     32  C   UNL     1      -8.684  -2.279 122.467  0.00  0.00    +0.000 C 
ENDBRANCH  23  24
ENDBRANCH  22  23
ENDBRANCH  21  22
ENDBRANCH  20  21
ENDBRANCH  19  20
ENDBRANCH   1  19
TORSDOF 10
ENDMDL
MODEL 7
REMARK VINA RESULT:      -7.0      2.567      3.376
REMARK  Name = Pinaverium
REMARK  14 active torsions:
REMARK  status: ('A' for Active; 'I' for Inactive)
REMARK    1  A    between atoms: C_1  and  O_2
REMARK    2  A    between atoms: O_2  and  C_3
REMARK    3  A    between atoms: C_4  and  O_5
REMARK    4  A    between atoms: O_5  and  C_6
REMARK    5  A    between atoms: C_8  and  C_9
REMARK    6  A    between atoms: C_9  and  N_10
REMARK    7  A    between atoms: N_10  and  C_11
REMARK    8  A    between atoms: C_11  and  C_12
REMARK    9  A    between atoms: C_12  and  O_13
REMARK   10  A    between atoms: O_13  and  C_14
REMARK   11  A    between atoms: C_14  and  C_15
REMARK   12  A    between atoms: C_15  and  C_16
REMARK   13  A    between atoms: C_22  and  C_23
REMARK   14  A    between atoms: C_22  and  C_24
REMARK                            x       y       z     vdW  Elec       q    Type
REMARK                         _______ _______ _______ _____ _____    ______ ____
ROOT
ATOM      1  N   UNL     1      -6.133   3.799 129.900  0.00  0.00    +0.000 N 
ATOM      2  C   UNL     1      -5.541   3.276 131.248  0.00  0.00    +0.000 C 
ATOM      3  C   UNL     1      -4.906   4.372 132.132  0.00  0.00    +0.000 C 
ATOM      4  O   UNL     1      -4.147   5.363 131.450  0.00  0.00    +0.000 OA
ATOM      5  C   UNL     1      -4.750   5.970 130.316  0.00  0.00    +0.000 C 
ATOM      6  C   UNL     1      -5.364   5.007 129.281  0.00  0.00    +0.000 C 
ENDROOT
BRANCH   1   7
ATOM      7  C   UNL     1      -6.124   2.659 128.880  0.00  0.00    +0.000 C 
BRANCH   7  11
ATOM      8  C   UNL     1      -6.806   3.378 124.662  0.00  0.00    +0.000 A 
ATOM      9  C   UNL     1      -7.841   3.130 125.552  0.00  0.00    +0.000 A 
ATOM     10  C   UNL     1      -7.558   2.920 126.896  0.00  0.00    +0.000 A 
ATOM     11  C   UNL     1      -6.212   2.939 127.390  0.00  0.00    +0.000 A 
ATOM     12  C   UNL     1      -5.198   3.187 126.424  0.00  0.00    +0.000 A 
ATOM     13 BR   UNL     1      -3.312   3.414 126.470  0.00  0.00    +0.000 Br
ATOM     14  C   UNL     1      -5.499   3.359 125.101  0.00  0.00    +0.000 A 
BRANCH   8  16
ATOM     15  C   UNL     1      -6.592   2.445 122.588  0.00  0.00    +0.000 C 
ATOM     16  O   UNL     1      -6.913   3.612 123.333  0.00  0.00    +0.000 OA
ENDBRANCH   8  16
BRANCH   9  17
ATOM     17  O   UNL     1      -9.067   3.081 124.957  0.00  0.00    +0.000 OA
ATOM     18  C   UNL     1      -9.600   1.836 124.573  0.00  0.00    +0.000 C 
ENDBRANCH   9  17
ENDBRANCH   7  11
ENDBRANCH   1   7
BRANCH   1  19
ATOM     19  C   UNL     1      -7.643   4.164 130.095  0.00  0.00    +0.000 C 
BRANCH  19  20
ATOM     20  C   UNL     1      -8.210   3.405 131.254  0.00  0.00    +0.000 C 
BRANCH  20  21
ATOM     21  O   UNL     1      -9.491   3.812 131.727  0.00  0.00    +0.000 OA
BRANCH  21  22
ATOM     22  C   UNL     1      -9.247   5.164 132.113  0.00  0.00    +0.000 C 
BRANCH  22  23
ATOM     23  C   UNL     1     -10.271   6.240 131.838  0.00  0.00    +0.000 C 
BRANCH  23  24
ATOM     24  C   UNL     1     -11.163   5.923 130.565  0.00  0.00    +0.000 C 
ATOM     25  C   UNL     1     -12.553   6.545 130.654  0.00  0.00    +0.000 C 
ATOM     26  C   UNL     1     -12.465   8.082 130.353  0.00  0.00    +0.000 C 
ATOM     27  C   UNL     1     -11.475   8.374 129.182  0.00  0.00    +0.000 C 
ATOM     28  C   UNL     1     -10.020   7.785 129.237  0.00  0.00    +0.000 C 
ATOM     29  C   UNL     1     -10.708   6.411 129.137  0.00  0.00    +0.000 C 
ATOM     30  C   UNL     1     -11.794   7.368 128.024  0.00  0.00    +0.000 C 
ATOM     31  C   UNL     1     -13.312   7.725 127.794  0.00  0.00    +0.000 C 
ATOM     32  C   UNL     1     -11.176   7.707 126.645  0.00  0.00    +0.000 C 
ENDBRANCH  23  24
ENDBRANCH  22  23
ENDBRANCH  21  22
ENDBRANCH  20  21
ENDBRANCH  19  20
ENDBRANCH   1  19
TORSDOF 10
ENDMDL
MODEL 8
REMARK VINA RESULT:      -6.9      3.034      8.622
REMARK  Name = Pinaverium
REMARK  14 active torsions:
REMARK  status: ('A' for Active; 'I' for Inactive)
REMARK    1  A    between atoms: C_1  and  O_2
REMARK    2  A    between atoms: O_2  and  C_3
REMARK    3  A    between atoms: C_4  and  O_5
REMARK    4  A    between atoms: O_5  and  C_6
REMARK    5  A    between atoms: C_8  and  C_9
REMARK    6  A    between atoms: C_9  and  N_10
REMARK    7  A    between atoms: N_10  and  C_11
REMARK    8  A    between atoms: C_11  and  C_12
REMARK    9  A    between atoms: C_12  and  O_13
REMARK   10  A    between atoms: O_13  and  C_14
REMARK   11  A    between atoms: C_14  and  C_15
REMARK   12  A    between atoms: C_15  and  C_16
REMARK   13  A    between atoms: C_22  and  C_23
REMARK   14  A    between atoms: C_22  and  C_24
REMARK                            x       y       z     vdW  Elec       q    Type
REMARK                         _______ _______ _______ _____ _____    ______ ____
ROOT
ATOM      1  N   UNL     1      -6.753  -1.484 130.754  0.00  0.00    +0.000 N 
ATOM      2  C   UNL     1      -5.761  -0.806 129.756  0.00  0.00    +0.000 C 
ATOM      3  C   UNL     1      -4.270  -1.004 130.107  0.00  0.00    +0.000 C 
ATOM      4  O   UNL     1      -3.937  -0.917 131.487  0.00  0.00    +0.000 OA
ATOM      5  C   UNL     1      -4.732  -1.670 132.392  0.00  0.00    +0.000 C 
ATOM      6  C   UNL     1      -6.258  -1.521 132.233  0.00  0.00    +0.000 C 
ENDROOT
BRANCH   1   7
ATOM      7  C   UNL     1      -8.083  -0.730 130.719  0.00  0.00    +0.000 C 
BRANCH   7  11
ATOM      8  C   UNL     1      -8.205   3.600 130.623  0.00  0.00    +0.000 A 
ATOM      9  C   UNL     1      -8.072   2.884 131.804  0.00  0.00    +0.000 A 
ATOM     10  C   UNL     1      -8.026   1.497 131.768  0.00  0.00    +0.000 A 
ATOM     11  C   UNL     1      -8.127   0.776 130.532  0.00  0.00    +0.000 A 
ATOM     12  C   UNL     1      -8.274   1.568 129.359  0.00  0.00    +0.000 A 
ATOM     13 BR   UNL     1      -8.365   1.220 127.494  0.00  0.00    +0.000 Br
ATOM     14  C   UNL     1      -8.349   2.932 129.425  0.00  0.00    +0.000 A 
BRANCH   8  16
ATOM     15  C   UNL     1      -9.330   5.327 129.638  0.00  0.00    +0.000 C 
ATOM     16  O   UNL     1      -8.255   4.945 130.486  0.00  0.00    +0.000 OA
ENDBRANCH   8  16
BRANCH   9  17
ATOM     17  O   UNL     1      -8.042   3.675 132.915  0.00  0.00    +0.000 OA
ATOM     18  C   UNL     1      -9.170   3.729 133.756  0.00  0.00    +0.000 C 
ENDBRANCH   9  17
ENDBRANCH   7  11
ENDBRANCH   1   7
BRANCH   1  19
ATOM     19  C   UNL     1      -7.087  -2.932 130.261  0.00  0.00    +0.000 C 
BRANCH  19  20
ATOM     20  C   UNL     1      -7.834  -2.875 128.965  0.00  0.00    +0.000 C 
BRANCH  20  21
ATOM     21  O   UNL     1      -9.000  -3.686 128.855  0.00  0.00    +0.000 OA
BRANCH  21  22
ATOM     22  C   UNL     1      -9.116  -3.846 127.442  0.00  0.00    +0.000 C 
BRANCH  22  23
ATOM     23  C   UNL     1      -8.883  -2.677 126.514  0.00  0.00    +0.000 C 
BRANCH  23  24
ATOM     24  C   UNL     1      -8.382  -3.130 125.077  0.00  0.00    +0.000 C 
ATOM     25  C   UNL     1      -8.599  -2.056 124.016  0.00  0.00    +0.000 C 
ATOM     26  C   UNL     1      -7.513  -0.935 124.168  0.00  0.00    +0.000 C 
ATOM     27  C   UNL     1      -6.111  -1.543 124.490  0.00  0.00    +0.000 C 
ATOM     28  C   UNL     1      -5.965  -2.556 125.681  0.00  0.00    +0.000 C 
ATOM     29  C   UNL     1      -6.864  -3.481 124.840  0.00  0.00    +0.000 C 
ATOM     30  C   UNL     1      -5.871  -2.736 123.502  0.00  0.00    +0.000 C 
ATOM     31  C   UNL     1      -6.029  -1.965 122.136  0.00  0.00    +0.000 C 
ATOM     32  C   UNL     1      -4.414  -3.252 123.407  0.00  0.00    +0.000 C 
ENDBRANCH  23  24
ENDBRANCH  22  23
ENDBRANCH  21  22
ENDBRANCH  20  21
ENDBRANCH  19  20
ENDBRANCH   1  19
TORSDOF 10
ENDMDL
MODEL 9
REMARK VINA RESULT:      -6.9      3.486      4.347
REMARK  Name = Pinaverium
REMARK  14 active torsions:
REMARK  status: ('A' for Active; 'I' for Inactive)
REMARK    1  A    between atoms: C_1  and  O_2
REMARK    2  A    between atoms: O_2  and  C_3
REMARK    3  A    between atoms: C_4  and  O_5
REMARK    4  A    between atoms: O_5  and  C_6
REMARK    5  A    between atoms: C_8  and  C_9
REMARK    6  A    between atoms: C_9  and  N_10
REMARK    7  A    between atoms: N_10  and  C_11
REMARK    8  A    between atoms: C_11  and  C_12
REMARK    9  A    between atoms: C_12  and  O_13
REMARK   10  A    between atoms: O_13  and  C_14
REMARK   11  A    between atoms: C_14  and  C_15
REMARK   12  A    between atoms: C_15  and  C_16
REMARK   13  A    between atoms: C_22  and  C_23
REMARK   14  A    between atoms: C_22  and  C_24
REMARK                            x       y       z     vdW  Elec       q    Type
REMARK                         _______ _______ _______ _____ _____    ______ ____
ROOT
ATOM      1  N   UNL     1      -6.027   4.183 131.554  0.00  0.00    +0.000 N 
ATOM      2  C   UNL     1      -7.249   3.210 131.539  0.00  0.00    +0.000 C 
ATOM      3  C   UNL     1      -7.064   1.943 132.402  0.00  0.00    +0.000 C 
ATOM      4  O   UNL     1      -5.776   1.341 132.360  0.00  0.00    +0.000 OA
ATOM      5  C   UNL     1      -4.657   2.198 132.545  0.00  0.00    +0.000 C 
ATOM      6  C   UNL     1      -4.641   3.480 131.689  0.00  0.00    +0.000 C 
ENDROOT
BRANCH   1   7
ATOM      7  C   UNL     1      -6.022   4.992 130.255  0.00  0.00    +0.000 C 
BRANCH   7  11
ATOM      8  C   UNL     1      -3.368   3.935 126.998  0.00  0.00    +0.000 A 
ATOM      9  C   UNL     1      -4.646   3.409 127.118  0.00  0.00    +0.000 A 
ATOM     10  C   UNL     1      -5.454   3.798 128.178  0.00  0.00    +0.000 A 
ATOM     11  C   UNL     1      -4.994   4.727 129.170  0.00  0.00    +0.000 A 
ATOM     12  C   UNL     1      -3.670   5.218 128.995  0.00  0.00    +0.000 A 
ATOM     13 BR   UNL     1      -2.570   6.485 129.884  0.00  0.00    +0.000 Br
ATOM     14  C   UNL     1      -2.883   4.795 127.960  0.00  0.00    +0.000 A 
BRANCH   8  16
ATOM     15  C   UNL     1      -1.378   2.910 126.537  0.00  0.00    +0.000 C 
ATOM     16  O   UNL     1      -2.466   3.669 126.024  0.00  0.00    +0.000 OA
ENDBRANCH   8  16
BRANCH   9  17
ATOM     17  O   UNL     1      -4.950   2.497 126.149  0.00  0.00    +0.000 OA
ATOM     18  C   UNL     1      -5.881   1.479 126.427  0.00  0.00    +0.000 C 
ENDBRANCH   9  17
ENDBRANCH   7  11
ENDBRANCH   1   7
BRANCH   1  19
ATOM     19  C   UNL     1      -6.209   5.239 132.695  0.00  0.00    +0.000 C 
BRANCH  19  20
ATOM     20  C   UNL     1      -7.456   6.036 132.465  0.00  0.00    +0.000 C 
BRANCH  20  21
ATOM     21  O   UNL     1      -8.493   5.905 133.432  0.00  0.00    +0.000 OA
BRANCH  21  22
ATOM     22  C   UNL     1      -9.664   6.058 132.631  0.00  0.00    +0.000 C 
BRANCH  22  23
ATOM     23  C   UNL     1      -9.582   6.684 131.259  0.00  0.00    +0.000 C 
BRANCH  23  24
ATOM     24  C   UNL     1     -10.639   6.074 130.245  0.00  0.00    +0.000 C 
ATOM     25  C   UNL     1     -12.079   6.346 130.667  0.00  0.00    +0.000 C 
ATOM     26  C   UNL     1     -12.455   7.833 130.342  0.00  0.00    +0.000 C 
ATOM     27  C   UNL     1     -11.873   8.276 128.962  0.00  0.00    +0.000 C 
ATOM     28  C   UNL     1     -10.347   8.061 128.664  0.00  0.00    +0.000 C 
ATOM     29  C   UNL     1     -10.671   6.558 128.746  0.00  0.00    +0.000 C 
ATOM     30  C   UNL     1     -12.192   7.145 127.925  0.00  0.00    +0.000 C 
ATOM     31  C   UNL     1     -13.761   7.107 128.071  0.00  0.00    +0.000 C 
ATOM     32  C   UNL     1     -12.021   7.527 126.434  0.00  0.00    +0.000 C 
ENDBRANCH  23  24
ENDBRANCH  22  23
ENDBRANCH  21  22
ENDBRANCH  20  21
ENDBRANCH  19  20
ENDBRANCH   1  19
TORSDOF 10
ENDMDL
