MODEL 1
REMARK VINA RESULT:      -6.8      0.000      0.000
REMARK  Name = Pindolol
REMARK  9 active torsions:
REMARK  status: ('A' for Active; 'I' for Inactive)
REMARK    1  A    between atoms: C_1  and  C_2
REMARK    2  A    between atoms: C_2  and  C_3
REMARK    3  A    between atoms: C_2  and  N_4
REMARK    4  A    between atoms: N_4  and  C_5
REMARK    5  A    between atoms: C_5  and  C_6
REMARK    6  A    between atoms: C_6  and  O_7
REMARK    7  A    between atoms: C_6  and  C_8
REMARK    8  A    between atoms: C_8  and  O_9
REMARK    9  A    between atoms: O_9  and  C_10
REMARK                            x       y       z     vdW  Elec       q    Type
REMARK                         _______ _______ _______ _____ _____    ______ ____
ROOT
ATOM      1  O   UNL     1      -8.858   3.182 122.533  0.00  0.00    +0.000 OA
ENDROOT
BRANCH   1   2
ATOM      2  C   UNL     1      -8.373   3.564 121.310  0.00  0.00    +0.000 A 
ATOM      3  C   UNL     1      -9.197   3.771 120.196  0.00  0.00    +0.000 A 
ATOM      4  C   UNL     1      -8.669   4.241 118.994  0.00  0.00    +0.000 A 
ATOM      5  C   UNL     1      -7.306   4.525 118.861  0.00  0.00    +0.000 A 
ATOM      6  C   UNL     1      -6.498   4.343 119.991  0.00  0.00    +0.000 A 
ATOM      7  C   UNL     1      -7.002   3.880 121.207  0.00  0.00    +0.000 A 
ATOM      8  C   UNL     1      -5.913   3.860 122.126  0.00  0.00    +0.000 A 
ATOM      9  C   UNL     1      -4.795   4.309 121.467  0.00  0.00    +0.000 A 
ATOM     10  N   UNL     1      -5.151   4.575 120.170  0.00  0.00    +0.000 N 
ATOM     11  H   UNL     1      -4.528   4.918 119.455  0.00  0.00    +0.000 HD
ENDBRANCH   1   2
BRANCH   1  12
ATOM     12  C   UNL     1      -9.345   1.840 122.586  0.00  0.00    +0.000 C 
BRANCH  12  13
ATOM     13  C   UNL     1      -9.741   1.525 124.039  0.00  0.00    +0.000 C 
BRANCH  13  14
ATOM     14  O   UNL     1      -9.523   2.651 124.902  0.00  0.00    +0.000 OA
ATOM     15  H   UNL     1     -10.356   3.144 124.963  0.00  0.00    +0.000 HD
ENDBRANCH  13  14
BRANCH  13  16
ATOM     16  C   UNL     1      -8.911   0.335 124.540  0.00  0.00    +0.000 C 
BRANCH  16  17
ATOM     17  N   UNL     1      -9.583  -0.939 124.269  0.00  0.00    +0.000 NA
ATOM     18  H   UNL     1     -10.174  -1.174 125.072  0.00  0.00    +0.000 HD
BRANCH  17  20
ATOM     19  C   UNL     1      -9.429  -3.245 123.491  0.00  0.00    +0.000 C 
ATOM     20  C   UNL     1      -8.644  -2.023 123.970  0.00  0.00    +0.000 C 
ATOM     21  C   UNL     1      -7.649  -1.608 122.883  0.00  0.00    +0.000 C 
ENDBRANCH  17  20
ENDBRANCH  16  17
ENDBRANCH  13  16
ENDBRANCH  12  13
ENDBRANCH   1  12
TORSDOF 7
ENDMDL
MODEL 2
REMARK VINA RESULT:      -6.3      1.080      2.367
REMARK  Name = Pindolol
REMARK  9 active torsions:
REMARK  status: ('A' for Active; 'I' for Inactive)
REMARK    1  A    between atoms: C_1  and  C_2
REMARK    2  A    between atoms: C_2  and  C_3
REMARK    3  A    between atoms: C_2  and  N_4
REMARK    4  A    between atoms: N_4  and  C_5
REMARK    5  A    between atoms: C_5  and  C_6
REMARK    6  A    between atoms: C_6  and  O_7
REMARK    7  A    between atoms: C_6  and  C_8
REMARK    8  A    between atoms: C_8  and  O_9
REMARK    9  A    between atoms: O_9  and  C_10
REMARK                            x       y       z     vdW  Elec       q    Type
REMARK                         _______ _______ _______ _____ _____    ______ ____
ROOT
ATOM      1  O   UNL     1      -8.838   3.030 122.842  0.00  0.00    +0.000 OA
ENDROOT
BRANCH   1   2
ATOM      2  C   UNL     1      -7.765   3.416 122.081  0.00  0.00    +0.000 A 
ATOM      3  C   UNL     1      -6.440   3.303 122.523  0.00  0.00    +0.000 A 
ATOM      4  C   UNL     1      -5.376   3.629 121.683  0.00  0.00    +0.000 A 
ATOM      5  C   UNL     1      -5.594   4.073 120.374  0.00  0.00    +0.000 A 
ATOM      6  C   UNL     1      -6.921   4.153 119.935  0.00  0.00    +0.000 A 
ATOM      7  C   UNL     1      -8.003   3.826 120.753  0.00  0.00    +0.000 A 
ATOM      8  C   UNL     1      -9.180   3.985 119.966  0.00  0.00    +0.000 A 
ATOM      9  C   UNL     1      -8.798   4.388 118.710  0.00  0.00    +0.000 A 
ATOM     10  N   UNL     1      -7.432   4.512 118.706  0.00  0.00    +0.000 N 
ATOM     11  H   UNL     1      -6.877   4.796 117.914  0.00  0.00    +0.000 HD
ENDBRANCH   1   2
BRANCH   1  12
ATOM     12  C   UNL     1      -9.343   1.729 122.537  0.00  0.00    +0.000 C 
BRANCH  12  13
ATOM     13  C   UNL     1      -9.856   1.092 123.840  0.00  0.00    +0.000 C 
BRANCH  13  14
ATOM     14  O   UNL     1     -10.065   2.076 124.863  0.00  0.00    +0.000 OA
ATOM     15  H   UNL     1     -10.767   1.752 125.449  0.00  0.00    +0.000 HD
ENDBRANCH  13  14
BRANCH  13  16
ATOM     16  C   UNL     1      -8.833   0.059 124.332  0.00  0.00    +0.000 C 
BRANCH  16  17
ATOM     17  N   UNL     1      -9.475  -1.002 125.112  0.00  0.00    +0.000 NA
ATOM     18  H   UNL     1      -9.494  -0.719 126.096  0.00  0.00    +0.000 HD
BRANCH  17  20
ATOM     19  C   UNL     1      -9.188  -3.199 126.132  0.00  0.00    +0.000 C 
ATOM     20  C   UNL     1      -8.819  -2.302 124.950  0.00  0.00    +0.000 C 
ATOM     21  C   UNL     1      -9.255  -2.982 123.649  0.00  0.00    +0.000 C 
ENDBRANCH  17  20
ENDBRANCH  16  17
ENDBRANCH  13  16
ENDBRANCH  12  13
ENDBRANCH   1  12
TORSDOF 7
ENDMDL
MODEL 3
REMARK VINA RESULT:      -6.3      1.923      3.159
REMARK  Name = Pindolol
REMARK  9 active torsions:
REMARK  status: ('A' for Active; 'I' for Inactive)
REMARK    1  A    between atoms: C_1  and  C_2
REMARK    2  A    between atoms: C_2  and  C_3
REMARK    3  A    between atoms: C_2  and  N_4
REMARK    4  A    between atoms: N_4  and  C_5
REMARK    5  A    between atoms: C_5  and  C_6
REMARK    6  A    between atoms: C_6  and  O_7
REMARK    7  A    between atoms: C_6  and  C_8
REMARK    8  A    between atoms: C_8  and  O_9
REMARK    9  A    between atoms: O_9  and  C_10
REMARK                            x       y       z     vdW  Elec       q    Type
REMARK                         _______ _______ _______ _____ _____    ______ ____
ROOT
ATOM      1  O   UNL     1      -7.971   1.497 122.892  0.00  0.00    +0.000 OA
ENDROOT
BRANCH   1   2
ATOM      2  C   UNL     1      -7.118   2.404 123.465  0.00  0.00    +0.000 A 
ATOM      3  C   UNL     1      -6.888   2.464 124.846  0.00  0.00    +0.000 A 
ATOM      4  C   UNL     1      -5.948   3.346 125.377  0.00  0.00    +0.000 A 
ATOM      5  C   UNL     1      -5.202   4.195 124.552  0.00  0.00    +0.000 A 
ATOM      6  C   UNL     1      -5.419   4.104 123.171  0.00  0.00    +0.000 A 
ATOM      7  C   UNL     1      -6.348   3.225 122.614  0.00  0.00    +0.000 A 
ATOM      8  C   UNL     1      -6.267   3.377 121.200  0.00  0.00    +0.000 A 
ATOM      9  C   UNL     1      -5.305   4.319 120.931  0.00  0.00    +0.000 A 
ATOM     10  N   UNL     1      -4.814   4.772 122.128  0.00  0.00    +0.000 N 
ATOM     11  H   UNL     1      -4.096   5.471 122.235  0.00  0.00    +0.000 HD
ENDBRANCH   1   2
BRANCH   1  12
ATOM     12  C   UNL     1      -9.353   1.727 123.167  0.00  0.00    +0.000 C 
BRANCH  12  13
ATOM     13  C   UNL     1     -10.177   0.656 122.432  0.00  0.00    +0.000 C 
BRANCH  13  14
ATOM     14  O   UNL     1     -11.550   0.665 122.852  0.00  0.00    +0.000 OA
ATOM     15  H   UNL     1     -11.568   0.851 123.804  0.00  0.00    +0.000 HD
ENDBRANCH  13  14
BRANCH  13  16
ATOM     16  C   UNL     1      -9.571  -0.726 122.711  0.00  0.00    +0.000 C 
BRANCH  16  17
ATOM     17  N   UNL     1      -9.281  -0.906 124.137  0.00  0.00    +0.000 NA
ATOM     18  H   UNL     1      -8.560  -0.233 124.411  0.00  0.00    +0.000 HD
BRANCH  17  20
ATOM     19  C   UNL     1      -9.389  -2.627 125.862  0.00  0.00    +0.000 C 
ATOM     20  C   UNL     1      -8.876  -2.276 124.464  0.00  0.00    +0.000 C 
ATOM     21  C   UNL     1      -9.446  -3.276 123.455  0.00  0.00    +0.000 C 
ENDBRANCH  17  20
ENDBRANCH  16  17
ENDBRANCH  13  16
ENDBRANCH  12  13
ENDBRANCH   1  12
TORSDOF 7
ENDMDL
MODEL 4
REMARK VINA RESULT:      -6.2      8.714     10.650
REMARK  Name = Pindolol
REMARK  9 active torsions:
REMARK  status: ('A' for Active; 'I' for Inactive)
REMARK    1  A    between atoms: C_1  and  C_2
REMARK    2  A    between atoms: C_2  and  C_3
REMARK    3  A    between atoms: C_2  and  N_4
REMARK    4  A    between atoms: N_4  and  C_5
REMARK    5  A    between atoms: C_5  and  C_6
REMARK    6  A    between atoms: C_6  and  O_7
REMARK    7  A    between atoms: C_6  and  C_8
REMARK    8  A    between atoms: C_8  and  O_9
REMARK    9  A    between atoms: O_9  and  C_10
REMARK                            x       y       z     vdW  Elec       q    Type
REMARK                         _______ _______ _______ _____ _____    ______ ____
ROOT
ATOM      1  O   UNL     1      -7.789   7.129 130.336  0.00  0.00    +0.000 OA
ENDROOT
BRANCH   1   2
ATOM      2  C   UNL     1      -9.100   6.917 130.674  0.00  0.00    +0.000 A 
ATOM      3  C   UNL     1      -9.486   6.295 131.869  0.00  0.00    +0.000 A 
ATOM      4  C   UNL     1     -10.833   6.177 132.211  0.00  0.00    +0.000 A 
ATOM      5  C   UNL     1     -11.840   6.677 131.378  0.00  0.00    +0.000 A 
ATOM      6  C   UNL     1     -11.440   7.324 130.202  0.00  0.00    +0.000 A 
ATOM      7  C   UNL     1     -10.099   7.461 129.840  0.00  0.00    +0.000 A 
ATOM      8  C   UNL     1     -10.072   8.198 128.621  0.00  0.00    +0.000 A 
ATOM      9  C   UNL     1     -11.369   8.495 128.278  0.00  0.00    +0.000 A 
ATOM     10  N   UNL     1     -12.191   7.941 129.225  0.00  0.00    +0.000 N 
ATOM     11  H   UNL     1     -13.197   7.999 129.226  0.00  0.00    +0.000 HD
ENDBRANCH   1   2
BRANCH   1  12
ATOM     12  C   UNL     1      -6.851   6.796 131.361  0.00  0.00    +0.000 C 
BRANCH  12  13
ATOM     13  C   UNL     1      -5.436   6.864 130.762  0.00  0.00    +0.000 C 
BRANCH  13  14
ATOM     14  O   UNL     1      -5.268   8.023 129.932  0.00  0.00    +0.000 OA
ATOM     15  H   UNL     1      -4.328   8.263 129.942  0.00  0.00    +0.000 HD
ENDBRANCH  13  14
BRANCH  13  16
ATOM     16  C   UNL     1      -5.181   5.602 129.927  0.00  0.00    +0.000 C 
BRANCH  16  17
ATOM     17  N   UNL     1      -4.528   5.924 128.655  0.00  0.00    +0.000 NA
ATOM     18  H   UNL     1      -5.029   5.447 127.900  0.00  0.00    +0.000 HD
BRANCH  17  20
ATOM     19  C   UNL     1      -2.864   4.485 127.601  0.00  0.00    +0.000 C 
ATOM     20  C   UNL     1      -3.104   5.577 128.644  0.00  0.00    +0.000 C 
ATOM     21  C   UNL     1      -2.242   6.795 128.303  0.00  0.00    +0.000 C 
ENDBRANCH  17  20
ENDBRANCH  16  17
ENDBRANCH  13  16
ENDBRANCH  12  13
ENDBRANCH   1  12
TORSDOF 7
ENDMDL
MODEL 5
REMARK VINA RESULT:      -6.1      8.833     10.566
REMARK  Name = Pindolol
REMARK  9 active torsions:
REMARK  status: ('A' for Active; 'I' for Inactive)
REMARK    1  A    between atoms: C_1  and  C_2
REMARK    2  A    between atoms: C_2  and  C_3
REMARK    3  A    between atoms: C_2  and  N_4
REMARK    4  A    between atoms: N_4  and  C_5
REMARK    5  A    between atoms: C_5  and  C_6
REMARK    6  A    between atoms: C_6  and  O_7
REMARK    7  A    between atoms: C_6  and  C_8
REMARK    8  A    between atoms: C_8  and  O_9
REMARK    9  A    between atoms: O_9  and  C_10
REMARK                            x       y       z     vdW  Elec       q    Type
REMARK                         _______ _______ _______ _____ _____    ______ ____
ROOT
ATOM      1  O   UNL     1     -10.309   5.068 130.248  0.00  0.00    +0.000 OA
ENDROOT
BRANCH   1   2
ATOM      2  C   UNL     1     -11.180   6.125 130.309  0.00  0.00    +0.000 A 
ATOM      3  C   UNL     1     -11.961   6.401 131.439  0.00  0.00    +0.000 A 
ATOM      4  C   UNL     1     -12.770   7.536 131.487  0.00  0.00    +0.000 A 
ATOM      5  C   UNL     1     -12.825   8.435 130.417  0.00  0.00    +0.000 A 
ATOM      6  C   UNL     1     -12.016   8.163 129.307  0.00  0.00    +0.000 A 
ATOM      7  C   UNL     1     -11.193   7.039 129.235  0.00  0.00    +0.000 A 
ATOM      8  C   UNL     1     -10.498   7.113 127.994  0.00  0.00    +0.000 A 
ATOM      9  C   UNL     1     -10.897   8.261 127.353  0.00  0.00    +0.000 A 
ATOM     10  N   UNL     1     -11.834   8.877 128.141  0.00  0.00    +0.000 N 
ATOM     11  H   UNL     1     -12.303   9.741 127.919  0.00  0.00    +0.000 HD
ENDBRANCH   1   2
BRANCH   1  12
ATOM     12  C   UNL     1     -10.916   3.788 130.427  0.00  0.00    +0.000 C 
BRANCH  12  13
ATOM     13  C   UNL     1      -9.926   2.883 131.180  0.00  0.00    +0.000 C 
BRANCH  13  14
ATOM     14  O   UNL     1     -10.606   1.894 131.966  0.00  0.00    +0.000 OA
ATOM     15  H   UNL     1     -11.560   2.035 131.861  0.00  0.00    +0.000 HD
ENDBRANCH  13  14
BRANCH  13  16
ATOM     16  C   UNL     1      -9.053   3.748 132.100  0.00  0.00    +0.000 C 
BRANCH  16  17
ATOM     17  N   UNL     1      -9.424   3.577 133.508  0.00  0.00    +0.000 NA
ATOM     18  H   UNL     1     -10.361   3.968 133.649  0.00  0.00    +0.000 HD
BRANCH  17  20
ATOM     19  C   UNL     1      -7.127   3.434 134.314  0.00  0.00    +0.000 C 
ATOM     20  C   UNL     1      -8.457   4.181 134.427  0.00  0.00    +0.000 C 
ATOM     21  C   UNL     1      -8.231   5.659 134.098  0.00  0.00    +0.000 C 
ENDBRANCH  17  20
ENDBRANCH  16  17
ENDBRANCH  13  16
ENDBRANCH  12  13
ENDBRANCH   1  12
TORSDOF 7
ENDMDL
MODEL 6
REMARK VINA RESULT:      -6.0      9.188     10.407
REMARK  Name = Pindolol
REMARK  9 active torsions:
REMARK  status: ('A' for Active; 'I' for Inactive)
REMARK    1  A    between atoms: C_1  and  C_2
REMARK    2  A    between atoms: C_2  and  C_3
REMARK    3  A    between atoms: C_2  and  N_4
REMARK    4  A    between atoms: N_4  and  C_5
REMARK    5  A    between atoms: C_5  and  C_6
REMARK    6  A    between atoms: C_6  and  O_7
REMARK    7  A    between atoms: C_6  and  C_8
REMARK    8  A    between atoms: C_8  and  O_9
REMARK    9  A    between atoms: O_9  and  C_10
REMARK                            x       y       z     vdW  Elec       q    Type
REMARK                         _______ _______ _______ _____ _____    ______ ____
ROOT
ATOM      1  O   UNL     1      -8.353   7.023 130.154  0.00  0.00    +0.000 OA
ENDROOT
BRANCH   1   2
ATOM      2  C   UNL     1      -9.679   6.941 130.493  0.00  0.00    +0.000 A 
ATOM      3  C   UNL     1     -10.120   6.400 131.707  0.00  0.00    +0.000 A 
ATOM      4  C   UNL     1     -11.473   6.415 132.047  0.00  0.00    +0.000 A 
ATOM      5  C   UNL     1     -12.430   6.973 131.193  0.00  0.00    +0.000 A 
ATOM      6  C   UNL     1     -11.972   7.539 129.996  0.00  0.00    +0.000 A 
ATOM      7  C   UNL     1     -10.624   7.543 129.636  0.00  0.00    +0.000 A 
ATOM      8  C   UNL     1     -10.529   8.230 128.391  0.00  0.00    +0.000 A 
ATOM      9  C   UNL     1     -11.793   8.629 128.032  0.00  0.00    +0.000 A 
ATOM     10  N   UNL     1     -12.664   8.185 128.994  0.00  0.00    +0.000 N 
ATOM     11  H   UNL     1     -13.660   8.333 128.989  0.00  0.00    +0.000 HD
ENDBRANCH   1   2
BRANCH   1  12
ATOM     12  C   UNL     1      -7.449   6.748 131.225  0.00  0.00    +0.000 C 
BRANCH  12  13
ATOM     13  C   UNL     1      -6.644   5.487 130.867  0.00  0.00    +0.000 C 
BRANCH  13  14
ATOM     14  O   UNL     1      -6.946   5.025 129.542  0.00  0.00    +0.000 OA
ATOM     15  H   UNL     1      -6.662   5.711 128.917  0.00  0.00    +0.000 HD
ENDBRANCH  13  14
BRANCH  13  16
ATOM     16  C   UNL     1      -6.971   4.378 131.877  0.00  0.00    +0.000 C 
BRANCH  16  17
ATOM     17  N   UNL     1      -8.014   3.482 131.369  0.00  0.00    +0.000 NA
ATOM     18  H   UNL     1      -8.741   4.047 130.921  0.00  0.00    +0.000 HD
BRANCH  17  20
ATOM     19  C   UNL     1      -8.864   3.468 133.655  0.00  0.00    +0.000 C 
ATOM     20  C   UNL     1      -8.581   2.623 132.412  0.00  0.00    +0.000 C 
ATOM     21  C   UNL     1      -9.884   1.970 131.942  0.00  0.00    +0.000 C 
ENDBRANCH  17  20
ENDBRANCH  16  17
ENDBRANCH  13  16
ENDBRANCH  12  13
ENDBRANCH   1  12
TORSDOF 7
ENDMDL
MODEL 7
REMARK VINA RESULT:      -6.0      2.001      6.802
REMARK  Name = Pindolol
REMARK  9 active torsions:
REMARK  status: ('A' for Active; 'I' for Inactive)
REMARK    1  A    between atoms: C_1  and  C_2
REMARK    2  A    between atoms: C_2  and  C_3
REMARK    3  A    between atoms: C_2  and  N_4
REMARK    4  A    between atoms: N_4  and  C_5
REMARK    5  A    between atoms: C_5  and  C_6
REMARK    6  A    between atoms: C_6  and  O_7
REMARK    7  A    between atoms: C_6  and  C_8
REMARK    8  A    between atoms: C_8  and  O_9
REMARK    9  A    between atoms: O_9  and  C_10
REMARK                            x       y       z     vdW  Elec       q    Type
REMARK                         _______ _______ _______ _____ _____    ______ ____
ROOT
ATOM      1  O   UNL     1      -7.557   0.285 123.750  0.00  0.00    +0.000 OA
ENDROOT
BRANCH   1   2
ATOM      2  C   UNL     1      -8.180  -0.920 123.954  0.00  0.00    +0.000 A 
ATOM      3  C   UNL     1      -8.700  -1.692 122.907  0.00  0.00    +0.000 A 
ATOM      4  C   UNL     1      -9.249  -2.951 123.152  0.00  0.00    +0.000 A 
ATOM      5  C   UNL     1      -9.294  -3.484 124.445  0.00  0.00    +0.000 A 
ATOM      6  C   UNL     1      -8.743  -2.714 125.478  0.00  0.00    +0.000 A 
ATOM      7  C   UNL     1      -8.182  -1.456 125.258  0.00  0.00    +0.000 A 
ATOM      8  C   UNL     1      -7.693  -0.995 126.515  0.00  0.00    +0.000 A 
ATOM      9  C   UNL     1      -7.953  -1.966 127.451  0.00  0.00    +0.000 A 
ATOM     10  N   UNL     1      -8.611  -2.991 126.822  0.00  0.00    +0.000 N 
ATOM     11  H   UNL     1      -8.928  -3.838 127.267  0.00  0.00    +0.000 HD
ENDBRANCH   1   2
BRANCH   1  12
ATOM     12  C   UNL     1      -8.442   1.369 123.464  0.00  0.00    +0.000 C 
BRANCH  12  13
ATOM     13  C   UNL     1      -8.019   2.577 124.317  0.00  0.00    +0.000 C 
BRANCH  13  14
ATOM     14  O   UNL     1      -9.151   3.361 124.720  0.00  0.00    +0.000 OA
ATOM     15  H   UNL     1      -9.952   2.846 124.533  0.00  0.00    +0.000 HD
ENDBRANCH  13  14
BRANCH  13  16
ATOM     16  C   UNL     1      -7.058   3.456 123.505  0.00  0.00    +0.000 C 
BRANCH  16  17
ATOM     17  N   UNL     1      -7.505   3.597 122.116  0.00  0.00    +0.000 NA
ATOM     18  H   UNL     1      -8.193   2.865 121.918  0.00  0.00    +0.000 HD
BRANCH  17  20
ATOM     19  C   UNL     1      -6.850   4.194 119.843  0.00  0.00    +0.000 C 
ATOM     20  C   UNL     1      -6.398   3.553 121.157  0.00  0.00    +0.000 C 
ATOM     21  C   UNL     1      -5.176   4.307 121.689  0.00  0.00    +0.000 C 
ENDBRANCH  17  20
ENDBRANCH  16  17
ENDBRANCH  13  16
ENDBRANCH  12  13
ENDBRANCH   1  12
TORSDOF 7
ENDMDL
MODEL 8
REMARK VINA RESULT:      -5.9      2.065      6.503
REMARK  Name = Pindolol
REMARK  9 active torsions:
REMARK  status: ('A' for Active; 'I' for Inactive)
REMARK    1  A    between atoms: C_1  and  C_2
REMARK    2  A    between atoms: C_2  and  C_3
REMARK    3  A    between atoms: C_2  and  N_4
REMARK    4  A    between atoms: N_4  and  C_5
REMARK    5  A    between atoms: C_5  and  C_6
REMARK    6  A    between atoms: C_6  and  O_7
REMARK    7  A    between atoms: C_6  and  C_8
REMARK    8  A    between atoms: C_8  and  O_9
REMARK    9  A    between atoms: O_9  and  C_10
REMARK                            x       y       z     vdW  Elec       q    Type
REMARK                         _______ _______ _______ _____ _____    ______ ____
ROOT
ATOM      1  O   UNL     1      -7.845   0.640 123.670  0.00  0.00    +0.000 OA
ENDROOT
BRANCH   1   2
ATOM      2  C   UNL     1      -7.981  -0.538 124.358  0.00  0.00    +0.000 A 
ATOM      3  C   UNL     1      -9.034  -0.780 125.250  0.00  0.00    +0.000 A 
ATOM      4  C   UNL     1      -9.180  -2.024 125.863  0.00  0.00    +0.000 A 
ATOM      5  C   UNL     1      -8.287  -3.069 125.606  0.00  0.00    +0.000 A 
ATOM      6  C   UNL     1      -7.257  -2.824 124.689  0.00  0.00    +0.000 A 
ATOM      7  C   UNL     1      -7.093  -1.592 124.057  0.00  0.00    +0.000 A 
ATOM      8  C   UNL     1      -5.982  -1.723 123.174  0.00  0.00    +0.000 A 
ATOM      9  C   UNL     1      -5.509  -3.008 123.279  0.00  0.00    +0.000 A 
ATOM     10  N   UNL     1      -6.269  -3.661 124.215  0.00  0.00    +0.000 N 
ATOM     11  H   UNL     1      -6.144  -4.620 124.498  0.00  0.00    +0.000 HD
ENDBRANCH   1   2
BRANCH   1  12
ATOM     12  C   UNL     1      -8.828   1.627 123.985  0.00  0.00    +0.000 C 
BRANCH  12  13
ATOM     13  C   UNL     1      -8.126   2.802 124.688  0.00  0.00    +0.000 C 
BRANCH  13  14
ATOM     14  O   UNL     1      -9.061   3.815 125.085  0.00  0.00    +0.000 OA
ATOM     15  H   UNL     1      -9.623   3.444 125.783  0.00  0.00    +0.000 HD
ENDBRANCH  13  14
BRANCH  13  16
ATOM     16  C   UNL     1      -7.091   3.414 123.733  0.00  0.00    +0.000 C 
BRANCH  16  17
ATOM     17  N   UNL     1      -7.582   3.436 122.353  0.00  0.00    +0.000 NA
ATOM     18  H   UNL     1      -8.203   2.633 122.214  0.00  0.00    +0.000 HD
BRANCH  17  20
ATOM     19  C   UNL     1      -7.009   4.078 120.070  0.00  0.00    +0.000 C 
ATOM     20  C   UNL     1      -6.500   3.444 121.366  0.00  0.00    +0.000 C 
ATOM     21  C   UNL     1      -5.294   4.239 121.874  0.00  0.00    +0.000 C 
ENDBRANCH  17  20
ENDBRANCH  16  17
ENDBRANCH  13  16
ENDBRANCH  12  13
ENDBRANCH   1  12
TORSDOF 7
ENDMDL
MODEL 9
REMARK VINA RESULT:      -5.9      7.452      9.254
REMARK  Name = Pindolol
REMARK  9 active torsions:
REMARK  status: ('A' for Active; 'I' for Inactive)
REMARK    1  A    between atoms: C_1  and  C_2
REMARK    2  A    between atoms: C_2  and  C_3
REMARK    3  A    between atoms: C_2  and  N_4
REMARK    4  A    between atoms: N_4  and  C_5
REMARK    5  A    between atoms: C_5  and  C_6
REMARK    6  A    between atoms: C_6  and  O_7
REMARK    7  A    between atoms: C_6  and  C_8
REMARK    8  A    between atoms: C_8  and  O_9
REMARK    9  A    between atoms: O_9  and  C_10
REMARK                            x       y       z     vdW  Elec       q    Type
REMARK                         _______ _______ _______ _____ _____    ______ ____
ROOT
ATOM      1  O   UNL     1     -10.489   4.892 129.987  0.00  0.00    +0.000 OA
ENDROOT
BRANCH   1   2
ATOM      2  C   UNL     1     -11.280   6.003 130.129  0.00  0.00    +0.000 A 
ATOM      3  C   UNL     1     -12.010   6.271 131.295  0.00  0.00    +0.000 A 
ATOM      4  C   UNL     1     -12.734   7.456 131.427  0.00  0.00    +0.000 A 
ATOM      5  C   UNL     1     -12.751   8.414 130.408  0.00  0.00    +0.000 A 
ATOM      6  C   UNL     1     -11.993   8.147 129.262  0.00  0.00    +0.000 A 
ATOM      7  C   UNL     1     -11.255   6.974 129.106  0.00  0.00    +0.000 A 
ATOM      8  C   UNL     1     -10.587   7.066 127.851  0.00  0.00    +0.000 A 
ATOM      9  C   UNL     1     -10.919   8.272 127.284  0.00  0.00    +0.000 A 
ATOM     10  N   UNL     1     -11.789   8.910 128.131  0.00  0.00    +0.000 N 
ATOM     11  H   UNL     1     -12.199   9.815 127.968  0.00  0.00    +0.000 HD
ENDBRANCH   1   2
BRANCH   1  12
ATOM     12  C   UNL     1      -9.525   4.713 131.026  0.00  0.00    +0.000 C 
BRANCH  12  13
ATOM     13  C   UNL     1      -8.122   4.761 130.397  0.00  0.00    +0.000 C 
BRANCH  13  14
ATOM     14  O   UNL     1      -7.775   6.089 129.978  0.00  0.00    +0.000 OA
ATOM     15  H   UNL     1      -8.593   6.540 129.713  0.00  0.00    +0.000 HD
ENDBRANCH  13  14
BRANCH  13  16
ATOM     16  C   UNL     1      -8.081   3.820 129.184  0.00  0.00    +0.000 C 
BRANCH  16  17
ATOM     17  N   UNL     1      -8.283   4.553 127.931  0.00  0.00    +0.000 NA
ATOM     18  H   UNL     1      -9.282   4.547 127.706  0.00  0.00    +0.000 HD
BRANCH  17  20
ATOM     19  C   UNL     1      -7.820   2.528 126.652  0.00  0.00    +0.000 C 
ATOM     20  C   UNL     1      -7.490   4.012 126.824  0.00  0.00    +0.000 C 
ATOM     21  C   UNL     1      -7.793   4.748 125.516  0.00  0.00    +0.000 C 
ENDBRANCH  17  20
ENDBRANCH  16  17
ENDBRANCH  13  16
ENDBRANCH  12  13
ENDBRANCH   1  12
TORSDOF 7
ENDMDL
