MODEL 1
REMARK VINA RESULT:      -7.6      0.000      0.000
REMARK  Name = Pioglitazone
REMARK  8 active torsions:
REMARK  status: ('A' for Active; 'I' for Inactive)
REMARK    1  A    between atoms: C_1  and  C_2
REMARK    2  A    between atoms: C_2  and  C_3
REMARK    3  A    between atoms: C_6  and  C_7
REMARK    4  A    between atoms: C_7  and  C_8
REMARK    5  A    between atoms: C_8  and  O_9
REMARK    6  A    between atoms: O_9  and  C_10
REMARK    7  A    between atoms: C_13  and  C_14
REMARK    8  A    between atoms: C_14  and  C_15
REMARK                            x       y       z     vdW  Elec       q    Type
REMARK                         _______ _______ _______ _____ _____    ______ ____
ROOT
ATOM      1  C   UNL     1      -8.948  -2.753 126.477  0.00  0.00    +0.000 A 
ATOM      2  C   UNL     1      -9.018  -3.836 127.349  0.00  0.00    +0.000 A 
ATOM      3  C   UNL     1      -8.419  -3.764 128.611  0.00  0.00    +0.000 A 
ATOM      4  C   UNL     1      -7.654  -2.644 128.974  0.00  0.00    +0.000 A 
ATOM      5  C   UNL     1      -7.554  -1.601 128.058  0.00  0.00    +0.000 A 
ATOM      6  C   UNL     1      -8.198  -1.641 126.833  0.00  0.00    +0.000 A 
ENDROOT
BRANCH   1   7
ATOM      7  O   UNL     1      -9.726  -2.826 125.355  0.00  0.00    +0.000 OA
BRANCH   7   8
ATOM      8  C   UNL     1      -9.080  -3.439 124.249  0.00  0.00    +0.000 C 
BRANCH   8   9
ATOM      9  C   UNL     1      -9.411  -2.710 122.955  0.00  0.00    +0.000 C 
BRANCH   9  13
ATOM     10  C   UNL     1      -8.566   1.458 123.219  0.00  0.00    +0.000 A 
ATOM     11  C   UNL     1      -9.813   0.938 122.882  0.00  0.00    +0.000 A 
ATOM     12  N   UNL     1     -10.087  -0.381 122.786  0.00  0.00    +0.000 NA
ATOM     13  C   UNL     1      -9.072  -1.241 123.025  0.00  0.00    +0.000 A 
ATOM     14  C   UNL     1      -7.784  -0.791 123.330  0.00  0.00    +0.000 A 
ATOM     15  C   UNL     1      -7.527   0.565 123.424  0.00  0.00    +0.000 A 
BRANCH  10  17
ATOM     16  C   UNL     1      -6.922   3.294 123.232  0.00  0.00    +0.000 C 
ATOM     17  C   UNL     1      -8.379   2.924 123.465  0.00  0.00    +0.000 C 
ENDBRANCH  10  17
ENDBRANCH   9  13
ENDBRANCH   8   9
ENDBRANCH   7   8
ENDBRANCH   1   7
BRANCH   4  18
ATOM     18  C   UNL     1      -6.941  -2.621 130.304  0.00  0.00    +0.000 C 
BRANCH  18  19
ATOM     19  C   UNL     1      -5.839  -3.655 130.614  0.00  0.00    +0.000 C 
ATOM     20  S   UNL     1      -5.484  -4.190 132.333  0.00  0.00    +0.000 S 
ATOM     21  C   UNL     1      -3.748  -4.009 132.129  0.00  0.00    +0.000 C 
ATOM     22  O   UNL     1      -2.928  -4.225 132.997  0.00  0.00    +0.000 OA
ATOM     23  N   UNL     1      -3.465  -3.558 130.881  0.00  0.00    +0.000 N 
ATOM     24  C   UNL     1      -4.492  -3.257 130.037  0.00  0.00    +0.000 C 
ATOM     25  O   UNL     1      -4.313  -2.765 128.932  0.00  0.00    +0.000 OA
ATOM     26  H   UNL     1      -2.512  -3.366 130.618  0.00  0.00    +0.000 HD
ENDBRANCH  18  19
ENDBRANCH   4  18
TORSDOF 7
ENDMDL
MODEL 2
REMARK VINA RESULT:      -7.2      1.919      2.089
REMARK  Name = Pioglitazone
REMARK  8 active torsions:
REMARK  status: ('A' for Active; 'I' for Inactive)
REMARK    1  A    between atoms: C_1  and  C_2
REMARK    2  A    between atoms: C_2  and  C_3
REMARK    3  A    between atoms: C_6  and  C_7
REMARK    4  A    between atoms: C_7  and  C_8
REMARK    5  A    between atoms: C_8  and  O_9
REMARK    6  A    between atoms: O_9  and  C_10
REMARK    7  A    between atoms: C_13  and  C_14
REMARK    8  A    between atoms: C_14  and  C_15
REMARK                            x       y       z     vdW  Elec       q    Type
REMARK                         _______ _______ _______ _____ _____    ______ ____
ROOT
ATOM      1  C   UNL     1      -8.521  -3.172 126.665  0.00  0.00    +0.000 A 
ATOM      2  C   UNL     1      -8.993  -3.756 127.838  0.00  0.00    +0.000 A 
ATOM      3  C   UNL     1      -8.335  -3.528 129.052  0.00  0.00    +0.000 A 
ATOM      4  C   UNL     1      -7.136  -2.798 129.087  0.00  0.00    +0.000 A 
ATOM      5  C   UNL     1      -6.658  -2.276 127.889  0.00  0.00    +0.000 A 
ATOM      6  C   UNL     1      -7.340  -2.445 126.696  0.00  0.00    +0.000 A 
ENDROOT
BRANCH   1   7
ATOM      7  O   UNL     1      -9.331  -3.276 125.568  0.00  0.00    +0.000 OA
BRANCH   7   8
ATOM      8  C   UNL     1      -8.632  -3.568 124.367  0.00  0.00    +0.000 C 
BRANCH   8   9
ATOM      9  C   UNL     1      -9.298  -2.896 123.176  0.00  0.00    +0.000 C 
BRANCH   9  13
ATOM     10  C   UNL     1      -8.659   1.317 123.128  0.00  0.00    +0.000 A 
ATOM     11  C   UNL     1      -9.873   0.711 122.815  0.00  0.00    +0.000 A 
ATOM     12  N   UNL     1     -10.082  -0.623 122.817  0.00  0.00    +0.000 NA
ATOM     13  C   UNL     1      -9.031  -1.411 123.136  0.00  0.00    +0.000 A 
ATOM     14  C   UNL     1      -7.772  -0.876 123.424  0.00  0.00    +0.000 A 
ATOM     15  C   UNL     1      -7.583   0.494 123.416  0.00  0.00    +0.000 A 
BRANCH  10  17
ATOM     16  C   UNL     1      -7.103   3.178 123.559  0.00  0.00    +0.000 C 
ATOM     17  C   UNL     1      -8.547   2.804 123.262  0.00  0.00    +0.000 C 
ENDBRANCH  10  17
ENDBRANCH   9  13
ENDBRANCH   8   9
ENDBRANCH   7   8
ENDBRANCH   1   7
BRANCH   4  18
ATOM     18  C   UNL     1      -6.393  -2.637 130.390  0.00  0.00    +0.000 C 
BRANCH  18  19
ATOM     19  C   UNL     1      -7.082  -2.983 131.726  0.00  0.00    +0.000 C 
ATOM     20  S   UNL     1      -7.681  -1.672 132.863  0.00  0.00    +0.000 S 
ATOM     21  C   UNL     1      -6.971  -2.441 134.273  0.00  0.00    +0.000 C 
ATOM     22  O   UNL     1      -7.033  -1.998 135.401  0.00  0.00    +0.000 OA
ATOM     23  N   UNL     1      -6.317  -3.574 133.913  0.00  0.00    +0.000 N 
ATOM     24  C   UNL     1      -6.239  -3.901 132.593  0.00  0.00    +0.000 C 
ATOM     25  O   UNL     1      -5.593  -4.859 132.189  0.00  0.00    +0.000 OA
ATOM     26  H   UNL     1      -5.822  -4.113 134.606  0.00  0.00    +0.000 HD
ENDBRANCH  18  19
ENDBRANCH   4  18
TORSDOF 7
ENDMDL
MODEL 3
REMARK VINA RESULT:      -7.1      6.253      8.136
REMARK  Name = Pioglitazone
REMARK  8 active torsions:
REMARK  status: ('A' for Active; 'I' for Inactive)
REMARK    1  A    between atoms: C_1  and  C_2
REMARK    2  A    between atoms: C_2  and  C_3
REMARK    3  A    between atoms: C_6  and  C_7
REMARK    4  A    between atoms: C_7  and  C_8
REMARK    5  A    between atoms: C_8  and  O_9
REMARK    6  A    between atoms: O_9  and  C_10
REMARK    7  A    between atoms: C_13  and  C_14
REMARK    8  A    between atoms: C_14  and  C_15
REMARK                            x       y       z     vdW  Elec       q    Type
REMARK                         _______ _______ _______ _____ _____    ______ ____
ROOT
ATOM      1  C   UNL     1      -8.588   0.593 131.787  0.00  0.00    +0.000 A 
ATOM      2  C   UNL     1      -7.435   1.000 132.453  0.00  0.00    +0.000 A 
ATOM      3  C   UNL     1      -7.462   2.124 133.286  0.00  0.00    +0.000 A 
ATOM      4  C   UNL     1      -8.619   2.914 133.380  0.00  0.00    +0.000 A 
ATOM      5  C   UNL     1      -9.739   2.514 132.657  0.00  0.00    +0.000 A 
ATOM      6  C   UNL     1      -9.736   1.368 131.881  0.00  0.00    +0.000 A 
ENDROOT
BRANCH   1   7
ATOM      7  O   UNL     1      -8.530  -0.620 131.160  0.00  0.00    +0.000 OA
BRANCH   7   8
ATOM      8  C   UNL     1      -7.209  -1.108 130.976  0.00  0.00    +0.000 C 
BRANCH   8   9
ATOM      9  C   UNL     1      -7.224  -2.570 130.559  0.00  0.00    +0.000 C 
BRANCH   9  13
ATOM     10  C   UNL     1      -8.490  -3.088 126.523  0.00  0.00    +0.000 A 
ATOM     11  C   UNL     1      -7.539  -2.154 126.925  0.00  0.00    +0.000 A 
ATOM     12  N   UNL     1      -7.140  -1.975 128.204  0.00  0.00    +0.000 NA
ATOM     13  C   UNL     1      -7.717  -2.755 129.144  0.00  0.00    +0.000 A 
ATOM     14  C   UNL     1      -8.707  -3.688 128.820  0.00  0.00    +0.000 A 
ATOM     15  C   UNL     1      -9.099  -3.853 127.504  0.00  0.00    +0.000 A 
BRANCH  10  17
ATOM     16  C   UNL     1      -7.459  -3.672 124.362  0.00  0.00    +0.000 C 
ATOM     17  C   UNL     1      -8.763  -3.339 125.072  0.00  0.00    +0.000 C 
ENDBRANCH  10  17
ENDBRANCH   9  13
ENDBRANCH   8   9
ENDBRANCH   7   8
ENDBRANCH   1   7
BRANCH   4  18
ATOM     18  C   UNL     1      -8.604   4.172 134.214  0.00  0.00    +0.000 C 
BRANCH  18  19
ATOM     19  C   UNL     1      -8.530   5.554 133.533  0.00  0.00    +0.000 C 
ATOM     20  S   UNL     1      -9.782   6.083 132.300  0.00  0.00    +0.000 S 
ATOM     21  C   UNL     1      -8.564   6.666 131.175  0.00  0.00    +0.000 C 
ATOM     22  O   UNL     1      -8.808   7.155 130.092  0.00  0.00    +0.000 OA
ATOM     23  N   UNL     1      -7.322   6.455 131.676  0.00  0.00    +0.000 N 
ATOM     24  C   UNL     1      -7.189   5.800 132.863  0.00  0.00    +0.000 C 
ATOM     25  O   UNL     1      -6.099   5.498 133.331  0.00  0.00    +0.000 OA
ATOM     26  H   UNL     1      -6.510   6.700 131.132  0.00  0.00    +0.000 HD
ENDBRANCH  18  19
ENDBRANCH   4  18
TORSDOF 7
ENDMDL
MODEL 4
REMARK VINA RESULT:      -7.1     10.237     11.317
REMARK  Name = Pioglitazone
REMARK  8 active torsions:
REMARK  status: ('A' for Active; 'I' for Inactive)
REMARK    1  A    between atoms: C_1  and  C_2
REMARK    2  A    between atoms: C_2  and  C_3
REMARK    3  A    between atoms: C_6  and  C_7
REMARK    4  A    between atoms: C_7  and  C_8
REMARK    5  A    between atoms: C_8  and  O_9
REMARK    6  A    between atoms: O_9  and  C_10
REMARK    7  A    between atoms: C_13  and  C_14
REMARK    8  A    between atoms: C_14  and  C_15
REMARK                            x       y       z     vdW  Elec       q    Type
REMARK                         _______ _______ _______ _____ _____    ______ ____
ROOT
ATOM      1  C   UNL     1      -6.909   5.357 132.080  0.00  0.00    +0.000 A 
ATOM      2  C   UNL     1      -5.755   5.023 132.784  0.00  0.00    +0.000 A 
ATOM      3  C   UNL     1      -4.598   5.796 132.646  0.00  0.00    +0.000 A 
ATOM      4  C   UNL     1      -4.551   6.852 131.721  0.00  0.00    +0.000 A 
ATOM      5  C   UNL     1      -5.703   7.125 130.989  0.00  0.00    +0.000 A 
ATOM      6  C   UNL     1      -6.870   6.402 131.168  0.00  0.00    +0.000 A 
ENDROOT
BRANCH   1   7
ATOM      7  O   UNL     1      -8.046   4.680 132.423  0.00  0.00    +0.000 OA
BRANCH   7   8
ATOM      8  C   UNL     1      -9.128   4.884 131.525  0.00  0.00    +0.000 C 
BRANCH   8   9
ATOM      9  C   UNL     1     -10.281   5.593 132.218  0.00  0.00    +0.000 C 
BRANCH   9  13
ATOM     10  C   UNL     1     -12.402   8.306 129.707  0.00  0.00    +0.000 A 
ATOM     11  C   UNL     1     -12.964   7.664 130.808  0.00  0.00    +0.000 A 
ATOM     12  N   UNL     1     -12.303   6.795 131.603  0.00  0.00    +0.000 NA
ATOM     13  C   UNL     1     -11.014   6.532 131.292  0.00  0.00    +0.000 A 
ATOM     14  C   UNL     1     -10.394   7.109 130.179  0.00  0.00    +0.000 A 
ATOM     15  C   UNL     1     -11.092   7.997 129.380  0.00  0.00    +0.000 A 
BRANCH  10  17
ATOM     16  C   UNL     1     -13.333  10.580 129.883  0.00  0.00    +0.000 C 
ATOM     17  C   UNL     1     -13.147   9.376 128.972  0.00  0.00    +0.000 C 
ENDBRANCH  10  17
ENDBRANCH   9  13
ENDBRANCH   8   9
ENDBRANCH   7   8
ENDBRANCH   1   7
BRANCH   4  18
ATOM     18  C   UNL     1      -3.267   7.618 131.521  0.00  0.00    +0.000 C 
BRANCH  18  19
ATOM     19  C   UNL     1      -2.333   7.895 132.717  0.00  0.00    +0.000 C 
ATOM     20  S   UNL     1      -1.852   9.604 133.181  0.00  0.00    +0.000 S 
ATOM     21  C   UNL     1      -0.154   9.183 133.341  0.00  0.00    +0.000 C 
ATOM     22  O   UNL     1       0.723   9.966 133.642  0.00  0.00    +0.000 OA
ATOM     23  N   UNL     1       0.036   7.873 133.044  0.00  0.00    +0.000 N 
ATOM     24  C   UNL     1      -1.025   7.130 132.620  0.00  0.00    +0.000 C 
ATOM     25  O   UNL     1      -0.910   5.969 132.252  0.00  0.00    +0.000 OA
ATOM     26  H   UNL     1       0.965   7.483 133.052  0.00  0.00    +0.000 HD
ENDBRANCH  18  19
ENDBRANCH   4  18
TORSDOF 7
ENDMDL
MODEL 5
REMARK VINA RESULT:      -7.0      7.168      9.440
REMARK  Name = Pioglitazone
REMARK  8 active torsions:
REMARK  status: ('A' for Active; 'I' for Inactive)
REMARK    1  A    between atoms: C_1  and  C_2
REMARK    2  A    between atoms: C_2  and  C_3
REMARK    3  A    between atoms: C_6  and  C_7
REMARK    4  A    between atoms: C_7  and  C_8
REMARK    5  A    between atoms: C_8  and  O_9
REMARK    6  A    between atoms: O_9  and  C_10
REMARK    7  A    between atoms: C_13  and  C_14
REMARK    8  A    between atoms: C_14  and  C_15
REMARK                            x       y       z     vdW  Elec       q    Type
REMARK                         _______ _______ _______ _____ _____    ______ ____
ROOT
ATOM      1  C   UNL     1      -7.959   3.079 130.908  0.00  0.00    +0.000 A 
ATOM      2  C   UNL     1      -6.649   2.897 130.475  0.00  0.00    +0.000 A 
ATOM      3  C   UNL     1      -6.393   2.435 129.179  0.00  0.00    +0.000 A 
ATOM      4  C   UNL     1      -7.450   2.052 128.337  0.00  0.00    +0.000 A 
ATOM      5  C   UNL     1      -8.748   2.191 128.820  0.00  0.00    +0.000 A 
ATOM      6  C   UNL     1      -9.007   2.707 130.079  0.00  0.00    +0.000 A 
ENDROOT
BRANCH   1   7
ATOM      7  O   UNL     1      -8.119   3.721 132.105  0.00  0.00    +0.000 OA
BRANCH   7   8
ATOM      8  C   UNL     1      -9.386   4.343 132.257  0.00  0.00    +0.000 C 
BRANCH   8   9
ATOM      9  C   UNL     1      -9.245   5.856 132.320  0.00  0.00    +0.000 C 
BRANCH   9  13
ATOM     10  C   UNL     1     -11.673   7.878 129.462  0.00  0.00    +0.000 A 
ATOM     11  C   UNL     1     -12.176   7.218 130.580  0.00  0.00    +0.000 A 
ATOM     12  N   UNL     1     -11.415   6.566 131.486  0.00  0.00    +0.000 NA
ATOM     13  C   UNL     1     -10.080   6.552 131.274  0.00  0.00    +0.000 A 
ATOM     14  C   UNL     1      -9.507   7.159 130.152  0.00  0.00    +0.000 A 
ATOM     15  C   UNL     1     -10.308   7.822 129.239  0.00  0.00    +0.000 A 
BRANCH  10  17
ATOM     16  C   UNL     1     -13.109   9.880 129.403  0.00  0.00    +0.000 C 
ATOM     17  C   UNL     1     -12.561   8.714 128.593  0.00  0.00    +0.000 C 
ENDBRANCH  10  17
ENDBRANCH   9  13
ENDBRANCH   8   9
ENDBRANCH   7   8
ENDBRANCH   1   7
BRANCH   4  18
ATOM     18  C   UNL     1      -7.154   1.472 126.976  0.00  0.00    +0.000 C 
BRANCH  18  19
ATOM     19  C   UNL     1      -6.863   2.404 125.781  0.00  0.00    +0.000 C 
ATOM     20  S   UNL     1      -5.510   3.643 125.839  0.00  0.00    +0.000 S 
ATOM     21  C   UNL     1      -6.529   4.923 125.200  0.00  0.00    +0.000 C 
ATOM     22  O   UNL     1      -6.161   6.064 125.011  0.00  0.00    +0.000 OA
ATOM     23  N   UNL     1      -7.787   4.462 124.987  0.00  0.00    +0.000 N 
ATOM     24  C   UNL     1      -8.091   3.181 125.341  0.00  0.00    +0.000 C 
ATOM     25  O   UNL     1      -9.224   2.727 125.258  0.00  0.00    +0.000 OA
ATOM     26  H   UNL     1      -8.504   5.087 124.655  0.00  0.00    +0.000 HD
ENDBRANCH  18  19
ENDBRANCH   4  18
TORSDOF 7
ENDMDL
MODEL 6
REMARK VINA RESULT:      -7.0      3.872      7.646
REMARK  Name = Pioglitazone
REMARK  8 active torsions:
REMARK  status: ('A' for Active; 'I' for Inactive)
REMARK    1  A    between atoms: C_1  and  C_2
REMARK    2  A    between atoms: C_2  and  C_3
REMARK    3  A    between atoms: C_6  and  C_7
REMARK    4  A    between atoms: C_7  and  C_8
REMARK    5  A    between atoms: C_8  and  O_9
REMARK    6  A    between atoms: O_9  and  C_10
REMARK    7  A    between atoms: C_13  and  C_14
REMARK    8  A    between atoms: C_14  and  C_15
REMARK                            x       y       z     vdW  Elec       q    Type
REMARK                         _______ _______ _______ _____ _____    ______ ____
ROOT
ATOM      1  C   UNL     1      -7.994  -2.909 127.178  0.00  0.00    +0.000 A 
ATOM      2  C   UNL     1      -6.864  -2.271 126.673  0.00  0.00    +0.000 A 
ATOM      3  C   UNL     1      -6.916  -1.624 125.434  0.00  0.00    +0.000 A 
ATOM      4  C   UNL     1      -8.071  -1.699 124.638  0.00  0.00    +0.000 A 
ATOM      5  C   UNL     1      -9.165  -2.394 125.145  0.00  0.00    +0.000 A 
ATOM      6  C   UNL     1      -9.140  -2.981 126.398  0.00  0.00    +0.000 A 
ENDROOT
BRANCH   1   7
ATOM      7  O   UNL     1      -7.920  -3.337 128.475  0.00  0.00    +0.000 OA
BRANCH   7   8
ATOM      8  C   UNL     1      -6.979  -2.622 129.261  0.00  0.00    +0.000 C 
BRANCH   8   9
ATOM      9  C   UNL     1      -7.594  -2.188 130.583  0.00  0.00    +0.000 C 
BRANCH   9  13
ATOM     10  C   UNL     1      -8.876   1.876 130.615  0.00  0.00    +0.000 A 
ATOM     11  C   UNL     1      -9.113   0.979 131.652  0.00  0.00    +0.000 A 
ATOM     12  N   UNL     1      -8.720  -0.314 131.647  0.00  0.00    +0.000 NA
ATOM     13  C   UNL     1      -8.063  -0.754 130.550  0.00  0.00    +0.000 A 
ATOM     14  C   UNL     1      -7.823   0.080 129.453  0.00  0.00    +0.000 A 
ATOM     15  C   UNL     1      -8.235   1.400 129.483  0.00  0.00    +0.000 A 
BRANCH  10  17
ATOM     16  C   UNL     1     -10.682   3.549 130.509  0.00  0.00    +0.000 C 
ATOM     17  C   UNL     1      -9.198   3.331 130.761  0.00  0.00    +0.000 C 
ENDBRANCH  10  17
ENDBRANCH   9  13
ENDBRANCH   8   9
ENDBRANCH   7   8
ENDBRANCH   1   7
BRANCH   4  18
ATOM     18  C   UNL     1      -8.079  -1.071 123.266  0.00  0.00    +0.000 C 
BRANCH  18  19
ATOM     19  C   UNL     1      -8.288   0.449 123.108  0.00  0.00    +0.000 C 
ATOM     20  S   UNL     1      -7.457   1.651 124.218  0.00  0.00    +0.000 S 
ATOM     21  C   UNL     1      -8.931   2.568 124.482  0.00  0.00    +0.000 C 
ATOM     22  O   UNL     1      -9.012   3.549 125.192  0.00  0.00    +0.000 OA
ATOM     23  N   UNL     1      -9.965   2.001 123.812  0.00  0.00    +0.000 N 
ATOM     24  C   UNL     1      -9.755   0.838 123.133  0.00  0.00    +0.000 C 
ATOM     25  O   UNL     1     -10.659   0.226 122.581  0.00  0.00    +0.000 OA
ATOM     26  H   UNL     1     -10.892   2.388 123.892  0.00  0.00    +0.000 HD
ENDBRANCH  18  19
ENDBRANCH   4  18
TORSDOF 7
ENDMDL
MODEL 7
REMARK VINA RESULT:      -6.9      2.397      3.070
REMARK  Name = Pioglitazone
REMARK  8 active torsions:
REMARK  status: ('A' for Active; 'I' for Inactive)
REMARK    1  A    between atoms: C_1  and  C_2
REMARK    2  A    between atoms: C_2  and  C_3
REMARK    3  A    between atoms: C_6  and  C_7
REMARK    4  A    between atoms: C_7  and  C_8
REMARK    5  A    between atoms: C_8  and  O_9
REMARK    6  A    between atoms: O_9  and  C_10
REMARK    7  A    between atoms: C_13  and  C_14
REMARK    8  A    between atoms: C_14  and  C_15
REMARK                            x       y       z     vdW  Elec       q    Type
REMARK                         _______ _______ _______ _____ _____    ______ ____
ROOT
ATOM      1  C   UNL     1      -8.918  -2.981 126.693  0.00  0.00    +0.000 A 
ATOM      2  C   UNL     1      -8.069  -1.881 126.774  0.00  0.00    +0.000 A 
ATOM      3  C   UNL     1      -7.240  -1.711 127.888  0.00  0.00    +0.000 A 
ATOM      4  C   UNL     1      -7.328  -2.586 128.983  0.00  0.00    +0.000 A 
ATOM      5  C   UNL     1      -8.229  -3.644 128.897  0.00  0.00    +0.000 A 
ATOM      6  C   UNL     1      -9.005  -3.852 127.770  0.00  0.00    +0.000 A 
ENDROOT
BRANCH   1   7
ATOM      7  O   UNL     1      -9.539  -3.182 125.492  0.00  0.00    +0.000 OA
BRANCH   7   8
ATOM      8  C   UNL     1      -8.650  -3.516 124.436  0.00  0.00    +0.000 C 
BRANCH   8   9
ATOM      9  C   UNL     1      -9.092  -2.873 123.130  0.00  0.00    +0.000 C 
BRANCH   9  13
ATOM     10  C   UNL     1      -8.563   1.355 123.185  0.00  0.00    +0.000 A 
ATOM     11  C   UNL     1      -9.781   0.727 122.937  0.00  0.00    +0.000 A 
ATOM     12  N   UNL     1      -9.956  -0.612 122.907  0.00  0.00    +0.000 NA
ATOM     13  C   UNL     1      -8.866  -1.381 123.124  0.00  0.00    +0.000 A 
ATOM     14  C   UNL     1      -7.602  -0.822 123.341  0.00  0.00    +0.000 A 
ATOM     15  C   UNL     1      -7.448   0.553 123.367  0.00  0.00    +0.000 A 
BRANCH  10  17
ATOM     16  C   UNL     1      -7.029   3.283 123.237  0.00  0.00    +0.000 C 
ATOM     17  C   UNL     1      -8.479   2.839 123.362  0.00  0.00    +0.000 C 
ENDBRANCH  10  17
ENDBRANCH   9  13
ENDBRANCH   8   9
ENDBRANCH   7   8
ENDBRANCH   1   7
BRANCH   4  18
ATOM     18  C   UNL     1      -6.491  -2.336 130.213  0.00  0.00    +0.000 C 
BRANCH  18  19
ATOM     19  C   UNL     1      -6.712  -1.064 131.058  0.00  0.00    +0.000 C 
ATOM     20  S   UNL     1      -8.378  -0.320 131.252  0.00  0.00    +0.000 S 
ATOM     21  C   UNL     1      -7.792   1.304 130.926  0.00  0.00    +0.000 C 
ATOM     22  O   UNL     1      -8.492   2.295 130.904  0.00  0.00    +0.000 OA
ATOM     23  N   UNL     1      -6.461   1.282 130.667  0.00  0.00    +0.000 N 
ATOM     24  C   UNL     1      -5.816   0.082 130.624  0.00  0.00    +0.000 C 
ATOM     25  O   UNL     1      -4.637  -0.020 130.311  0.00  0.00    +0.000 OA
ATOM     26  H   UNL     1      -5.980   2.133 130.423  0.00  0.00    +0.000 HD
ENDBRANCH  18  19
ENDBRANCH   4  18
TORSDOF 7
ENDMDL
MODEL 8
REMARK VINA RESULT:      -6.9      7.162     10.665
REMARK  Name = Pioglitazone
REMARK  8 active torsions:
REMARK  status: ('A' for Active; 'I' for Inactive)
REMARK    1  A    between atoms: C_1  and  C_2
REMARK    2  A    between atoms: C_2  and  C_3
REMARK    3  A    between atoms: C_6  and  C_7
REMARK    4  A    between atoms: C_7  and  C_8
REMARK    5  A    between atoms: C_8  and  O_9
REMARK    6  A    between atoms: O_9  and  C_10
REMARK    7  A    between atoms: C_13  and  C_14
REMARK    8  A    between atoms: C_14  and  C_15
REMARK                            x       y       z     vdW  Elec       q    Type
REMARK                         _______ _______ _______ _____ _____    ______ ____
ROOT
ATOM      1  C   UNL     1      -9.437   3.653 131.477  0.00  0.00    +0.000 A 
ATOM      2  C   UNL     1      -9.203   4.788 132.248  0.00  0.00    +0.000 A 
ATOM      3  C   UNL     1     -10.024   5.913 132.114  0.00  0.00    +0.000 A 
ATOM      4  C   UNL     1     -11.026   5.951 131.131  0.00  0.00    +0.000 A 
ATOM      5  C   UNL     1     -11.198   4.822 130.335  0.00  0.00    +0.000 A 
ATOM      6  C   UNL     1     -10.430   3.683 130.507  0.00  0.00    +0.000 A 
ENDROOT
BRANCH   1   7
ATOM      7  O   UNL     1      -8.725   2.535 131.810  0.00  0.00    +0.000 OA
BRANCH   7   8
ATOM      8  C   UNL     1      -8.892   1.456 130.902  0.00  0.00    +0.000 C 
BRANCH   8   9
ATOM      9  C   UNL     1      -8.999   0.133 131.644  0.00  0.00    +0.000 C 
BRANCH   9  13
ATOM     10  C   UNL     1      -6.031  -2.706 130.510  0.00  0.00    +0.000 A 
ATOM     11  C   UNL     1      -5.909  -1.846 131.598  0.00  0.00    +0.000 A 
ATOM     12  N   UNL     1      -6.839  -0.936 131.959  0.00  0.00    +0.000 NA
ATOM     13  C   UNL     1      -7.953  -0.859 131.198  0.00  0.00    +0.000 A 
ATOM     14  C   UNL     1      -8.129  -1.663 130.068  0.00  0.00    +0.000 A 
ATOM     15  C   UNL     1      -7.162  -2.588 129.719  0.00  0.00    +0.000 A 
BRANCH  10  17
ATOM     16  C   UNL     1      -5.538  -5.090 130.891  0.00  0.00    +0.000 C 
ATOM     17  C   UNL     1      -5.034  -3.797 130.269  0.00  0.00    +0.000 C 
ENDBRANCH  10  17
ENDBRANCH   9  13
ENDBRANCH   8   9
ENDBRANCH   7   8
ENDBRANCH   1   7
BRANCH   4  18
ATOM     18  C   UNL     1     -11.844   7.204 130.940  0.00  0.00    +0.000 C 
BRANCH  18  19
ATOM     19  C   UNL     1     -11.881   7.907 129.567  0.00  0.00    +0.000 C 
ATOM     20  S   UNL     1     -13.083   7.412 128.270  0.00  0.00    +0.000 S 
ATOM     21  C   UNL     1     -11.856   7.385 127.013  0.00  0.00    +0.000 C 
ATOM     22  O   UNL     1     -12.067   7.094 125.854  0.00  0.00    +0.000 OA
ATOM     23  N   UNL     1     -10.642   7.695 127.533  0.00  0.00    +0.000 N 
ATOM     24  C   UNL     1     -10.530   7.900 128.875  0.00  0.00    +0.000 C 
ATOM     25  O   UNL     1      -9.454   8.097 129.423  0.00  0.00    +0.000 OA
ATOM     26  H   UNL     1      -9.824   7.686 126.944  0.00  0.00    +0.000 HD
ENDBRANCH  18  19
ENDBRANCH   4  18
TORSDOF 7
ENDMDL
MODEL 9
REMARK VINA RESULT:      -6.8      1.599      2.542
REMARK  Name = Pioglitazone
REMARK  8 active torsions:
REMARK  status: ('A' for Active; 'I' for Inactive)
REMARK    1  A    between atoms: C_1  and  C_2
REMARK    2  A    between atoms: C_2  and  C_3
REMARK    3  A    between atoms: C_6  and  C_7
REMARK    4  A    between atoms: C_7  and  C_8
REMARK    5  A    between atoms: C_8  and  O_9
REMARK    6  A    between atoms: O_9  and  C_10
REMARK    7  A    between atoms: C_13  and  C_14
REMARK    8  A    between atoms: C_14  and  C_15
REMARK                            x       y       z     vdW  Elec       q    Type
REMARK                         _______ _______ _______ _____ _____    ______ ____
ROOT
ATOM      1  C   UNL     1      -9.175  -2.453 125.904  0.00  0.00    +0.000 A 
ATOM      2  C   UNL     1      -8.505  -1.400 126.521  0.00  0.00    +0.000 A 
ATOM      3  C   UNL     1      -7.888  -1.588 127.762  0.00  0.00    +0.000 A 
ATOM      4  C   UNL     1      -8.024  -2.805 128.449  0.00  0.00    +0.000 A 
ATOM      5  C   UNL     1      -8.749  -3.821 127.833  0.00  0.00    +0.000 A 
ATOM      6  C   UNL     1      -9.308  -3.660 126.576  0.00  0.00    +0.000 A 
ENDROOT
BRANCH   1   7
ATOM      7  O   UNL     1      -9.570  -2.247 124.612  0.00  0.00    +0.000 OA
BRANCH   7   8
ATOM      8  C   UNL     1      -8.670  -1.449 123.857  0.00  0.00    +0.000 C 
BRANCH   8   9
ATOM      9  C   UNL     1      -9.369  -0.214 123.309  0.00  0.00    +0.000 C 
BRANCH   9  13
ATOM     10  C   UNL     1      -6.763   3.156 123.402  0.00  0.00    +0.000 A 
ATOM     11  C   UNL     1      -6.521   1.968 124.087  0.00  0.00    +0.000 A 
ATOM     12  N   UNL     1      -7.346   0.898 124.072  0.00  0.00    +0.000 NA
ATOM     13  C   UNL     1      -8.483   1.007 123.348  0.00  0.00    +0.000 A 
ATOM     14  C   UNL     1      -8.812   2.183 122.667  0.00  0.00    +0.000 A 
ATOM     15  C   UNL     1      -7.950   3.265 122.697  0.00  0.00    +0.000 A 
BRANCH  10  17
ATOM     16  C   UNL     1      -5.200   4.344 121.912  0.00  0.00    +0.000 C 
ATOM     17  C   UNL     1      -5.728   4.236 123.335  0.00  0.00    +0.000 C 
ENDBRANCH  10  17
ENDBRANCH   9  13
ENDBRANCH   8   9
ENDBRANCH   7   8
ENDBRANCH   1   7
BRANCH   4  18
ATOM     18  C   UNL     1      -7.428  -2.961 129.826  0.00  0.00    +0.000 C 
BRANCH  18  19
ATOM     19  C   UNL     1      -5.948  -2.603 130.078  0.00  0.00    +0.000 C 
ATOM     20  S   UNL     1      -4.723  -2.581 128.712  0.00  0.00    +0.000 S 
ATOM     21  C   UNL     1      -3.537  -3.489 129.638  0.00  0.00    +0.000 C 
ATOM     22  O   UNL     1      -2.444  -3.814 129.223  0.00  0.00    +0.000 OA
ATOM     23  N   UNL     1      -4.034  -3.803 130.860  0.00  0.00    +0.000 N 
ATOM     24  C   UNL     1      -5.319  -3.463 131.159  0.00  0.00    +0.000 C 
ATOM     25  O   UNL     1      -5.860  -3.790 132.207  0.00  0.00    +0.000 OA
ATOM     26  H   UNL     1      -3.488  -4.358 131.500  0.00  0.00    +0.000 HD
ENDBRANCH  18  19
ENDBRANCH   4  18
TORSDOF 7
ENDMDL
