MODEL 1
REMARK VINA RESULT:      -8.9      0.000      0.000
REMARK  Name = Piperacillin
REMARK  10 active torsions:
REMARK  status: ('A' for Active; 'I' for Inactive)
REMARK    1  A    between atoms: C_4  and  C_5
REMARK    2  A    between atoms: C_4  and  C_6
REMARK    3  A    between atoms: CA_7  and  C_35
REMARK    4  A    between atoms: CA_11  and  N_12
REMARK    5  A    between atoms: C_13  and  CA_15
REMARK    6  A    between atoms: CA_15  and  N_16
REMARK    7  A    between atoms: CA_15  and  C_29
REMARK    8  A    between atoms: N_22  and  C_23
REMARK    9  A    between atoms: C_23  and  C_24
REMARK   10  A    between atoms: C_35  and  O_36
REMARK                            x       y       z     vdW  Elec       q    Type
REMARK                         _______ _______ _______ _____ _____    ______ ____
ROOT
ATOM      1  CA  UNL     1      -6.875   4.566 130.300  0.00  0.00    +0.000 C 
ENDROOT
BRANCH   1   2
ATOM      2  N   UNL     1      -7.881   5.642 130.268  0.00  0.00    +0.000 N 
ATOM      3  C   UNL     1      -9.162   5.377 129.851  0.00  0.00    +0.000 C 
ATOM      4  O   UNL     1      -9.456   4.248 129.457  0.00  0.00    +0.000 OA
ATOM      5  N   UNL     1     -10.049   6.428 129.839  0.00  0.00    +0.000 N 
ATOM      6  C   UNL     1      -9.736   7.767 129.353  0.00  0.00    +0.000 C 
ATOM      7  C   UNL     1     -10.882   8.315 128.487  0.00  0.00    +0.000 C 
ATOM      8  N   UNL     1     -12.140   8.313 129.232  0.00  0.00    +0.000 N 
ATOM      9  C   UNL     1     -12.389   7.268 130.135  0.00  0.00    +0.000 C 
ATOM     10  O   UNL     1     -13.386   7.170 130.839  0.00  0.00    +0.000 OA
ATOM     11  C   UNL     1     -11.335   6.161 130.291  0.00  0.00    +0.000 C 
ATOM     12  O   UNL     1     -11.684   5.137 130.872  0.00  0.00    +0.000 OA
ATOM     13  H   UNL     1      -7.605   6.559 130.584  0.00  0.00    +0.000 HD
BRANCH   8  14
ATOM     14  C   UNL     1     -13.155   9.339 128.912  0.00  0.00    +0.000 C 
ATOM     15  C   UNL     1     -13.251  10.511 129.882  0.00  0.00    +0.000 C 
ENDBRANCH   8  14
ENDBRANCH   1   2
BRANCH   1  16
ATOM     16  C   UNL     1      -5.894   4.781 131.455  0.00  0.00    +0.000 A 
ATOM     17  C   UNL     1      -5.044   3.744 131.875  0.00  0.00    +0.000 A 
ATOM     18  C   UNL     1      -4.265   3.887 133.032  0.00  0.00    +0.000 A 
ATOM     19  C   UNL     1      -4.244   5.095 133.727  0.00  0.00    +0.000 A 
ATOM     20  C   UNL     1      -5.039   6.148 133.297  0.00  0.00    +0.000 A 
ATOM     21  C   UNL     1      -5.861   5.984 132.185  0.00  0.00    +0.000 A 
ENDBRANCH   1  16
BRANCH   1  23
ATOM     22  N   UNL     1      -6.580   3.609 128.008  0.00  0.00    +0.000 N 
ATOM     23  C   UNL     1      -6.156   4.549 128.923  0.00  0.00    +0.000 C 
ATOM     24  O   UNL     1      -5.222   5.308 128.652  0.00  0.00    +0.000 OA
ATOM     25  H   UNL     1      -7.452   3.109 128.168  0.00  0.00    +0.000 HD
BRANCH  22  35
ATOM     26  C   UNL     1      -6.235   2.343 125.780  0.00  0.00    +0.000 C 
ATOM     27  S   UNL     1      -7.784   1.430 126.092  0.00  0.00    +0.000 S 
ATOM     28  C   UNL     1      -8.285   1.620 124.302  0.00  0.00    +0.000 C 
ATOM     29  C   UNL     1      -9.809   1.477 124.254  0.00  0.00    +0.000 C 
ATOM     30  C   UNL     1      -7.562   0.478 123.563  0.00  0.00    +0.000 C 
ATOM     31  CA  UNL     1      -7.820   3.049 123.936  0.00  0.00    +0.000 C 
ATOM     32  N   UNL     1      -6.579   3.289 124.702  0.00  0.00    +0.000 N 
ATOM     33  C   UNL     1      -6.456   4.387 125.520  0.00  0.00    +0.000 C 
ATOM     34  O   UNL     1      -6.828   5.535 125.366  0.00  0.00    +0.000 OA
ATOM     35  CA  UNL     1      -5.891   3.529 126.687  0.00  0.00    +0.000 C 
BRANCH  31  36
ATOM     36  C   UNL     1      -7.630   3.428 122.447  0.00  0.00    +0.000 C 
ATOM     37  OXT UNL     1      -6.533   3.428 121.900  0.00  0.00    +0.000 OA
BRANCH  36  38
ATOM     38  O   UNL     1      -8.702   3.802 121.720  0.00  0.00    +0.000 OA
ATOM     39  H   UNL     1      -8.844   4.730 121.481  0.00  0.00    +0.000 HD
ENDBRANCH  36  38
ENDBRANCH  31  36
ENDBRANCH  22  35
ENDBRANCH   1  23
TORSDOF 7
ENDMDL
MODEL 2
REMARK VINA RESULT:      -8.7      4.414      8.869
REMARK  Name = Piperacillin
REMARK  10 active torsions:
REMARK  status: ('A' for Active; 'I' for Inactive)
REMARK    1  A    between atoms: C_4  and  C_5
REMARK    2  A    between atoms: C_4  and  C_6
REMARK    3  A    between atoms: CA_7  and  C_35
REMARK    4  A    between atoms: CA_11  and  N_12
REMARK    5  A    between atoms: C_13  and  CA_15
REMARK    6  A    between atoms: CA_15  and  N_16
REMARK    7  A    between atoms: CA_15  and  C_29
REMARK    8  A    between atoms: N_22  and  C_23
REMARK    9  A    between atoms: C_23  and  C_24
REMARK   10  A    between atoms: C_35  and  O_36
REMARK                            x       y       z     vdW  Elec       q    Type
REMARK                         _______ _______ _______ _____ _____    ______ ____
ROOT
ATOM      1  CA  UNL     1      -7.048   3.706 124.297  0.00  0.00    +0.000 C 
ENDROOT
BRANCH   1   2
ATOM      2  N   UNL     1      -7.040   2.296 124.725  0.00  0.00    +0.000 N 
ATOM      3  C   UNL     1      -8.218   1.663 125.034  0.00  0.00    +0.000 C 
ATOM      4  O   UNL     1      -9.277   2.290 125.002  0.00  0.00    +0.000 OA
ATOM      5  N   UNL     1      -8.139   0.349 125.433  0.00  0.00    +0.000 N 
ATOM      6  C   UNL     1      -7.143  -0.173 126.362  0.00  0.00    +0.000 C 
ATOM      7  C   UNL     1      -7.793  -1.124 127.381  0.00  0.00    +0.000 C 
ATOM      8  N   UNL     1      -8.491  -2.213 126.700  0.00  0.00    +0.000 N 
ATOM      9  C   UNL     1      -9.141  -1.944 125.486  0.00  0.00    +0.000 C 
ATOM     10  O   UNL     1      -9.732  -2.774 124.806  0.00  0.00    +0.000 OA
ATOM     11  C   UNL     1      -9.106  -0.512 124.931  0.00  0.00    +0.000 C 
ATOM     12  O   UNL     1      -9.892  -0.245 124.026  0.00  0.00    +0.000 OA
ATOM     13  H   UNL     1      -6.155   1.815 124.755  0.00  0.00    +0.000 HD
BRANCH   8  14
ATOM     14  C   UNL     1      -8.595  -3.522 127.379  0.00  0.00    +0.000 C 
ATOM     15  C   UNL     1      -8.483  -3.497 128.899  0.00  0.00    +0.000 C 
ENDBRANCH   8  14
ENDBRANCH   1   2
BRANCH   1  16
ATOM     16  C   UNL     1      -6.421   3.851 122.908  0.00  0.00    +0.000 A 
ATOM     17  C   UNL     1      -5.147   4.421 122.753  0.00  0.00    +0.000 A 
ATOM     18  C   UNL     1      -4.643   4.703 121.475  0.00  0.00    +0.000 A 
ATOM     19  C   UNL     1      -5.354   4.331 120.336  0.00  0.00    +0.000 A 
ATOM     20  C   UNL     1      -6.593   3.720 120.469  0.00  0.00    +0.000 A 
ATOM     21  C   UNL     1      -7.121   3.499 121.739  0.00  0.00    +0.000 A 
ENDBRANCH   1  16
BRANCH   1  23
ATOM     22  N   UNL     1      -5.525   3.823 126.279  0.00  0.00    +0.000 N 
ATOM     23  C   UNL     1      -6.281   4.530 125.367  0.00  0.00    +0.000 C 
ATOM     24  O   UNL     1      -6.357   5.760 125.441  0.00  0.00    +0.000 OA
ATOM     25  H   UNL     1      -5.328   2.839 126.111  0.00  0.00    +0.000 HD
BRANCH  22  35
ATOM     26  C   UNL     1      -5.511   4.736 128.698  0.00  0.00    +0.000 C 
ATOM     27  S   UNL     1      -6.891   3.610 129.099  0.00  0.00    +0.000 S 
ATOM     28  C   UNL     1      -6.096   3.180 130.736  0.00  0.00    +0.000 C 
ATOM     29  C   UNL     1      -6.658   1.820 131.153  0.00  0.00    +0.000 C 
ATOM     30  C   UNL     1      -6.517   4.313 131.691  0.00  0.00    +0.000 C 
ATOM     31  CA  UNL     1      -4.585   3.114 130.407  0.00  0.00    +0.000 C 
ATOM     32  N   UNL     1      -4.342   4.135 129.366  0.00  0.00    +0.000 N 
ATOM     33  C   UNL     1      -3.736   3.801 128.179  0.00  0.00    +0.000 C 
ATOM     34  O   UNL     1      -2.811   3.046 127.946  0.00  0.00    +0.000 OA
ATOM     35  CA  UNL     1      -4.803   4.570 127.349  0.00  0.00    +0.000 C 
BRANCH  31  36
ATOM     36  C   UNL     1      -3.553   3.240 131.554  0.00  0.00    +0.000 C 
ATOM     37  OXT UNL     1      -3.392   2.365 132.398  0.00  0.00    +0.000 OA
BRANCH  36  38
ATOM     38  O   UNL     1      -2.813   4.362 131.655  0.00  0.00    +0.000 OA
ATOM     39  H   UNL     1      -2.748   4.985 130.915  0.00  0.00    +0.000 HD
ENDBRANCH  36  38
ENDBRANCH  31  36
ENDBRANCH  22  35
ENDBRANCH   1  23
TORSDOF 7
ENDMDL
MODEL 3
REMARK VINA RESULT:      -8.4      2.245      2.659
REMARK  Name = Piperacillin
REMARK  10 active torsions:
REMARK  status: ('A' for Active; 'I' for Inactive)
REMARK    1  A    between atoms: C_4  and  C_5
REMARK    2  A    between atoms: C_4  and  C_6
REMARK    3  A    between atoms: CA_7  and  C_35
REMARK    4  A    between atoms: CA_11  and  N_12
REMARK    5  A    between atoms: C_13  and  CA_15
REMARK    6  A    between atoms: CA_15  and  N_16
REMARK    7  A    between atoms: CA_15  and  C_29
REMARK    8  A    between atoms: N_22  and  C_23
REMARK    9  A    between atoms: C_23  and  C_24
REMARK   10  A    between atoms: C_35  and  O_36
REMARK                            x       y       z     vdW  Elec       q    Type
REMARK                         _______ _______ _______ _____ _____    ______ ____
ROOT
ATOM      1  CA  UNL     1      -6.814   4.573 129.981  0.00  0.00    +0.000 C 
ENDROOT
BRANCH   1   2
ATOM      2  N   UNL     1      -7.819   5.650 130.026  0.00  0.00    +0.000 N 
ATOM      3  C   UNL     1      -9.133   5.380 129.733  0.00  0.00    +0.000 C 
ATOM      4  O   UNL     1      -9.462   4.246 129.384  0.00  0.00    +0.000 OA
ATOM      5  N   UNL     1     -10.018   6.431 129.788  0.00  0.00    +0.000 N 
ATOM      6  C   UNL     1      -9.751   7.763 129.257  0.00  0.00    +0.000 C 
ATOM      7  C   UNL     1     -10.972   8.300 128.492  0.00  0.00    +0.000 C 
ATOM      8  N   UNL     1     -12.156   8.310 129.350  0.00  0.00    +0.000 N 
ATOM      9  C   UNL     1     -12.320   7.278 130.286  0.00  0.00    +0.000 C 
ATOM     10  O   UNL     1     -13.249   7.191 131.081  0.00  0.00    +0.000 OA
ATOM     11  C   UNL     1     -11.256   6.172 130.360  0.00  0.00    +0.000 C 
ATOM     12  O   UNL     1     -11.550   5.157 130.986  0.00  0.00    +0.000 OA
ATOM     13  H   UNL     1      -7.515   6.571 130.302  0.00  0.00    +0.000 HD
BRANCH   8  14
ATOM     14  C   UNL     1     -13.196   9.332 129.110  0.00  0.00    +0.000 C 
ATOM     15  C   UNL     1     -13.204  10.517 130.069  0.00  0.00    +0.000 C 
ENDBRANCH   8  14
ENDBRANCH   1   2
BRANCH   1  16
ATOM     16  C   UNL     1      -5.509   5.027 130.639  0.00  0.00    +0.000 A 
ATOM     17  C   UNL     1      -5.371   6.336 131.128  0.00  0.00    +0.000 A 
ATOM     18  C   UNL     1      -4.127   6.800 131.580  0.00  0.00    +0.000 A 
ATOM     19  C   UNL     1      -3.032   5.941 131.646  0.00  0.00    +0.000 A 
ATOM     20  C   UNL     1      -3.163   4.629 131.214  0.00  0.00    +0.000 A 
ATOM     21  C   UNL     1      -4.382   4.187 130.705  0.00  0.00    +0.000 A 
ENDBRANCH   1  16
BRANCH   1  23
ATOM     22  N   UNL     1      -6.950   2.895 128.130  0.00  0.00    +0.000 N 
ATOM     23  C   UNL     1      -6.607   4.181 128.492  0.00  0.00    +0.000 C 
ATOM     24  O   UNL     1      -6.126   4.956 127.661  0.00  0.00    +0.000 OA
ATOM     25  H   UNL     1      -7.501   2.325 128.768  0.00  0.00    +0.000 HD
BRANCH  22  35
ATOM     26  C   UNL     1      -6.204   1.042 126.489  0.00  0.00    +0.000 C 
ATOM     27  S   UNL     1      -6.379  -0.179 127.835  0.00  0.00    +0.000 S 
ATOM     28  C   UNL     1      -7.181  -1.393 126.662  0.00  0.00    +0.000 C 
ATOM     29  C   UNL     1      -8.004  -2.356 127.521  0.00  0.00    +0.000 C 
ATOM     30  C   UNL     1      -6.007  -2.092 125.949  0.00  0.00    +0.000 C 
ATOM     31  CA  UNL     1      -8.072  -0.505 125.762  0.00  0.00    +0.000 C 
ATOM     32  N   UNL     1      -7.354   0.777 125.604  0.00  0.00    +0.000 N 
ATOM     33  C   UNL     1      -7.965   1.970 125.911  0.00  0.00    +0.000 C 
ATOM     34  O   UNL     1      -9.105   2.348 125.720  0.00  0.00    +0.000 OA
ATOM     35  CA  UNL     1      -6.732   2.462 126.719  0.00  0.00    +0.000 C 
BRANCH  31  36
ATOM     36  C   UNL     1      -8.543  -1.045 124.389  0.00  0.00    +0.000 C 
ATOM     37  OXT UNL     1      -9.455  -1.856 124.275  0.00  0.00    +0.000 OA
BRANCH  36  38
ATOM     38  O   UNL     1      -7.915  -0.635 123.269  0.00  0.00    +0.000 OA
ATOM     39  H   UNL     1      -8.251   0.114 122.754  0.00  0.00    +0.000 HD
ENDBRANCH  36  38
ENDBRANCH  31  36
ENDBRANCH  22  35
ENDBRANCH   1  23
TORSDOF 7
ENDMDL
MODEL 4
REMARK VINA RESULT:      -8.4      2.098      2.728
REMARK  Name = Piperacillin
REMARK  10 active torsions:
REMARK  status: ('A' for Active; 'I' for Inactive)
REMARK    1  A    between atoms: C_4  and  C_5
REMARK    2  A    between atoms: C_4  and  C_6
REMARK    3  A    between atoms: CA_7  and  C_35
REMARK    4  A    between atoms: CA_11  and  N_12
REMARK    5  A    between atoms: C_13  and  CA_15
REMARK    6  A    between atoms: CA_15  and  N_16
REMARK    7  A    between atoms: CA_15  and  C_29
REMARK    8  A    between atoms: N_22  and  C_23
REMARK    9  A    between atoms: C_23  and  C_24
REMARK   10  A    between atoms: C_35  and  O_36
REMARK                            x       y       z     vdW  Elec       q    Type
REMARK                         _______ _______ _______ _____ _____    ______ ____
ROOT
ATOM      1  CA  UNL     1      -4.369   3.806 129.978  0.00  0.00    +0.000 C 
ENDROOT
BRANCH   1   2
ATOM      2  N   UNL     1      -5.635   4.553 130.075  0.00  0.00    +0.000 N 
ATOM      3  C   UNL     1      -6.571   4.204 131.016  0.00  0.00    +0.000 C 
ATOM      4  O   UNL     1      -6.372   3.234 131.747  0.00  0.00    +0.000 OA
ATOM      5  N   UNL     1      -7.734   4.938 131.049  0.00  0.00    +0.000 N 
ATOM      6  C   UNL     1      -8.483   5.349 129.867  0.00  0.00    +0.000 C 
ATOM      7  C   UNL     1      -9.991   5.136 130.077  0.00  0.00    +0.000 C 
ATOM      8  N   UNL     1     -10.456   5.854 131.263  0.00  0.00    +0.000 N 
ATOM      9  C   UNL     1      -9.605   5.942 132.375  0.00  0.00    +0.000 C 
ATOM     10  O   UNL     1      -9.863   6.540 133.412  0.00  0.00    +0.000 OA
ATOM     11  C   UNL     1      -8.226   5.267 132.305  0.00  0.00    +0.000 C 
ATOM     12  O   UNL     1      -7.619   5.129 133.364  0.00  0.00    +0.000 OA
ATOM     13  H   UNL     1      -5.774   5.334 129.452  0.00  0.00    +0.000 HD
BRANCH   8  14
ATOM     14  C   UNL     1     -11.849   6.345 131.293  0.00  0.00    +0.000 C 
ATOM     15  C   UNL     1     -12.159   7.535 130.390  0.00  0.00    +0.000 C 
ENDBRANCH   8  14
ENDBRANCH   1   2
BRANCH   1  16
ATOM     16  C   UNL     1      -3.256   4.532 130.737  0.00  0.00    +0.000 A 
ATOM     17  C   UNL     1      -2.787   4.038 131.966  0.00  0.00    +0.000 A 
ATOM     18  C   UNL     1      -1.888   4.786 132.738  0.00  0.00    +0.000 A 
ATOM     19  C   UNL     1      -1.366   5.985 132.254  0.00  0.00    +0.000 A 
ATOM     20  C   UNL     1      -1.778   6.463 131.019  0.00  0.00    +0.000 A 
ATOM     21  C   UNL     1      -2.721   5.751 130.282  0.00  0.00    +0.000 A 
ENDBRANCH   1  16
BRANCH   1  23
ATOM     22  N   UNL     1      -4.976   4.076 127.566  0.00  0.00    +0.000 N 
ATOM     23  C   UNL     1      -4.030   3.643 128.470  0.00  0.00    +0.000 C 
ATOM     24  O   UNL     1      -2.983   3.120 128.077  0.00  0.00    +0.000 OA
ATOM     25  H   UNL     1      -5.748   4.656 127.886  0.00  0.00    +0.000 HD
BRANCH  22  35
ATOM     26  C   UNL     1      -5.238   2.629 125.439  0.00  0.00    +0.000 C 
ATOM     27  S   UNL     1      -6.566   1.695 126.273  0.00  0.00    +0.000 S 
ATOM     28  C   UNL     1      -7.591   1.707 124.710  0.00  0.00    +0.000 C 
ATOM     29  C   UNL     1      -9.047   1.508 125.137  0.00  0.00    +0.000 C 
ATOM     30  C   UNL     1      -7.054   0.529 123.874  0.00  0.00    +0.000 C 
ATOM     31  CA  UNL     1      -7.342   3.113 124.115  0.00  0.00    +0.000 C 
ATOM     32  N   UNL     1      -5.945   3.464 124.449  0.00  0.00    +0.000 N 
ATOM     33  C   UNL     1      -5.649   4.633 125.107  0.00  0.00    +0.000 C 
ATOM     34  O   UNL     1      -6.118   5.750 124.987  0.00  0.00    +0.000 OA
ATOM     35  CA  UNL     1      -4.711   3.903 126.108  0.00  0.00    +0.000 C 
BRANCH  31  36
ATOM     36  C   UNL     1      -7.630   3.365 122.615  0.00  0.00    +0.000 C 
ATOM     37  OXT UNL     1      -6.738   3.500 121.784  0.00  0.00    +0.000 OA
BRANCH  36  38
ATOM     38  O   UNL     1      -8.907   3.468 122.196  0.00  0.00    +0.000 OA
ATOM     39  H   UNL     1      -9.555   3.987 122.695  0.00  0.00    +0.000 HD
ENDBRANCH  36  38
ENDBRANCH  31  36
ENDBRANCH  22  35
ENDBRANCH   1  23
TORSDOF 7
ENDMDL
MODEL 5
REMARK VINA RESULT:      -8.1      3.058      8.690
REMARK  Name = Piperacillin
REMARK  10 active torsions:
REMARK  status: ('A' for Active; 'I' for Inactive)
REMARK    1  A    between atoms: C_4  and  C_5
REMARK    2  A    between atoms: C_4  and  C_6
REMARK    3  A    between atoms: CA_7  and  C_35
REMARK    4  A    between atoms: CA_11  and  N_12
REMARK    5  A    between atoms: C_13  and  CA_15
REMARK    6  A    between atoms: CA_15  and  N_16
REMARK    7  A    between atoms: CA_15  and  C_29
REMARK    8  A    between atoms: N_22  and  C_23
REMARK    9  A    between atoms: C_23  and  C_24
REMARK   10  A    between atoms: C_35  and  O_36
REMARK                            x       y       z     vdW  Elec       q    Type
REMARK                         _______ _______ _______ _____ _____    ______ ____
ROOT
ATOM      1  CA  UNL     1      -6.486   1.586 126.388  0.00  0.00    +0.000 C 
ENDROOT
BRANCH   1   2
ATOM      2  N   UNL     1      -6.736   1.782 124.949  0.00  0.00    +0.000 N 
ATOM      3  C   UNL     1      -6.565   3.020 124.381  0.00  0.00    +0.000 C 
ATOM      4  O   UNL     1      -6.250   3.978 125.087  0.00  0.00    +0.000 OA
ATOM      5  N   UNL     1      -6.823   3.135 123.035  0.00  0.00    +0.000 N 
ATOM      6  C   UNL     1      -7.968   2.535 122.360  0.00  0.00    +0.000 C 
ATOM      7  C   UNL     1      -8.602   3.532 121.375  0.00  0.00    +0.000 C 
ATOM      8  N   UNL     1      -7.614   4.001 120.405  0.00  0.00    +0.000 N 
ATOM      9  C   UNL     1      -6.290   4.189 120.828  0.00  0.00    +0.000 C 
ATOM     10  O   UNL     1      -5.366   4.548 120.108  0.00  0.00    +0.000 OA
ATOM     11  C   UNL     1      -5.937   3.909 122.297  0.00  0.00    +0.000 C 
ATOM     12  O   UNL     1      -4.856   4.330 122.701  0.00  0.00    +0.000 OA
ATOM     13  H   UNL     1      -7.007   0.979 124.402  0.00  0.00    +0.000 HD
BRANCH   8  14
ATOM     14  C   UNL     1      -8.073   4.383 119.054  0.00  0.00    +0.000 C 
ATOM     15  C   UNL     1      -9.578   4.317 118.815  0.00  0.00    +0.000 C 
ENDBRANCH   8  14
ENDBRANCH   1   2
BRANCH   1  16
ATOM     16  C   UNL     1      -5.983   0.166 126.658  0.00  0.00    +0.000 A 
ATOM     17  C   UNL     1      -5.945  -0.789 125.629  0.00  0.00    +0.000 A 
ATOM     18  C   UNL     1      -5.640  -2.128 125.911  0.00  0.00    +0.000 A 
ATOM     19  C   UNL     1      -5.274  -2.516 127.199  0.00  0.00    +0.000 A 
ATOM     20  C   UNL     1      -5.256  -1.575 128.218  0.00  0.00    +0.000 A 
ATOM     21  C   UNL     1      -5.621  -0.258 127.951  0.00  0.00    +0.000 A 
ENDBRANCH   1  16
BRANCH   1  23
ATOM     22  N   UNL     1      -7.699   2.336 128.443  0.00  0.00    +0.000 N 
ATOM     23  C   UNL     1      -7.809   1.885 127.144  0.00  0.00    +0.000 C 
ATOM     24  O   UNL     1      -8.920   1.703 126.639  0.00  0.00    +0.000 OA
ATOM     25  H   UNL     1      -6.795   2.646 128.792  0.00  0.00    +0.000 HD
BRANCH  22  35
ATOM     26  C   UNL     1      -8.853   2.525 130.749  0.00  0.00    +0.000 C 
ATOM     27  S   UNL     1      -7.208   2.657 131.529  0.00  0.00    +0.000 S 
ATOM     28  C   UNL     1      -7.825   4.011 132.660  0.00  0.00    +0.000 C 
ATOM     29  C   UNL     1      -6.595   4.805 133.106  0.00  0.00    +0.000 C 
ATOM     30  C   UNL     1      -8.507   3.273 133.827  0.00  0.00    +0.000 C 
ATOM     31  CA  UNL     1      -8.765   4.846 131.759  0.00  0.00    +0.000 C 
ATOM     32  N   UNL     1      -9.406   3.890 130.831  0.00  0.00    +0.000 N 
ATOM     33  C   UNL     1      -9.346   4.080 129.471  0.00  0.00    +0.000 C 
ATOM     34  O   UNL     1      -9.430   5.097 128.808  0.00  0.00    +0.000 OA
ATOM     35  CA  UNL     1      -8.945   2.599 129.222  0.00  0.00    +0.000 C 
BRANCH  31  36
ATOM     36  C   UNL     1      -9.821   5.769 132.414  0.00  0.00    +0.000 C 
ATOM     37  OXT UNL     1      -9.548   6.546 133.322  0.00  0.00    +0.000 OA
BRANCH  36  38
ATOM     38  O   UNL     1     -11.101   5.709 131.995  0.00  0.00    +0.000 OA
ATOM     39  H   UNL     1     -11.833   5.921 132.594  0.00  0.00    +0.000 HD
ENDBRANCH  36  38
ENDBRANCH  31  36
ENDBRANCH  22  35
ENDBRANCH   1  23
TORSDOF 7
ENDMDL
MODEL 6
REMARK VINA RESULT:      -7.9      5.190      9.545
REMARK  Name = Piperacillin
REMARK  10 active torsions:
REMARK  status: ('A' for Active; 'I' for Inactive)
REMARK    1  A    between atoms: C_4  and  C_5
REMARK    2  A    between atoms: C_4  and  C_6
REMARK    3  A    between atoms: CA_7  and  C_35
REMARK    4  A    between atoms: CA_11  and  N_12
REMARK    5  A    between atoms: C_13  and  CA_15
REMARK    6  A    between atoms: CA_15  and  N_16
REMARK    7  A    between atoms: CA_15  and  C_29
REMARK    8  A    between atoms: N_22  and  C_23
REMARK    9  A    between atoms: C_23  and  C_24
REMARK   10  A    between atoms: C_35  and  O_36
REMARK                            x       y       z     vdW  Elec       q    Type
REMARK                         _______ _______ _______ _____ _____    ______ ____
ROOT
ATOM      1  CA  UNL     1      -6.459  -1.442 131.222  0.00  0.00    +0.000 C 
ENDROOT
BRANCH   1   2
ATOM      2  N   UNL     1      -6.891  -2.139 129.998  0.00  0.00    +0.000 N 
ATOM      3  C   UNL     1      -6.787  -1.519 128.778  0.00  0.00    +0.000 C 
ATOM      4  O   UNL     1      -6.378  -0.360 128.713  0.00  0.00    +0.000 OA
ATOM      5  N   UNL     1      -7.215  -2.223 127.676  0.00  0.00    +0.000 N 
ATOM      6  C   UNL     1      -8.442  -3.011 127.626  0.00  0.00    +0.000 C 
ATOM      7  C   UNL     1      -9.192  -2.767 126.306  0.00  0.00    +0.000 C 
ATOM      8  N   UNL     1      -8.333  -3.067 125.160  0.00  0.00    +0.000 N 
ATOM      9  C   UNL     1      -6.965  -2.772 125.247  0.00  0.00    +0.000 C 
ATOM     10  O   UNL     1      -6.139  -3.004 124.372  0.00  0.00    +0.000 OA
ATOM     11  C   UNL     1      -6.427  -2.133 126.536  0.00  0.00    +0.000 C 
ATOM     12  O   UNL     1      -5.301  -1.646 126.490  0.00  0.00    +0.000 OA
ATOM     13  H   UNL     1      -7.236  -3.082 130.087  0.00  0.00    +0.000 HD
BRANCH   8  14
ATOM     14  C   UNL     1      -8.961  -3.547 123.911  0.00  0.00    +0.000 C 
ATOM     15  C   UNL     1      -9.338  -2.473 122.897  0.00  0.00    +0.000 C 
ENDBRANCH   8  14
ENDBRANCH   1   2
BRANCH   1  16
ATOM     16  C   UNL     1      -5.889  -2.437 132.236  0.00  0.00    +0.000 A 
ATOM     17  C   UNL     1      -6.149  -3.812 132.114  0.00  0.00    +0.000 A 
ATOM     18  C   UNL     1      -5.767  -4.701 133.127  0.00  0.00    +0.000 A 
ATOM     19  C   UNL     1      -5.035  -4.252 134.225  0.00  0.00    +0.000 A 
ATOM     20  C   UNL     1      -4.725  -2.905 134.337  0.00  0.00    +0.000 A 
ATOM     21  C   UNL     1      -5.161  -2.011 133.362  0.00  0.00    +0.000 A 
ENDBRANCH   1  16
BRANCH   1  23
ATOM     22  N   UNL     1      -7.969   0.553 131.229  0.00  0.00    +0.000 N 
ATOM     23  C   UNL     1      -7.686  -0.675 131.789  0.00  0.00    +0.000 C 
ATOM     24  O   UNL     1      -8.368  -1.109 132.721  0.00  0.00    +0.000 OA
ATOM     25  H   UNL     1      -7.518   0.824 130.359  0.00  0.00    +0.000 HD
BRANCH  22  35
ATOM     26  C   UNL     1      -8.825   2.313 132.919  0.00  0.00    +0.000 C 
ATOM     27  S   UNL     1      -7.100   2.842 133.197  0.00  0.00    +0.000 S 
ATOM     28  C   UNL     1      -7.622   4.636 133.180  0.00  0.00    +0.000 C 
ATOM     29  C   UNL     1      -6.378   5.452 132.819  0.00  0.00    +0.000 C 
ATOM     30  C   UNL     1      -8.119   4.919 134.611  0.00  0.00    +0.000 C 
ATOM     31  CA  UNL     1      -8.703   4.698 132.076  0.00  0.00    +0.000 C 
ATOM     32  N   UNL     1      -9.418   3.405 132.123  0.00  0.00    +0.000 N 
ATOM     33  C   UNL     1      -9.540   2.624 130.999  0.00  0.00    +0.000 C 
ATOM     34  O   UNL     1      -9.749   2.931 129.840  0.00  0.00    +0.000 OA
ATOM     35  CA  UNL     1      -9.114   1.343 131.769  0.00  0.00    +0.000 C 
BRANCH  31  36
ATOM     36  C   UNL     1      -9.702   5.879 132.056  0.00  0.00    +0.000 C 
ATOM     37  OXT UNL     1      -9.458   6.943 131.497  0.00  0.00    +0.000 OA
BRANCH  36  38
ATOM     38  O   UNL     1     -10.882   5.757 132.698  0.00  0.00    +0.000 OA
ATOM     39  H   UNL     1     -11.564   5.148 132.376  0.00  0.00    +0.000 HD
ENDBRANCH  36  38
ENDBRANCH  31  36
ENDBRANCH  22  35
ENDBRANCH   1  23
TORSDOF 7
ENDMDL
MODEL 7
REMARK VINA RESULT:      -7.9      3.494      6.498
REMARK  Name = Piperacillin
REMARK  10 active torsions:
REMARK  status: ('A' for Active; 'I' for Inactive)
REMARK    1  A    between atoms: C_4  and  C_5
REMARK    2  A    between atoms: C_4  and  C_6
REMARK    3  A    between atoms: CA_7  and  C_35
REMARK    4  A    between atoms: CA_11  and  N_12
REMARK    5  A    between atoms: C_13  and  CA_15
REMARK    6  A    between atoms: CA_15  and  N_16
REMARK    7  A    between atoms: CA_15  and  C_29
REMARK    8  A    between atoms: N_22  and  C_23
REMARK    9  A    between atoms: C_23  and  C_24
REMARK   10  A    between atoms: C_35  and  O_36
REMARK                            x       y       z     vdW  Elec       q    Type
REMARK                         _______ _______ _______ _____ _____    ______ ____
ROOT
ATOM      1  CA  UNL     1      -7.376   4.147 130.413  0.00  0.00    +0.000 C 
ENDROOT
BRANCH   1   2
ATOM      2  N   UNL     1      -7.540   2.703 130.657  0.00  0.00    +0.000 N 
ATOM      3  C   UNL     1      -6.720   2.057 131.548  0.00  0.00    +0.000 C 
ATOM      4  O   UNL     1      -5.814   2.675 132.106  0.00  0.00    +0.000 OA
ATOM      5  N   UNL     1      -6.922   0.708 131.724  0.00  0.00    +0.000 N 
ATOM      6  C   UNL     1      -7.168  -0.238 130.640  0.00  0.00    +0.000 C 
ATOM      7  C   UNL     1      -6.348  -1.523 130.843  0.00  0.00    +0.000 C 
ATOM      8  N   UNL     1      -6.647  -2.129 132.140  0.00  0.00    +0.000 N 
ATOM      9  C   UNL     1      -6.905  -1.289 133.233  0.00  0.00    +0.000 C 
ATOM     10  O   UNL     1      -7.198  -1.671 134.360  0.00  0.00    +0.000 OA
ATOM     11  C   UNL     1      -6.847   0.232 133.026  0.00  0.00    +0.000 C 
ATOM     12  O   UNL     1      -6.811   0.932 134.036  0.00  0.00    +0.000 OA
ATOM     13  H   UNL     1      -8.282   2.222 130.173  0.00  0.00    +0.000 HD
BRANCH   8  14
ATOM     14  C   UNL     1      -6.539  -3.596 132.279  0.00  0.00    +0.000 C 
ATOM     15  C   UNL     1      -5.170  -4.197 131.980  0.00  0.00    +0.000 C 
ENDBRANCH   8  14
ENDBRANCH   1   2
BRANCH   1  16
ATOM     16  C   UNL     1      -8.738   4.844 130.370  0.00  0.00    +0.000 A 
ATOM     17  C   UNL     1      -8.829   6.244 130.434  0.00  0.00    +0.000 A 
ATOM     18  C   UNL     1     -10.076   6.872 130.558  0.00  0.00    +0.000 A 
ATOM     19  C   UNL     1     -11.252   6.125 130.521  0.00  0.00    +0.000 A 
ATOM     20  C   UNL     1     -11.184   4.744 130.407  0.00  0.00    +0.000 A 
ATOM     21  C   UNL     1      -9.942   4.116 130.348  0.00  0.00    +0.000 A 
ENDBRANCH   1  16
BRANCH   1  23
ATOM     22  N   UNL     1      -6.874   3.416 128.074  0.00  0.00    +0.000 N 
ATOM     23  C   UNL     1      -6.596   4.317 129.081  0.00  0.00    +0.000 C 
ATOM     24  O   UNL     1      -5.738   5.188 128.919  0.00  0.00    +0.000 OA
ATOM     25  H   UNL     1      -7.693   2.818 128.148  0.00  0.00    +0.000 HD
BRANCH  22  35
ATOM     26  C   UNL     1      -6.230   2.342 125.812  0.00  0.00    +0.000 C 
ATOM     27  S   UNL     1      -7.629   1.185 125.996  0.00  0.00    +0.000 S 
ATOM     28  C   UNL     1      -8.070   1.392 124.192  0.00  0.00    +0.000 C 
ATOM     29  C   UNL     1      -9.548   1.018 124.055  0.00  0.00    +0.000 C 
ATOM     30  C   UNL     1      -7.141   0.418 123.442  0.00  0.00    +0.000 C 
ATOM     31  CA  UNL     1      -7.819   2.894 123.919  0.00  0.00    +0.000 C 
ATOM     32  N   UNL     1      -6.668   3.281 124.762  0.00  0.00    +0.000 N 
ATOM     33  C   UNL     1      -6.758   4.338 125.636  0.00  0.00    +0.000 C 
ATOM     34  O   UNL     1      -7.298   5.422 125.515  0.00  0.00    +0.000 OA
ATOM     35  CA  UNL     1      -6.120   3.516 126.790  0.00  0.00    +0.000 C 
BRANCH  31  36
ATOM     36  C   UNL     1      -7.622   3.378 122.462  0.00  0.00    +0.000 C 
ATOM     37  OXT UNL     1      -6.520   3.433 121.927  0.00  0.00    +0.000 OA
BRANCH  36  38
ATOM     38  O   UNL     1      -8.693   3.785 121.751  0.00  0.00    +0.000 OA
ATOM     39  H   UNL     1      -9.584   3.477 121.973  0.00  0.00    +0.000 HD
ENDBRANCH  36  38
ENDBRANCH  31  36
ENDBRANCH  22  35
ENDBRANCH   1  23
TORSDOF 7
ENDMDL
MODEL 8
REMARK VINA RESULT:      -7.8      5.075      9.714
REMARK  Name = Piperacillin
REMARK  10 active torsions:
REMARK  status: ('A' for Active; 'I' for Inactive)
REMARK    1  A    between atoms: C_4  and  C_5
REMARK    2  A    between atoms: C_4  and  C_6
REMARK    3  A    between atoms: CA_7  and  C_35
REMARK    4  A    between atoms: CA_11  and  N_12
REMARK    5  A    between atoms: C_13  and  CA_15
REMARK    6  A    between atoms: CA_15  and  N_16
REMARK    7  A    between atoms: CA_15  and  C_29
REMARK    8  A    between atoms: N_22  and  C_23
REMARK    9  A    between atoms: C_23  and  C_24
REMARK   10  A    between atoms: C_35  and  O_36
REMARK                            x       y       z     vdW  Elec       q    Type
REMARK                         _______ _______ _______ _____ _____    ______ ____
ROOT
ATOM      1  CA  UNL     1      -6.176  -0.492 126.506  0.00  0.00    +0.000 C 
ENDROOT
BRANCH   1   2
ATOM      2  N   UNL     1      -5.313  -0.916 127.622  0.00  0.00    +0.000 N 
ATOM      3  C   UNL     1      -5.867  -1.464 128.752  0.00  0.00    +0.000 C 
ATOM      4  O   UNL     1      -7.091  -1.554 128.852  0.00  0.00    +0.000 OA
ATOM      5  N   UNL     1      -5.006  -1.833 129.760  0.00  0.00    +0.000 N 
ATOM      6  C   UNL     1      -3.874  -1.032 130.212  0.00  0.00    +0.000 C 
ATOM      7  C   UNL     1      -3.800  -1.012 131.748  0.00  0.00    +0.000 C 
ATOM      8  N   UNL     1      -3.720  -2.372 132.279  0.00  0.00    +0.000 N 
ATOM      9  C   UNL     1      -4.431  -3.393 131.630  0.00  0.00    +0.000 C 
ATOM     10  O   UNL     1      -4.421  -4.574 131.957  0.00  0.00    +0.000 OA
ATOM     11  C   UNL     1      -5.275  -3.037 130.397  0.00  0.00    +0.000 C 
ATOM     12  O   UNL     1      -6.085  -3.877 130.015  0.00  0.00    +0.000 OA
ATOM     13  H   UNL     1      -4.316  -0.816 127.515  0.00  0.00    +0.000 HD
BRANCH   8  14
ATOM     14  C   UNL     1      -3.002  -2.595 133.551  0.00  0.00    +0.000 C 
ATOM     15  C   UNL     1      -1.993  -1.521 133.947  0.00  0.00    +0.000 C 
ENDBRANCH   8  14
ENDBRANCH   1   2
BRANCH   1  16
ATOM     16  C   UNL     1      -5.973  -1.402 125.292  0.00  0.00    +0.000 A 
ATOM     17  C   UNL     1      -5.234  -2.591 125.404  0.00  0.00    +0.000 A 
ATOM     18  C   UNL     1      -4.911  -3.339 124.263  0.00  0.00    +0.000 A 
ATOM     19  C   UNL     1      -5.401  -2.970 123.012  0.00  0.00    +0.000 A 
ATOM     20  C   UNL     1      -6.176  -1.825 122.889  0.00  0.00    +0.000 A 
ATOM     21  C   UNL     1      -6.443  -1.048 124.014  0.00  0.00    +0.000 A 
ENDBRANCH   1  16
BRANCH   1  23
ATOM     22  N   UNL     1      -4.690   1.507 126.747  0.00  0.00    +0.000 N 
ATOM     23  C   UNL     1      -5.837   0.990 126.182  0.00  0.00    +0.000 C 
ATOM     24  O   UNL     1      -6.563   1.700 125.482  0.00  0.00    +0.000 OA
ATOM     25  H   UNL     1      -4.014   0.878 127.174  0.00  0.00    +0.000 HD
BRANCH  22  35
ATOM     26  C   UNL     1      -4.885   3.978 127.482  0.00  0.00    +0.000 C 
ATOM     27  S   UNL     1      -5.430   3.415 129.131  0.00  0.00    +0.000 S 
ATOM     28  C   UNL     1      -4.353   4.702 129.953  0.00  0.00    +0.000 C 
ATOM     29  C   UNL     1      -4.081   4.204 131.375  0.00  0.00    +0.000 C 
ATOM     30  C   UNL     1      -5.192   5.995 129.930  0.00  0.00    +0.000 C 
ATOM     31  CA  UNL     1      -3.073   4.724 129.086  0.00  0.00    +0.000 C 
ATOM     32  N   UNL     1      -3.508   4.462 127.697  0.00  0.00    +0.000 N 
ATOM     33  C   UNL     1      -2.952   3.441 126.964  0.00  0.00    +0.000 C 
ATOM     34  O   UNL     1      -1.801   3.051 126.896  0.00  0.00    +0.000 OA
ATOM     35  CA  UNL     1      -4.346   2.937 126.496  0.00  0.00    +0.000 C 
BRANCH  31  36
ATOM     36  C   UNL     1      -2.135   5.954 129.145  0.00  0.00    +0.000 C 
ATOM     37  OXT UNL     1      -1.611   6.336 130.186  0.00  0.00    +0.000 OA
BRANCH  36  38
ATOM     38  O   UNL     1      -1.899   6.659 128.020  0.00  0.00    +0.000 OA
ATOM     39  H   UNL     1      -2.586   7.220 127.630  0.00  0.00    +0.000 HD
ENDBRANCH  36  38
ENDBRANCH  31  36
ENDBRANCH  22  35
ENDBRANCH   1  23
TORSDOF 7
ENDMDL
MODEL 9
REMARK VINA RESULT:      -7.7      5.736      9.286
REMARK  Name = Piperacillin
REMARK  10 active torsions:
REMARK  status: ('A' for Active; 'I' for Inactive)
REMARK    1  A    between atoms: C_4  and  C_5
REMARK    2  A    between atoms: C_4  and  C_6
REMARK    3  A    between atoms: CA_7  and  C_35
REMARK    4  A    between atoms: CA_11  and  N_12
REMARK    5  A    between atoms: C_13  and  CA_15
REMARK    6  A    between atoms: CA_15  and  N_16
REMARK    7  A    between atoms: CA_15  and  C_29
REMARK    8  A    between atoms: N_22  and  C_23
REMARK    9  A    between atoms: C_23  and  C_24
REMARK   10  A    between atoms: C_35  and  O_36
REMARK                            x       y       z     vdW  Elec       q    Type
REMARK                         _______ _______ _______ _____ _____    ______ ____
ROOT
ATOM      1  CA  UNL     1      -6.804  -0.895 126.939  0.00  0.00    +0.000 C 
ENDROOT
BRANCH   1   2
ATOM      2  N   UNL     1      -7.523  -0.412 128.131  0.00  0.00    +0.000 N 
ATOM      3  C   UNL     1      -7.449   0.910 128.493  0.00  0.00    +0.000 C 
ATOM      4  O   UNL     1      -6.740   1.682 127.848  0.00  0.00    +0.000 OA
ATOM      5  N   UNL     1      -8.138   1.292 129.620  0.00  0.00    +0.000 N 
ATOM      6  C   UNL     1      -8.170   0.533 130.865  0.00  0.00    +0.000 C 
ATOM      7  C   UNL     1      -8.000   1.466 132.076  0.00  0.00    +0.000 C 
ATOM      8  N   UNL     1      -9.026   2.508 132.075  0.00  0.00    +0.000 N 
ATOM      9  C   UNL     1      -9.452   3.034 130.847  0.00  0.00    +0.000 C 
ATOM     10  O   UNL     1     -10.324   3.884 130.711  0.00  0.00    +0.000 OA
ATOM     11  C   UNL     1      -8.813   2.504 129.555  0.00  0.00    +0.000 C 
ATOM     12  O   UNL     1      -9.003   3.156 128.531  0.00  0.00    +0.000 OA
ATOM     13  H   UNL     1      -8.083  -1.073 128.646  0.00  0.00    +0.000 HD
BRANCH   8  14
ATOM     14  C   UNL     1      -9.478   3.057 133.370  0.00  0.00    +0.000 C 
ATOM     15  C   UNL     1      -8.507   3.997 134.075  0.00  0.00    +0.000 C 
ENDBRANCH   8  14
ENDBRANCH   1   2
BRANCH   1  16
ATOM     16  C   UNL     1      -7.762  -1.617 125.988  0.00  0.00    +0.000 A 
ATOM     17  C   UNL     1      -8.725  -2.511 126.484  0.00  0.00    +0.000 A 
ATOM     18  C   UNL     1      -9.489  -3.293 125.607  0.00  0.00    +0.000 A 
ATOM     19  C   UNL     1      -9.378  -3.125 124.228  0.00  0.00    +0.000 A 
ATOM     20  C   UNL     1      -8.468  -2.209 123.720  0.00  0.00    +0.000 A 
ATOM     21  C   UNL     1      -7.663  -1.479 124.591  0.00  0.00    +0.000 A 
ENDBRANCH   1  16
BRANCH   1  23
ATOM     22  N   UNL     1      -5.340  -1.783 128.763  0.00  0.00    +0.000 N 
ATOM     23  C   UNL     1      -5.656  -1.824 127.421  0.00  0.00    +0.000 C 
ATOM     24  O   UNL     1      -5.020  -2.549 126.652  0.00  0.00    +0.000 OA
ATOM     25  H   UNL     1      -5.973  -1.322 129.413  0.00  0.00    +0.000 HD
BRANCH  22  35
ATOM     26  C   UNL     1      -3.380  -2.078 130.423  0.00  0.00    +0.000 C 
ATOM     27  S   UNL     1      -4.085  -0.742 131.447  0.00  0.00    +0.000 S 
ATOM     28  C   UNL     1      -3.725  -1.711 133.004  0.00  0.00    +0.000 C 
ATOM     29  C   UNL     1      -4.678  -1.186 134.080  0.00  0.00    +0.000 C 
ATOM     30  C   UNL     1      -2.248  -1.412 133.326  0.00  0.00    +0.000 C 
ATOM     31  CA  UNL     1      -4.037  -3.174 132.610  0.00  0.00    +0.000 C 
ATOM     32  N   UNL     1      -3.659  -3.309 131.187  0.00  0.00    +0.000 N 
ATOM     33  C   UNL     1      -4.560  -3.774 130.259  0.00  0.00    +0.000 C 
ATOM     34  O   UNL     1      -5.391  -4.659 130.336  0.00  0.00    +0.000 OA
ATOM     35  CA  UNL     1      -4.218  -2.629 129.265  0.00  0.00    +0.000 C 
BRANCH  31  36
ATOM     36  C   UNL     1      -3.442  -4.331 133.449  0.00  0.00    +0.000 C 
ATOM     37  OXT UNL     1      -3.984  -4.761 134.461  0.00  0.00    +0.000 OA
BRANCH  36  38
ATOM     38  O   UNL     1      -2.267  -4.878 133.078  0.00  0.00    +0.000 OA
ATOM     39  H   UNL     1      -1.426  -4.527 133.408  0.00  0.00    +0.000 HD
ENDBRANCH  36  38
ENDBRANCH  31  36
ENDBRANCH  22  35
ENDBRANCH   1  23
TORSDOF 7
ENDMDL
