MODEL 1
REMARK VINA RESULT:      -3.7      0.000      0.000
REMARK  Name = Piperazine
REMARK  0 active torsions:
REMARK  status: ('A' for Active; 'I' for Inactive)
REMARK                            x       y       z     vdW  Elec       q    Type
REMARK                         _______ _______ _______ _____ _____    ______ ____
ROOT
ATOM      1  C   UNL     1     -10.984   7.681 126.503  0.00  0.00    +0.000 C 
ATOM      2  C   UNL     1     -10.686   8.386 127.845  0.00  0.00    +0.000 C 
ATOM      3  N   UNL     1     -11.894   8.970 128.460  0.00  0.00    +0.000 NA
ATOM      4  C   UNL     1     -12.908   7.907 128.599  0.00  0.00    +0.000 C 
ATOM      5  C   UNL     1     -13.215   7.197 127.261  0.00  0.00    +0.000 C 
ATOM      6  N   UNL     1     -12.008   6.635 126.639  0.00  0.00    +0.000 NA
ATOM      7  H   UNL     1     -12.263   9.671 127.818  0.00  0.00    +0.000 HD
ATOM      8  H   UNL     1     -12.236   6.252 125.722  0.00  0.00    +0.000 HD
ENDROOT
TORSDOF 0
ENDMDL
MODEL 2
REMARK VINA RESULT:      -3.6      0.017      2.125
REMARK  Name = Piperazine
REMARK  0 active torsions:
REMARK  status: ('A' for Active; 'I' for Inactive)
REMARK                            x       y       z     vdW  Elec       q    Type
REMARK                         _______ _______ _______ _____ _____    ______ ____
ROOT
ATOM      1  C   UNL     1     -10.676   8.389 127.851  0.00  0.00    +0.000 C 
ATOM      2  C   UNL     1     -10.979   7.679 126.513  0.00  0.00    +0.000 C 
ATOM      3  N   UNL     1     -12.000   6.622 126.649  0.00  0.00    +0.000 NA
ATOM      4  C   UNL     1     -13.208   7.216 127.254  0.00  0.00    +0.000 C 
ATOM      5  C   UNL     1     -12.916   7.926 128.594  0.00  0.00    +0.000 C 
ATOM      6  N   UNL     1     -11.884   8.963 128.462  0.00  0.00    +0.000 NA
ATOM      7  H   UNL     1     -11.639   5.921 127.296  0.00  0.00    +0.000 HD
ATOM      8  H   UNL     1     -11.659   9.349 129.378  0.00  0.00    +0.000 HD
ENDROOT
TORSDOF 0
ENDMDL
MODEL 3
REMARK VINA RESULT:      -3.4      1.291      2.445
REMARK  Name = Piperazine
REMARK  0 active torsions:
REMARK  status: ('A' for Active; 'I' for Inactive)
REMARK                            x       y       z     vdW  Elec       q    Type
REMARK                         _______ _______ _______ _____ _____    ______ ____
ROOT
ATOM      1  C   UNL     1     -13.100   6.945 129.043  0.00  0.00    +0.000 C 
ATOM      2  C   UNL     1     -13.250   8.295 128.307  0.00  0.00    +0.000 C 
ATOM      3  N   UNL     1     -12.078   9.173 128.488  0.00  0.00    +0.000 NA
ATOM      4  C   UNL     1     -10.872   8.435 128.065  0.00  0.00    +0.000 C 
ATOM      5  C   UNL     1     -10.712   7.085 128.798  0.00  0.00    +0.000 C 
ATOM      6  N   UNL     1     -11.888   6.220 128.635  0.00  0.00    +0.000 NA
ATOM      7  H   UNL     1     -11.988   9.373 129.484  0.00  0.00    +0.000 HD
ATOM      8  H   UNL     1     -11.782   5.378 129.200  0.00  0.00    +0.000 HD
ENDROOT
TORSDOF 0
ENDMDL
MODEL 4
REMARK VINA RESULT:      -3.3      1.314      2.854
REMARK  Name = Piperazine
REMARK  0 active torsions:
REMARK  status: ('A' for Active; 'I' for Inactive)
REMARK                            x       y       z     vdW  Elec       q    Type
REMARK                         _______ _______ _______ _____ _____    ______ ____
ROOT
ATOM      1  C   UNL     1     -13.257   8.296 128.291  0.00  0.00    +0.000 C 
ATOM      2  C   UNL     1     -13.117   6.955 129.046  0.00  0.00    +0.000 C 
ATOM      3  N   UNL     1     -11.896   6.217 128.669  0.00  0.00    +0.000 NA
ATOM      4  C   UNL     1     -10.733   7.101 128.877  0.00  0.00    +0.000 C 
ATOM      5  C   UNL     1     -10.863   8.443 128.124  0.00  0.00    +0.000 C 
ATOM      6  N   UNL     1     -12.089   9.168 128.483  0.00  0.00    +0.000 NA
ATOM      7  H   UNL     1     -11.954   6.006 127.673  0.00  0.00    +0.000 HD
ATOM      8  H   UNL     1     -12.182  10.003 127.906  0.00  0.00    +0.000 HD
ENDROOT
TORSDOF 0
ENDMDL
MODEL 5
REMARK VINA RESULT:      -3.3      2.991      3.548
REMARK  Name = Piperazine
REMARK  0 active torsions:
REMARK  status: ('A' for Active; 'I' for Inactive)
REMARK                            x       y       z     vdW  Elec       q    Type
REMARK                         _______ _______ _______ _____ _____    ______ ____
ROOT
ATOM      1  C   UNL     1     -12.618   6.494 129.054  0.00  0.00    +0.000 C 
ATOM      2  C   UNL     1     -12.914   7.588 130.104  0.00  0.00    +0.000 C 
ATOM      3  N   UNL     1     -12.867   7.075 131.486  0.00  0.00    +0.000 NA
ATOM      4  C   UNL     1     -11.556   6.432 131.702  0.00  0.00    +0.000 C 
ATOM      5  C   UNL     1     -11.252   5.334 130.658  0.00  0.00    +0.000 C 
ATOM      6  N   UNL     1     -11.320   5.841 129.280  0.00  0.00    +0.000 NA
ATOM      7  H   UNL     1     -13.585   6.356 131.578  0.00  0.00    +0.000 HD
ATOM      8  H   UNL     1     -11.199   5.073 128.621  0.00  0.00    +0.000 HD
ENDROOT
TORSDOF 0
ENDMDL
MODEL 6
REMARK VINA RESULT:      -3.2      3.300      4.240
REMARK  Name = Piperazine
REMARK  0 active torsions:
REMARK  status: ('A' for Active; 'I' for Inactive)
REMARK                            x       y       z     vdW  Elec       q    Type
REMARK                         _______ _______ _______ _____ _____    ______ ____
ROOT
ATOM      1  C   UNL     1     -12.725   7.144 130.693  0.00  0.00    +0.000 C 
ATOM      2  C   UNL     1     -12.507   6.410 129.351  0.00  0.00    +0.000 C 
ATOM      3  N   UNL     1     -11.090   6.080 129.108  0.00  0.00    +0.000 NA
ATOM      4  C   UNL     1     -10.587   5.305 130.259  0.00  0.00    +0.000 C 
ATOM      5  C   UNL     1     -10.798   6.032 131.605  0.00  0.00    +0.000 C 
ATOM      6  N   UNL     1     -12.206   6.380 131.837  0.00  0.00    +0.000 NA
ATOM      7  H   UNL     1     -10.568   6.956 129.070  0.00  0.00    +0.000 HD
ATOM      8  H   UNL     1     -12.293   6.931 132.690  0.00  0.00    +0.000 HD
ENDROOT
TORSDOF 0
ENDMDL
MODEL 7
REMARK VINA RESULT:      -3.1      1.512      1.512
REMARK  Name = Piperazine
REMARK  0 active torsions:
REMARK  status: ('A' for Active; 'I' for Inactive)
REMARK                            x       y       z     vdW  Elec       q    Type
REMARK                         _______ _______ _______ _____ _____    ______ ____
ROOT
ATOM      1  C   UNL     1     -10.675   6.757 128.466  0.00  0.00    +0.000 C 
ATOM      2  C   UNL     1     -10.633   8.277 128.736  0.00  0.00    +0.000 C 
ATOM      3  N   UNL     1     -11.830   8.976 128.230  0.00  0.00    +0.000 NA
ATOM      4  C   UNL     1     -13.026   8.337 128.812  0.00  0.00    +0.000 C 
ATOM      5  C   UNL     1     -13.078   6.816 128.545  0.00  0.00    +0.000 C 
ATOM      6  N   UNL     1     -11.876   6.124 129.030  0.00  0.00    +0.000 NA
ATOM      7  H   UNL     1     -11.866   8.843 127.219  0.00  0.00    +0.000 HD
ATOM      8  H   UNL     1     -11.908   5.141 128.761  0.00  0.00    +0.000 HD
ENDROOT
TORSDOF 0
ENDMDL
MODEL 8
REMARK VINA RESULT:      -3.1      1.849      2.672
REMARK  Name = Piperazine
REMARK  0 active torsions:
REMARK  status: ('A' for Active; 'I' for Inactive)
REMARK                            x       y       z     vdW  Elec       q    Type
REMARK                         _______ _______ _______ _____ _____    ______ ____
ROOT
ATOM      1  C   UNL     1     -10.684   8.313 127.790  0.00  0.00    +0.000 C 
ATOM      2  C   UNL     1     -12.173   7.944 127.973  0.00  0.00    +0.000 C 
ATOM      3  N   UNL     1     -12.365   6.530 128.348  0.00  0.00    +0.000 NA
ATOM      4  C   UNL     1     -11.567   6.256 129.560  0.00  0.00    +0.000 C 
ATOM      5  C   UNL     1     -10.077   6.620 129.386  0.00  0.00    +0.000 C 
ATOM      6  N   UNL     1      -9.887   8.022 128.991  0.00  0.00    +0.000 NA
ATOM      7  H   UNL     1     -11.994   5.953 127.593  0.00  0.00    +0.000 HD
ATOM      8  H   UNL     1      -8.901   8.201 128.804  0.00  0.00    +0.000 HD
ENDROOT
TORSDOF 0
ENDMDL
MODEL 9
REMARK VINA RESULT:      -3.1      1.611      2.391
REMARK  Name = Piperazine
REMARK  0 active torsions:
REMARK  status: ('A' for Active; 'I' for Inactive)
REMARK                            x       y       z     vdW  Elec       q    Type
REMARK                         _______ _______ _______ _____ _____    ______ ____
ROOT
ATOM      1  C   UNL     1     -12.000   6.517 129.132  0.00  0.00    +0.000 C 
ATOM      2  C   UNL     1     -10.515   6.893 128.926  0.00  0.00    +0.000 C 
ATOM      3  N   UNL     1     -10.070   6.701 127.532  0.00  0.00    +0.000 NA
ATOM      4  C   UNL     1     -10.969   7.464 126.644  0.00  0.00    +0.000 C 
ATOM      5  C   UNL     1     -12.455   7.093 126.842  0.00  0.00    +0.000 C 
ATOM      6  N   UNL     1     -12.893   7.264 128.234  0.00  0.00    +0.000 NA
ATOM      7  H   UNL     1     -10.172   5.712 127.305  0.00  0.00    +0.000 HD
ATOM      8  H   UNL     1     -13.850   6.930 128.341  0.00  0.00    +0.000 HD
ENDROOT
TORSDOF 0
ENDMDL
