MODEL 1
REMARK VINA RESULT:      -9.2      0.000      0.000
REMARK  Name = Pipecuronium
REMARK  14 active torsions:
REMARK  status: ('A' for Active; 'I' for Inactive)
REMARK    1  A    between atoms: C_4  and  N_40
REMARK    2  A    between atoms: C_5  and  O_6
REMARK    3  A    between atoms: O_6  and  C_7
REMARK    4  A    between atoms: C_7  and  C_8
REMARK    5  A    between atoms: C_10  and  C_11
REMARK    6  A    between atoms: C_23  and  O_24
REMARK    7  A    between atoms: O_24  and  C_25
REMARK    8  A    between atoms: C_25  and  C_26
REMARK    9  A    between atoms: C_28  and  N_32
REMARK   10  A    between atoms: C_30  and  C_31
REMARK   11  A    between atoms: N_35  and  C_36
REMARK   12  A    between atoms: N_35  and  C_37
REMARK   13  A    between atoms: N_43  and  C_44
REMARK   14  A    between atoms: N_43  and  C_45
REMARK                            x       y       z     vdW  Elec       q    Type
REMARK                         _______ _______ _______ _____ _____    ______ ____
ROOT
ATOM      1  C   UNL     1      -5.741  -3.985 130.823  0.00  0.00    +0.000 C 
ATOM      2  C   UNL     1      -6.507  -4.581 131.981  0.00  0.00    +0.000 C 
ATOM      3  C   UNL     1      -5.402  -4.982 132.988  0.00  0.00    +0.000 C 
ATOM      4  C   UNL     1      -4.053  -4.333 132.423  0.00  0.00    +0.000 C 
ATOM      5  C   UNL     1      -4.553  -3.226 131.456  0.00  0.00    +0.000 C 
ATOM      6  C   UNL     1      -4.906  -1.875 132.141  0.00  0.00    +0.000 C 
ATOM      7  C   UNL     1      -3.597  -2.872 130.321  0.00  0.00    +0.000 C 
ATOM      8  C   UNL     1      -4.234  -2.016 129.279  0.00  0.00    +0.000 C 
ATOM      9  C   UNL     1      -5.539  -2.629 128.769  0.00  0.00    +0.000 C 
ATOM     10  C   UNL     1      -6.516  -3.083 129.899  0.00  0.00    +0.000 C 
ATOM     11  C   UNL     1      -7.790  -3.722 129.343  0.00  0.00    +0.000 C 
ATOM     12  C   UNL     1      -8.465  -2.864 128.278  0.00  0.00    +0.000 C 
ATOM     13  C   UNL     1      -7.447  -2.489 127.211  0.00  0.00    +0.000 C 
ATOM     14  C   UNL     1      -8.138  -1.975 125.931  0.00  0.00    +0.000 C 
ATOM     15  C   UNL     1      -7.129  -1.509 124.846  0.00  0.00    +0.000 C 
ATOM     16  C   UNL     1      -5.997  -0.598 125.418  0.00  0.00    +0.000 C 
ATOM     17  C   UNL     1      -5.324  -1.279 126.641  0.00  0.00    +0.000 C 
ATOM     18  C   UNL     1      -6.257  -1.639 127.836  0.00  0.00    +0.000 C 
ATOM     19  C   UNL     1      -6.526  -0.422 128.866  0.00  0.00    +0.000 C 
ENDROOT
BRANCH  16  20
ATOM     20  N   UNL     1      -6.428   0.791 125.675  0.00  0.00    +0.000 NA
ATOM     21  C   UNL     1      -6.919   1.384 124.459  0.00  0.00    +0.000 C 
ATOM     22  C   UNL     1      -7.834   2.553 124.671  0.00  0.00    +0.000 C 
ATOM     23  N   UNL     1      -6.901   3.661 125.096  0.00  0.00    +0.000 N 
ATOM     24  C   UNL     1      -6.041   4.100 123.900  0.00  0.00    +0.000 C 
ATOM     25  C   UNL     1      -7.759   4.813 125.539  0.00  0.00    +0.000 C 
ATOM     26  C   UNL     1      -6.031   3.145 126.312  0.00  0.00    +0.000 C 
ATOM     27  C   UNL     1      -5.375   1.747 126.069  0.00  0.00    +0.000 C 
ENDBRANCH  16  20
BRANCH   3  28
ATOM     28  N   UNL     1      -5.748  -4.665 134.389  0.00  0.00    +0.000 NA
ATOM     29  C   UNL     1      -5.879  -5.846 135.255  0.00  0.00    +0.000 C 
ATOM     30  C   UNL     1      -6.195  -5.416 136.709  0.00  0.00    +0.000 C 
ATOM     31  N   UNL     1      -7.467  -4.520 136.814  0.00  0.00    +0.000 N 
ATOM     32  C   UNL     1      -8.732  -5.332 136.570  0.00  0.00    +0.000 C 
ATOM     33  C   UNL     1      -7.532  -3.883 138.182  0.00  0.00    +0.000 C 
ATOM     34  C   UNL     1      -7.349  -3.360 135.841  0.00  0.00    +0.000 C 
ATOM     35  C   UNL     1      -6.974  -3.877 134.483  0.00  0.00    +0.000 C 
ENDBRANCH   3  28
BRANCH   4  36
ATOM     36  O   UNL     1      -3.200  -3.899 133.507  0.00  0.00    +0.000 OA
BRANCH  36  37
ATOM     37  C   UNL     1      -2.200  -4.576 134.099  0.00  0.00    +0.000 C 
ATOM     38  C   UNL     1      -2.299  -6.052 134.238  0.00  0.00    +0.000 C 
ATOM     39  O   UNL     1      -1.185  -3.971 134.473  0.00  0.00    +0.000 OA
ENDBRANCH  36  37
ENDBRANCH   4  36
BRANCH  15  40
ATOM     40  O   UNL     1      -6.579  -2.699 124.244  0.00  0.00    +0.000 OA
BRANCH  40  41
ATOM     41  C   UNL     1      -5.646  -2.708 123.270  0.00  0.00    +0.000 C 
ATOM     42  C   UNL     1      -4.376  -3.488 123.437  0.00  0.00    +0.000 C 
ATOM     43  O   UNL     1      -5.875  -2.112 122.206  0.00  0.00    +0.000 OA
ENDBRANCH  40  41
ENDBRANCH  15  40
TORSDOF 6
ENDMDL
MODEL 2
REMARK VINA RESULT:      -8.0     10.276     12.618
REMARK  Name = Pipecuronium
REMARK  14 active torsions:
REMARK  status: ('A' for Active; 'I' for Inactive)
REMARK    1  A    between atoms: C_4  and  N_40
REMARK    2  A    between atoms: C_5  and  O_6
REMARK    3  A    between atoms: O_6  and  C_7
REMARK    4  A    between atoms: C_7  and  C_8
REMARK    5  A    between atoms: C_10  and  C_11
REMARK    6  A    between atoms: C_23  and  O_24
REMARK    7  A    between atoms: O_24  and  C_25
REMARK    8  A    between atoms: C_25  and  C_26
REMARK    9  A    between atoms: C_28  and  N_32
REMARK   10  A    between atoms: C_30  and  C_31
REMARK   11  A    between atoms: N_35  and  C_36
REMARK   12  A    between atoms: N_35  and  C_37
REMARK   13  A    between atoms: N_43  and  C_44
REMARK   14  A    between atoms: N_43  and  C_45
REMARK                            x       y       z     vdW  Elec       q    Type
REMARK                         _______ _______ _______ _____ _____    ______ ____
ROOT
ATOM      1  C   UNL     1      -0.720   8.358 132.972  0.00  0.00    +0.000 C 
ATOM      2  C   UNL     1       0.330   8.397 134.059  0.00  0.00    +0.000 C 
ATOM      3  C   UNL     1       0.647   9.905 134.213  0.00  0.00    +0.000 C 
ATOM      4  C   UNL     1      -0.466  10.666 133.350  0.00  0.00    +0.000 C 
ATOM      5  C   UNL     1      -1.596   9.611 133.194  0.00  0.00    +0.000 C 
ATOM      6  C   UNL     1      -2.586   9.538 134.390  0.00  0.00    +0.000 C 
ATOM      7  C   UNL     1      -2.466   9.770 131.951  0.00  0.00    +0.000 C 
ATOM      8  C   UNL     1      -3.344   8.588 131.710  0.00  0.00    +0.000 C 
ATOM      9  C   UNL     1      -2.541   7.286 131.695  0.00  0.00    +0.000 C 
ATOM     10  C   UNL     1      -1.572   7.119 132.908  0.00  0.00    +0.000 C 
ATOM     11  C   UNL     1      -0.765   5.821 132.832  0.00  0.00    +0.000 C 
ATOM     12  C   UNL     1      -1.639   4.595 132.591  0.00  0.00    +0.000 C 
ATOM     13  C   UNL     1      -2.530   4.839 131.382  0.00  0.00    +0.000 C 
ATOM     14  C   UNL     1      -3.133   3.521 130.852  0.00  0.00    +0.000 C 
ATOM     15  C   UNL     1      -4.109   3.739 129.664  0.00  0.00    +0.000 C 
ATOM     16  C   UNL     1      -5.127   4.896 129.916  0.00  0.00    +0.000 C 
ATOM     17  C   UNL     1      -4.378   6.187 130.349  0.00  0.00    +0.000 C 
ATOM     18  C   UNL     1      -3.493   6.080 131.627  0.00  0.00    +0.000 C 
ATOM     19  C   UNL     1      -4.297   6.275 133.016  0.00  0.00    +0.000 C 
ENDROOT
BRANCH  16  20
ATOM     20  N   UNL     1      -6.237   4.525 130.817  0.00  0.00    +0.000 NA
ATOM     21  C   UNL     1      -6.807   3.271 130.398  0.00  0.00    +0.000 C 
ATOM     22  C   UNL     1      -7.557   2.547 131.476  0.00  0.00    +0.000 C 
ATOM     23  N   UNL     1      -8.836   3.338 131.611  0.00  0.00    +0.000 N 
ATOM     24  C   UNL     1      -9.711   3.121 130.367  0.00  0.00    +0.000 C 
ATOM     25  C   UNL     1      -9.554   2.809 132.821  0.00  0.00    +0.000 C 
ATOM     26  C   UNL     1      -8.463   4.859 131.833  0.00  0.00    +0.000 C 
ATOM     27  C   UNL     1      -7.419   5.408 130.808  0.00  0.00    +0.000 C 
ENDBRANCH  16  20
BRANCH   3  28
ATOM     28  N   UNL     1       0.791  10.329 135.621  0.00  0.00    +0.000 NA
ATOM     29  C   UNL     1       1.993  11.135 135.882  0.00  0.00    +0.000 C 
ATOM     30  C   UNL     1       2.036  11.572 137.368  0.00  0.00    +0.000 C 
ATOM     31  N   UNL     1       1.962  10.369 138.356  0.00  0.00    +0.000 N 
ATOM     32  C   UNL     1       3.259   9.571 138.349  0.00  0.00    +0.000 C 
ATOM     33  C   UNL     1       1.687  10.872 139.755  0.00  0.00    +0.000 C 
ATOM     34  C   UNL     1       0.767   9.500 138.005  0.00  0.00    +0.000 C 
ATOM     35  C   UNL     1       0.781   9.192 136.537  0.00  0.00    +0.000 C 
ENDBRANCH   3  28
BRANCH   4  36
ATOM     36  O   UNL     1      -0.838  11.914 133.980  0.00  0.00    +0.000 OA
BRANCH  36  37
ATOM     37  C   UNL     1      -1.165  13.076 133.388  0.00  0.00    +0.000 C 
ATOM     38  C   UNL     1      -1.044  13.205 131.913  0.00  0.00    +0.000 C 
ATOM     39  O   UNL     1      -1.614  14.008 134.071  0.00  0.00    +0.000 OA
ENDBRANCH  36  37
ENDBRANCH   4  36
BRANCH  15  40
ATOM     40  O   UNL     1      -3.302   4.005 128.498  0.00  0.00    +0.000 OA
BRANCH  40  41
ATOM     41  C   UNL     1      -3.107   3.140 127.483  0.00  0.00    +0.000 C 
ATOM     42  C   UNL     1      -1.782   3.069 126.785  0.00  0.00    +0.000 C 
ATOM     43  O   UNL     1      -4.018   2.358 127.169  0.00  0.00    +0.000 OA
ENDBRANCH  40  41
ENDBRANCH  15  40
TORSDOF 6
ENDMDL
MODEL 3
REMARK VINA RESULT:      -8.0      3.082     10.444
REMARK  Name = Pipecuronium
REMARK  14 active torsions:
REMARK  status: ('A' for Active; 'I' for Inactive)
REMARK    1  A    between atoms: C_4  and  N_40
REMARK    2  A    between atoms: C_5  and  O_6
REMARK    3  A    between atoms: O_6  and  C_7
REMARK    4  A    between atoms: C_7  and  C_8
REMARK    5  A    between atoms: C_10  and  C_11
REMARK    6  A    between atoms: C_23  and  O_24
REMARK    7  A    between atoms: O_24  and  C_25
REMARK    8  A    between atoms: C_25  and  C_26
REMARK    9  A    between atoms: C_28  and  N_32
REMARK   10  A    between atoms: C_30  and  C_31
REMARK   11  A    between atoms: N_35  and  C_36
REMARK   12  A    between atoms: N_35  and  C_37
REMARK   13  A    between atoms: N_43  and  C_44
REMARK   14  A    between atoms: N_43  and  C_45
REMARK                            x       y       z     vdW  Elec       q    Type
REMARK                         _______ _______ _______ _____ _____    ______ ____
ROOT
ATOM      1  C   UNL     1      -7.659  -0.270 129.350  0.00  0.00    +0.000 C 
ATOM      2  C   UNL     1      -7.778  -0.112 127.851  0.00  0.00    +0.000 C 
ATOM      3  C   UNL     1      -8.523   1.234 127.680  0.00  0.00    +0.000 C 
ATOM      4  C   UNL     1      -8.554   1.895 129.138  0.00  0.00    +0.000 C 
ATOM      5  C   UNL     1      -7.422   1.154 129.902  0.00  0.00    +0.000 C 
ATOM      6  C   UNL     1      -5.998   1.735 129.678  0.00  0.00    +0.000 C 
ATOM      7  C   UNL     1      -7.601   1.078 131.415  0.00  0.00    +0.000 C 
ATOM      8  C   UNL     1      -6.644   0.131 132.059  0.00  0.00    +0.000 C 
ATOM      9  C   UNL     1      -6.689  -1.248 131.399  0.00  0.00    +0.000 C 
ATOM     10  C   UNL     1      -6.594  -1.214 129.841  0.00  0.00    +0.000 C 
ATOM     11  C   UNL     1      -6.679  -2.611 129.224  0.00  0.00    +0.000 C 
ATOM     12  C   UNL     1      -5.708  -3.599 129.862  0.00  0.00    +0.000 C 
ATOM     13  C   UNL     1      -5.886  -3.580 131.373  0.00  0.00    +0.000 C 
ATOM     14  C   UNL     1      -5.237  -4.815 132.031  0.00  0.00    +0.000 C 
ATOM     15  C   UNL     1      -5.332  -4.793 133.581  0.00  0.00    +0.000 C 
ATOM     16  C   UNL     1      -4.940  -3.412 134.196  0.00  0.00    +0.000 C 
ATOM     17  C   UNL     1      -5.737  -2.270 133.508  0.00  0.00    +0.000 C 
ATOM     18  C   UNL     1      -5.570  -2.139 131.964  0.00  0.00    +0.000 C 
ATOM     19  C   UNL     1      -4.273  -1.293 131.501  0.00  0.00    +0.000 C 
ENDROOT
BRANCH  16  20
ATOM     20  N   UNL     1      -3.483  -3.175 134.238  0.00  0.00    +0.000 NA
ATOM     21  C   UNL     1      -2.852  -4.157 135.081  0.00  0.00    +0.000 C 
ATOM     22  C   UNL     1      -1.390  -4.351 134.809  0.00  0.00    +0.000 C 
ATOM     23  N   UNL     1      -0.753  -3.115 135.397  0.00  0.00    +0.000 N 
ATOM     24  C   UNL     1      -0.836  -3.169 136.930  0.00  0.00    +0.000 C 
ATOM     25  C   UNL     1       0.690  -3.123 134.978  0.00  0.00    +0.000 C 
ATOM     26  C   UNL     1      -1.477  -1.844 134.793  0.00  0.00    +0.000 C 
ATOM     27  C   UNL     1      -3.036  -1.915 134.864  0.00  0.00    +0.000 C 
ENDBRANCH  16  20
BRANCH   3  28
ATOM     28  N   UNL     1      -7.975   2.069 126.591  0.00  0.00    +0.000 NA
ATOM     29  C   UNL     1      -8.865   2.194 125.428  0.00  0.00    +0.000 C 
ATOM     30  C   UNL     1      -8.231   3.122 124.361  0.00  0.00    +0.000 C 
ATOM     31  N   UNL     1      -6.813   2.650 123.914  0.00  0.00    +0.000 N 
ATOM     32  C   UNL     1      -6.897   1.394 123.057  0.00  0.00    +0.000 C 
ATOM     33  C   UNL     1      -6.132   3.750 123.133  0.00  0.00    +0.000 C 
ATOM     34  C   UNL     1      -5.943   2.437 125.140  0.00  0.00    +0.000 C 
ATOM     35  C   UNL     1      -6.674   1.587 126.136  0.00  0.00    +0.000 C 
ENDBRANCH   3  28
BRANCH   4  36
ATOM     36  O   UNL     1      -8.432   3.334 129.051  0.00  0.00    +0.000 OA
BRANCH  36  37
ATOM     37  C   UNL     1      -8.964   4.262 129.866  0.00  0.00    +0.000 C 
ATOM     38  C   UNL     1      -8.152   4.803 130.986  0.00  0.00    +0.000 C 
ATOM     39  O   UNL     1     -10.104   4.694 129.642  0.00  0.00    +0.000 OA
ENDBRANCH  36  37
ENDBRANCH   4  36
BRANCH  15  40
ATOM     40  O   UNL     1      -6.689  -5.144 133.925  0.00  0.00    +0.000 OA
BRANCH  40  41
ATOM     41  C   UNL     1      -7.126  -5.389 135.177  0.00  0.00    +0.000 C 
ATOM     42  C   UNL     1      -8.371  -4.730 135.692  0.00  0.00    +0.000 C 
ATOM     43  O   UNL     1      -6.520  -6.212 135.881  0.00  0.00    +0.000 OA
ENDBRANCH  40  41
ENDBRANCH  15  40
TORSDOF 6
ENDMDL
MODEL 4
REMARK VINA RESULT:      -8.0      2.132     10.364
REMARK  Name = Pipecuronium
REMARK  14 active torsions:
REMARK  status: ('A' for Active; 'I' for Inactive)
REMARK    1  A    between atoms: C_4  and  N_40
REMARK    2  A    between atoms: C_5  and  O_6
REMARK    3  A    between atoms: O_6  and  C_7
REMARK    4  A    between atoms: C_7  and  C_8
REMARK    5  A    between atoms: C_10  and  C_11
REMARK    6  A    between atoms: C_23  and  O_24
REMARK    7  A    between atoms: O_24  and  C_25
REMARK    8  A    between atoms: C_25  and  C_26
REMARK    9  A    between atoms: C_28  and  N_32
REMARK   10  A    between atoms: C_30  and  C_31
REMARK   11  A    between atoms: N_35  and  C_36
REMARK   12  A    between atoms: N_35  and  C_37
REMARK   13  A    between atoms: N_43  and  C_44
REMARK   14  A    between atoms: N_43  and  C_45
REMARK                            x       y       z     vdW  Elec       q    Type
REMARK                         _______ _______ _______ _____ _____    ______ ____
ROOT
ATOM      1  C   UNL     1      -4.787  -0.736 128.365  0.00  0.00    +0.000 C 
ATOM      2  C   UNL     1      -5.454   0.315 127.506  0.00  0.00    +0.000 C 
ATOM      3  C   UNL     1      -5.635  -0.387 126.138  0.00  0.00    +0.000 C 
ATOM      4  C   UNL     1      -5.276  -1.925 126.396  0.00  0.00    +0.000 C 
ATOM      5  C   UNL     1      -5.410  -2.083 127.936  0.00  0.00    +0.000 C 
ATOM      6  C   UNL     1      -6.858  -2.345 128.438  0.00  0.00    +0.000 C 
ATOM      7  C   UNL     1      -4.555  -3.184 128.554  0.00  0.00    +0.000 C 
ATOM      8  C   UNL     1      -4.513  -3.110 130.043  0.00  0.00    +0.000 C 
ATOM      9  C   UNL     1      -4.103  -1.718 130.525  0.00  0.00    +0.000 C 
ATOM     10  C   UNL     1      -4.896  -0.551 129.855  0.00  0.00    +0.000 C 
ATOM     11  C   UNL     1      -4.428   0.822 130.340  0.00  0.00    +0.000 C 
ATOM     12  C   UNL     1      -4.380   0.927 131.861  0.00  0.00    +0.000 C 
ATOM     13  C   UNL     1      -3.572  -0.234 132.423  0.00  0.00    +0.000 C 
ATOM     14  C   UNL     1      -3.154   0.028 133.885  0.00  0.00    +0.000 C 
ATOM     15  C   UNL     1      -2.392  -1.169 134.517  0.00  0.00    +0.000 C 
ATOM     16  C   UNL     1      -3.082  -2.543 134.245  0.00  0.00    +0.000 C 
ATOM     17  C   UNL     1      -3.358  -2.716 132.726  0.00  0.00    +0.000 C 
ATOM     18  C   UNL     1      -4.246  -1.626 132.054  0.00  0.00    +0.000 C 
ATOM     19  C   UNL     1      -5.836  -1.871 132.206  0.00  0.00    +0.000 C 
ENDROOT
BRANCH  16  20
ATOM     20  N   UNL     1      -4.265  -2.791 135.094  0.00  0.00    +0.000 NA
ATOM     21  C   UNL     1      -3.900  -2.685 136.483  0.00  0.00    +0.000 C 
ATOM     22  C   UNL     1      -5.053  -2.404 137.401  0.00  0.00    +0.000 C 
ATOM     23  N   UNL     1      -5.786  -3.723 137.464  0.00  0.00    +0.000 N 
ATOM     24  C   UNL     1      -4.948  -4.742 138.252  0.00  0.00    +0.000 C 
ATOM     25  C   UNL     1      -7.077  -3.474 138.191  0.00  0.00    +0.000 C 
ATOM     26  C   UNL     1      -6.088  -4.199 135.986  0.00  0.00    +0.000 C 
ATOM     27  C   UNL     1      -4.845  -4.146 135.040  0.00  0.00    +0.000 C 
ENDBRANCH  16  20
BRANCH   3  28
ATOM     28  N   UNL     1      -6.945  -0.113 125.512  0.00  0.00    +0.000 NA
ATOM     29  C   UNL     1      -6.854   0.490 124.175  0.00  0.00    +0.000 C 
ATOM     30  C   UNL     1      -8.269   0.697 123.580  0.00  0.00    +0.000 C 
ATOM     31  N   UNL     1      -9.195   1.549 124.500  0.00  0.00    +0.000 N 
ATOM     32  C   UNL     1      -8.769   3.011 124.505  0.00  0.00    +0.000 C 
ATOM     33  C   UNL     1     -10.626   1.442 124.025  0.00  0.00    +0.000 C 
ATOM     34  C   UNL     1      -9.197   0.959 125.899  0.00  0.00    +0.000 C 
ATOM     35  C   UNL     1      -7.785   0.735 126.353  0.00  0.00    +0.000 C 
ENDBRANCH   3  28
BRANCH   4  36
ATOM     36  O   UNL     1      -6.110  -2.788 125.589  0.00  0.00    +0.000 OA
BRANCH  36  37
ATOM     37  C   UNL     1      -5.911  -3.184 124.319  0.00  0.00    +0.000 C 
ATOM     38  C   UNL     1      -4.732  -4.027 123.992  0.00  0.00    +0.000 C 
ATOM     39  O   UNL     1      -6.740  -2.887 123.446  0.00  0.00    +0.000 OA
ENDBRANCH  36  37
ENDBRANCH   4  36
BRANCH  15  40
ATOM     40  O   UNL     1      -1.053  -1.148 133.980  0.00  0.00    +0.000 OA
BRANCH  40  41
ATOM     41  C   UNL     1       0.007  -1.770 134.533  0.00  0.00    +0.000 C 
ATOM     42  C   UNL     1       0.108  -1.930 136.020  0.00  0.00    +0.000 C 
ATOM     43  O   UNL     1       0.874  -2.264 133.794  0.00  0.00    +0.000 OA
ENDBRANCH  40  41
ENDBRANCH  15  40
TORSDOF 6
ENDMDL
MODEL 5
REMARK VINA RESULT:      -7.8      8.528     12.218
REMARK  Name = Pipecuronium
REMARK  14 active torsions:
REMARK  status: ('A' for Active; 'I' for Inactive)
REMARK    1  A    between atoms: C_4  and  N_40
REMARK    2  A    between atoms: C_5  and  O_6
REMARK    3  A    between atoms: O_6  and  C_7
REMARK    4  A    between atoms: C_7  and  C_8
REMARK    5  A    between atoms: C_10  and  C_11
REMARK    6  A    between atoms: C_23  and  O_24
REMARK    7  A    between atoms: O_24  and  C_25
REMARK    8  A    between atoms: C_25  and  C_26
REMARK    9  A    between atoms: C_28  and  N_32
REMARK   10  A    between atoms: C_30  and  C_31
REMARK   11  A    between atoms: N_35  and  C_36
REMARK   12  A    between atoms: N_35  and  C_37
REMARK   13  A    between atoms: N_43  and  C_44
REMARK   14  A    between atoms: N_43  and  C_45
REMARK                            x       y       z     vdW  Elec       q    Type
REMARK                         _______ _______ _______ _____ _____    ______ ____
ROOT
ATOM      1  C   UNL     1      -4.766   4.156 131.193  0.00  0.00    +0.000 C 
ATOM      2  C   UNL     1      -4.915   3.365 129.913  0.00  0.00    +0.000 C 
ATOM      3  C   UNL     1      -6.291   2.672 130.065  0.00  0.00    +0.000 C 
ATOM      4  C   UNL     1      -6.967   3.341 131.354  0.00  0.00    +0.000 C 
ATOM      5  C   UNL     1      -6.183   4.670 131.533  0.00  0.00    +0.000 C 
ATOM      6  C   UNL     1      -6.698   5.850 130.661  0.00  0.00    +0.000 C 
ATOM      7  C   UNL     1      -6.130   5.207 132.959  0.00  0.00    +0.000 C 
ATOM      8  C   UNL     1      -5.148   6.319 133.118  0.00  0.00    +0.000 C 
ATOM      9  C   UNL     1      -3.766   5.927 132.594  0.00  0.00    +0.000 C 
ATOM     10  C   UNL     1      -3.780   5.294 131.166  0.00  0.00    +0.000 C 
ATOM     11  C   UNL     1      -2.383   4.885 130.698  0.00  0.00    +0.000 C 
ATOM     12  C   UNL     1      -1.359   6.006 130.845  0.00  0.00    +0.000 C 
ATOM     13  C   UNL     1      -1.400   6.544 132.268  0.00  0.00    +0.000 C 
ATOM     14  C   UNL     1      -0.144   7.381 132.589  0.00  0.00    +0.000 C 
ATOM     15  C   UNL     1      -0.186   8.012 134.008  0.00  0.00    +0.000 C 
ATOM     16  C   UNL     1      -1.553   8.691 134.332  0.00  0.00    +0.000 C 
ATOM     17  C   UNL     1      -2.723   7.707 134.056  0.00  0.00    +0.000 C 
ATOM     18  C   UNL     1      -2.832   7.148 132.605  0.00  0.00    +0.000 C 
ATOM     19  C   UNL     1      -3.615   8.115 131.573  0.00  0.00    +0.000 C 
ENDROOT
BRANCH  16  20
ATOM     20  N   UNL     1      -1.726  10.011 133.693  0.00  0.00    +0.000 NA
ATOM     21  C   UNL     1      -0.470  10.715 133.678  0.00  0.00    +0.000 C 
ATOM     22  C   UNL     1      -0.383  11.793 132.639  0.00  0.00    +0.000 C 
ATOM     23  N   UNL     1      -1.248  12.897 133.200  0.00  0.00    +0.000 N 
ATOM     24  C   UNL     1      -0.557  13.526 134.420  0.00  0.00    +0.000 C 
ATOM     25  C   UNL     1      -1.392  13.934 132.122  0.00  0.00    +0.000 C 
ATOM     26  C   UNL     1      -2.667  12.291 133.551  0.00  0.00    +0.000 C 
ATOM     27  C   UNL     1      -2.599  10.974 134.391  0.00  0.00    +0.000 C 
ENDBRANCH  16  20
BRANCH   3  28
ATOM     28  N   UNL     1      -7.091   2.686 128.822  0.00  0.00    +0.000 NA
ATOM     29  C   UNL     1      -7.427   1.348 128.314  0.00  0.00    +0.000 C 
ATOM     30  C   UNL     1      -8.302   1.460 127.041  0.00  0.00    +0.000 C 
ATOM     31  N   UNL     1      -7.636   2.317 125.921  0.00  0.00    +0.000 N 
ATOM     32  C   UNL     1      -6.464   1.579 125.289  0.00  0.00    +0.000 C 
ATOM     33  C   UNL     1      -8.657   2.649 124.856  0.00  0.00    +0.000 C 
ATOM     34  C   UNL     1      -7.212   3.657 126.496  0.00  0.00    +0.000 C 
ATOM     35  C   UNL     1      -6.433   3.439 127.759  0.00  0.00    +0.000 C 
ENDBRANCH   3  28
BRANCH   4  36
ATOM     36  O   UNL     1      -8.398   3.459 131.179  0.00  0.00    +0.000 OA
BRANCH  36  37
ATOM     37  C   UNL     1      -9.315   3.841 132.085  0.00  0.00    +0.000 C 
ATOM     38  C   UNL     1      -9.279   3.259 133.452  0.00  0.00    +0.000 C 
ATOM     39  O   UNL     1     -10.146   4.712 131.788  0.00  0.00    +0.000 OA
ENDBRANCH  36  37
ENDBRANCH   4  36
BRANCH  15  40
ATOM     40  O   UNL     1       0.102   6.955 134.948  0.00  0.00    +0.000 OA
BRANCH  40  41
ATOM     41  C   UNL     1       0.844   7.100 136.064  0.00  0.00    +0.000 C 
ATOM     42  C   UNL     1       0.191   7.375 137.385  0.00  0.00    +0.000 C 
ATOM     43  O   UNL     1       2.074   6.943 135.999  0.00  0.00    +0.000 OA
ENDBRANCH  40  41
ENDBRANCH  15  40
TORSDOF 6
ENDMDL
MODEL 6
REMARK VINA RESULT:      -7.6      7.833     11.965
REMARK  Name = Pipecuronium
REMARK  14 active torsions:
REMARK  status: ('A' for Active; 'I' for Inactive)
REMARK    1  A    between atoms: C_4  and  N_40
REMARK    2  A    between atoms: C_5  and  O_6
REMARK    3  A    between atoms: O_6  and  C_7
REMARK    4  A    between atoms: C_7  and  C_8
REMARK    5  A    between atoms: C_10  and  C_11
REMARK    6  A    between atoms: C_23  and  O_24
REMARK    7  A    between atoms: O_24  and  C_25
REMARK    8  A    between atoms: C_25  and  C_26
REMARK    9  A    between atoms: C_28  and  N_32
REMARK   10  A    between atoms: C_30  and  C_31
REMARK   11  A    between atoms: N_35  and  C_36
REMARK   12  A    between atoms: N_35  and  C_37
REMARK   13  A    between atoms: N_43  and  C_44
REMARK   14  A    between atoms: N_43  and  C_45
REMARK                            x       y       z     vdW  Elec       q    Type
REMARK                         _______ _______ _______ _____ _____    ______ ____
ROOT
ATOM      1  C   UNL     1      -3.675   4.005 129.833  0.00  0.00    +0.000 C 
ATOM      2  C   UNL     1      -4.084   4.130 128.383  0.00  0.00    +0.000 C 
ATOM      3  C   UNL     1      -4.324   2.667 127.939  0.00  0.00    +0.000 C 
ATOM      4  C   UNL     1      -4.279   1.800 129.283  0.00  0.00    +0.000 C 
ATOM      5  C   UNL     1      -4.521   2.846 130.406  0.00  0.00    +0.000 C 
ATOM      6  C   UNL     1      -6.016   3.174 130.677  0.00  0.00    +0.000 C 
ATOM      7  C   UNL     1      -3.925   2.492 131.765  0.00  0.00    +0.000 C 
ATOM      8  C   UNL     1      -3.947   3.640 132.718  0.00  0.00    +0.000 C 
ATOM      9  C   UNL     1      -3.305   4.887 132.109  0.00  0.00    +0.000 C 
ATOM     10  C   UNL     1      -3.824   5.241 130.680  0.00  0.00    +0.000 C 
ATOM     11  C   UNL     1      -3.129   6.473 130.098  0.00  0.00    +0.000 C 
ATOM     12  C   UNL     1      -3.140   7.664 131.050  0.00  0.00    +0.000 C 
ATOM     13  C   UNL     1      -2.599   7.232 132.406  0.00  0.00    +0.000 C 
ATOM     14  C   UNL     1      -2.215   8.451 133.271  0.00  0.00    +0.000 C 
ATOM     15  C   UNL     1      -1.730   8.052 134.692  0.00  0.00    +0.000 C 
ATOM     16  C   UNL     1      -2.654   6.998 135.378  0.00  0.00    +0.000 C 
ATOM     17  C   UNL     1      -2.879   5.783 134.436  0.00  0.00    +0.000 C 
ATOM     18  C   UNL     1      -3.506   6.093 133.043  0.00  0.00    +0.000 C 
ATOM     19  C   UNL     1      -5.120   6.186 133.042  0.00  0.00    +0.000 C 
ENDROOT
BRANCH  16  20
ATOM     20  N   UNL     1      -3.905   7.568 135.918  0.00  0.00    +0.000 NA
ATOM     21  C   UNL     1      -3.599   8.618 136.854  0.00  0.00    +0.000 C 
ATOM     22  C   UNL     1      -4.718   9.592 137.071  0.00  0.00    +0.000 C 
ATOM     23  N   UNL     1      -5.702   8.821 137.918  0.00  0.00    +0.000 N 
ATOM     24  C   UNL     1      -5.127   8.626 139.329  0.00  0.00    +0.000 C 
ATOM     25  C   UNL     1      -6.953   9.648 138.003  0.00  0.00    +0.000 C 
ATOM     26  C   UNL     1      -6.016   7.449 137.195  0.00  0.00    +0.000 C 
ATOM     27  C   UNL     1      -4.740   6.670 136.739  0.00  0.00    +0.000 C 
ENDBRANCH  16  20
BRANCH   3  28
ATOM     28  N   UNL     1      -5.524   2.505 127.091  0.00  0.00    +0.000 NA
ATOM     29  C   UNL     1      -5.292   1.716 125.872  0.00  0.00    +0.000 C 
ATOM     30  C   UNL     1      -6.610   1.559 125.074  0.00  0.00    +0.000 C 
ATOM     31  N   UNL     1      -7.272   2.927 124.721  0.00  0.00    +0.000 N 
ATOM     32  C   UNL     1      -6.478   3.660 123.648  0.00  0.00    +0.000 C 
ATOM     33  C   UNL     1      -8.686   2.701 124.237  0.00  0.00    +0.000 C 
ATOM     34  C   UNL     1      -7.412   3.760 125.983  0.00  0.00    +0.000 C 
ATOM     35  C   UNL     1      -6.103   3.791 126.715  0.00  0.00    +0.000 C 
ENDBRANCH   3  28
BRANCH   4  36
ATOM     36  O   UNL     1      -5.220   0.703 129.217  0.00  0.00    +0.000 OA
BRANCH  36  37
ATOM     37  C   UNL     1      -4.974  -0.611 129.366  0.00  0.00    +0.000 C 
ATOM     38  C   UNL     1      -4.035  -1.063 130.425  0.00  0.00    +0.000 C 
ATOM     39  O   UNL     1      -5.574  -1.432 128.657  0.00  0.00    +0.000 OA
ENDBRANCH  36  37
ENDBRANCH   4  36
BRANCH  15  40
ATOM     40  O   UNL     1      -0.386   7.547 134.552  0.00  0.00    +0.000 OA
BRANCH  40  41
ATOM     41  C   UNL     1       0.674   7.968 135.272  0.00  0.00    +0.000 C 
ATOM     42  C   UNL     1       0.781   9.401 135.703  0.00  0.00    +0.000 C 
ATOM     43  O   UNL     1       1.533   7.146 135.625  0.00  0.00    +0.000 OA
ENDBRANCH  40  41
ENDBRANCH  15  40
TORSDOF 6
ENDMDL
MODEL 7
REMARK VINA RESULT:      -7.5      1.722     10.444
REMARK  Name = Pipecuronium
REMARK  14 active torsions:
REMARK  status: ('A' for Active; 'I' for Inactive)
REMARK    1  A    between atoms: C_4  and  N_40
REMARK    2  A    between atoms: C_5  and  O_6
REMARK    3  A    between atoms: O_6  and  C_7
REMARK    4  A    between atoms: C_7  and  C_8
REMARK    5  A    between atoms: C_10  and  C_11
REMARK    6  A    between atoms: C_23  and  O_24
REMARK    7  A    between atoms: O_24  and  C_25
REMARK    8  A    between atoms: C_25  and  C_26
REMARK    9  A    between atoms: C_28  and  N_32
REMARK   10  A    between atoms: C_30  and  C_31
REMARK   11  A    between atoms: N_35  and  C_36
REMARK   12  A    between atoms: N_35  and  C_37
REMARK   13  A    between atoms: N_43  and  C_44
REMARK   14  A    between atoms: N_43  and  C_45
REMARK                            x       y       z     vdW  Elec       q    Type
REMARK                         _______ _______ _______ _____ _____    ______ ____
ROOT
ATOM      1  C   UNL     1      -5.198  -0.980 128.613  0.00  0.00    +0.000 C 
ATOM      2  C   UNL     1      -5.838   0.136 127.820  0.00  0.00    +0.000 C 
ATOM      3  C   UNL     1      -5.740  -0.350 126.353  0.00  0.00    +0.000 C 
ATOM      4  C   UNL     1      -5.263  -1.875 126.439  0.00  0.00    +0.000 C 
ATOM      5  C   UNL     1      -5.606  -2.287 127.897  0.00  0.00    +0.000 C 
ATOM      6  C   UNL     1      -7.076  -2.744 128.115  0.00  0.00    +0.000 C 
ATOM      7  C   UNL     1      -4.741  -3.400 128.479  0.00  0.00    +0.000 C 
ATOM      8  C   UNL     1      -4.926  -3.563 129.950  0.00  0.00    +0.000 C 
ATOM      9  C   UNL     1      -4.741  -2.236 130.689  0.00  0.00    +0.000 C 
ATOM     10  C   UNL     1      -5.545  -1.046 130.077  0.00  0.00    +0.000 C 
ATOM     11  C   UNL     1      -5.301   0.265 130.826  0.00  0.00    +0.000 C 
ATOM     12  C   UNL     1      -5.489   0.129 132.333  0.00  0.00    +0.000 C 
ATOM     13  C   UNL     1      -4.655  -1.037 132.843  0.00  0.00    +0.000 C 
ATOM     14  C   UNL     1      -4.487  -0.980 134.376  0.00  0.00    +0.000 C 
ATOM     15  C   UNL     1      -3.705  -2.196 134.943  0.00  0.00    +0.000 C 
ATOM     16  C   UNL     1      -4.199  -3.560 134.366  0.00  0.00    +0.000 C 
ATOM     17  C   UNL     1      -4.228  -3.510 132.813  0.00  0.00    +0.000 C 
ATOM     18  C   UNL     1      -5.117  -2.402 132.172  0.00  0.00    +0.000 C 
ATOM     19  C   UNL     1      -6.677  -2.797 132.027  0.00  0.00    +0.000 C 
ENDROOT
BRANCH  16  20
ATOM     20  N   UNL     1      -5.461  -4.037 134.967  0.00  0.00    +0.000 NA
ATOM     21  C   UNL     1      -5.341  -4.061 136.401  0.00  0.00    +0.000 C 
ATOM     22  C   UNL     1      -6.652  -4.020 137.128  0.00  0.00    +0.000 C 
ATOM     23  N   UNL     1      -7.211  -5.409 136.930  0.00  0.00    +0.000 N 
ATOM     24  C   UNL     1      -6.388  -6.419 137.744  0.00  0.00    +0.000 C 
ATOM     25  C   UNL     1      -8.623  -5.392 137.443  0.00  0.00    +0.000 C 
ATOM     26  C   UNL     1      -7.209  -5.733 135.381  0.00  0.00    +0.000 C 
ATOM     27  C   UNL     1      -5.847  -5.431 134.676  0.00  0.00    +0.000 C 
ENDBRANCH  16  20
BRANCH   3  28
ATOM     28  N   UNL     1      -6.966  -0.087 125.570  0.00  0.00    +0.000 NA
ATOM     29  C   UNL     1      -6.728   0.642 124.315  0.00  0.00    +0.000 C 
ATOM     30  C   UNL     1      -8.057   0.829 123.541  0.00  0.00    +0.000 C 
ATOM     31  N   UNL     1      -9.155   1.544 124.387  0.00  0.00    +0.000 N 
ATOM     32  C   UNL     1      -8.828   3.020 124.577  0.00  0.00    +0.000 C 
ATOM     33  C   UNL     1     -10.495   1.408 123.702  0.00  0.00    +0.000 C 
ATOM     34  C   UNL     1      -9.313   0.828 125.717  0.00  0.00    +0.000 C 
ATOM     35  C   UNL     1      -7.967   0.636 126.349  0.00  0.00    +0.000 C 
ENDBRANCH   3  28
BRANCH   4  36
ATOM     36  O   UNL     1      -5.874  -2.663 125.391  0.00  0.00    +0.000 OA
BRANCH  36  37
ATOM     37  C   UNL     1      -5.335  -3.046 124.220  0.00  0.00    +0.000 C 
ATOM     38  C   UNL     1      -4.371  -4.178 124.195  0.00  0.00    +0.000 C 
ATOM     39  O   UNL     1      -5.686  -2.490 123.170  0.00  0.00    +0.000 OA
ENDBRANCH  36  37
ENDBRANCH   4  36
BRANCH  15  40
ATOM     40  O   UNL     1      -2.311  -1.981 134.638  0.00  0.00    +0.000 OA
BRANCH  40  41
ATOM     41  C   UNL     1      -1.283  -2.398 135.404  0.00  0.00    +0.000 C 
ATOM     42  C   UNL     1      -0.634  -3.726 135.152  0.00  0.00    +0.000 C 
ATOM     43  O   UNL     1      -0.838  -1.645 136.284  0.00  0.00    +0.000 OA
ENDBRANCH  40  41
ENDBRANCH  15  40
TORSDOF 6
ENDMDL
MODEL 8
REMARK VINA RESULT:      -7.5      8.391     12.838
REMARK  Name = Pipecuronium
REMARK  14 active torsions:
REMARK  status: ('A' for Active; 'I' for Inactive)
REMARK    1  A    between atoms: C_4  and  N_40
REMARK    2  A    between atoms: C_5  and  O_6
REMARK    3  A    between atoms: O_6  and  C_7
REMARK    4  A    between atoms: C_7  and  C_8
REMARK    5  A    between atoms: C_10  and  C_11
REMARK    6  A    between atoms: C_23  and  O_24
REMARK    7  A    between atoms: O_24  and  C_25
REMARK    8  A    between atoms: C_25  and  C_26
REMARK    9  A    between atoms: C_28  and  N_32
REMARK   10  A    between atoms: C_30  and  C_31
REMARK   11  A    between atoms: N_35  and  C_36
REMARK   12  A    between atoms: N_35  and  C_37
REMARK   13  A    between atoms: N_43  and  C_44
REMARK   14  A    between atoms: N_43  and  C_45
REMARK                            x       y       z     vdW  Elec       q    Type
REMARK                         _______ _______ _______ _____ _____    ______ ____
ROOT
ATOM      1  C   UNL     1      -5.921   5.204 131.868  0.00  0.00    +0.000 C 
ATOM      2  C   UNL     1      -6.583   4.269 130.883  0.00  0.00    +0.000 C 
ATOM      3  C   UNL     1      -5.707   4.388 129.613  0.00  0.00    +0.000 C 
ATOM      4  C   UNL     1      -4.415   5.220 130.062  0.00  0.00    +0.000 C 
ATOM      5  C   UNL     1      -4.403   5.077 131.608  0.00  0.00    +0.000 C 
ATOM      6  C   UNL     1      -3.737   3.775 132.135  0.00  0.00    +0.000 C 
ATOM      7  C   UNL     1      -3.727   6.217 132.363  0.00  0.00    +0.000 C 
ATOM      8  C   UNL     1      -3.984   6.167 133.831  0.00  0.00    +0.000 C 
ATOM      9  C   UNL     1      -5.480   6.076 134.136  0.00  0.00    +0.000 C 
ATOM     10  C   UNL     1      -6.232   4.975 133.323  0.00  0.00    +0.000 C 
ATOM     11  C   UNL     1      -7.729   4.944 133.634  0.00  0.00    +0.000 C 
ATOM     12  C   UNL     1      -8.021   4.888 135.130  0.00  0.00    +0.000 C 
ATOM     13  C   UNL     1      -7.267   6.006 135.835  0.00  0.00    +0.000 C 
ATOM     14  C   UNL     1      -7.822   6.250 137.254  0.00  0.00    +0.000 C 
ATOM     15  C   UNL     1      -7.027   7.334 138.034  0.00  0.00    +0.000 C 
ATOM     16  C   UNL     1      -5.481   7.145 137.933  0.00  0.00    +0.000 C 
ATOM     17  C   UNL     1      -5.050   7.009 136.447  0.00  0.00    +0.000 C 
ATOM     18  C   UNL     1      -5.698   5.843 135.641  0.00  0.00    +0.000 C 
ATOM     19  C   UNL     1      -4.960   4.416 135.817  0.00  0.00    +0.000 C 
ENDROOT
BRANCH  16  20
ATOM     20  N   UNL     1      -4.956   6.072 138.803  0.00  0.00    +0.000 NA
ATOM     21  C   UNL     1      -5.408   6.275 140.155  0.00  0.00    +0.000 C 
ATOM     22  C   UNL     1      -5.391   5.036 141.000  0.00  0.00    +0.000 C 
ATOM     23  N   UNL     1      -3.924   4.823 141.287  0.00  0.00    +0.000 N 
ATOM     24  C   UNL     1      -3.422   5.912 142.248  0.00  0.00    +0.000 C 
ATOM     25  C   UNL     1      -3.796   3.480 141.949  0.00  0.00    +0.000 C 
ATOM     26  C   UNL     1      -3.140   4.818 139.912  0.00  0.00    +0.000 C 
ATOM     27  C   UNL     1      -3.492   6.023 138.982  0.00  0.00    +0.000 C 
ENDBRANCH  16  20
BRANCH   3  28
ATOM     28  N   UNL     1      -5.456   3.090 128.953  0.00  0.00    +0.000 NA
ATOM     29  C   UNL     1      -5.836   3.058 127.533  0.00  0.00    +0.000 C 
ATOM     30  C   UNL     1      -5.494   1.678 126.916  0.00  0.00    +0.000 C 
ATOM     31  N   UNL     1      -6.153   0.491 127.683  0.00  0.00    +0.000 N 
ATOM     32  C   UNL     1      -7.656   0.448 127.442  0.00  0.00    +0.000 C 
ATOM     33  C   UNL     1      -5.532  -0.812 127.236  0.00  0.00    +0.000 C 
ATOM     34  C   UNL     1      -5.824   0.602 129.161  0.00  0.00    +0.000 C 
ATOM     35  C   UNL     1      -6.125   1.990 129.642  0.00  0.00    +0.000 C 
ENDBRANCH   3  28
BRANCH   4  36
ATOM     36  O   UNL     1      -3.236   4.752 129.366  0.00  0.00    +0.000 OA
BRANCH  36  37
ATOM     37  C   UNL     1      -2.672   5.258 128.256  0.00  0.00    +0.000 C 
ATOM     38  C   UNL     1      -2.324   6.702 128.206  0.00  0.00    +0.000 C 
ATOM     39  O   UNL     1      -2.399   4.508 127.308  0.00  0.00    +0.000 OA
ENDBRANCH  36  37
ENDBRANCH   4  36
BRANCH  15  40
ATOM     40  O   UNL     1      -7.427   8.614 137.502  0.00  0.00    +0.000 OA
BRANCH  40  41
ATOM     41  C   UNL     1      -8.651   9.160 137.648  0.00  0.00    +0.000 C 
ATOM     42  C   UNL     1      -9.044   9.819 138.936  0.00  0.00    +0.000 C 
ATOM     43  O   UNL     1      -9.431   9.164 136.683  0.00  0.00    +0.000 OA
ENDBRANCH  40  41
ENDBRANCH  15  40
TORSDOF 6
ENDMDL
MODEL 9
REMARK VINA RESULT:      -7.4      1.773     10.481
REMARK  Name = Pipecuronium
REMARK  14 active torsions:
REMARK  status: ('A' for Active; 'I' for Inactive)
REMARK    1  A    between atoms: C_4  and  N_40
REMARK    2  A    between atoms: C_5  and  O_6
REMARK    3  A    between atoms: O_6  and  C_7
REMARK    4  A    between atoms: C_7  and  C_8
REMARK    5  A    between atoms: C_10  and  C_11
REMARK    6  A    between atoms: C_23  and  O_24
REMARK    7  A    between atoms: O_24  and  C_25
REMARK    8  A    between atoms: C_25  and  C_26
REMARK    9  A    between atoms: C_28  and  N_32
REMARK   10  A    between atoms: C_30  and  C_31
REMARK   11  A    between atoms: N_35  and  C_36
REMARK   12  A    between atoms: N_35  and  C_37
REMARK   13  A    between atoms: N_43  and  C_44
REMARK   14  A    between atoms: N_43  and  C_45
REMARK                            x       y       z     vdW  Elec       q    Type
REMARK                         _______ _______ _______ _____ _____    ______ ____
ROOT
ATOM      1  C   UNL     1      -5.684  -1.656 129.422  0.00  0.00    +0.000 C 
ATOM      2  C   UNL     1      -5.207  -0.467 128.620  0.00  0.00    +0.000 C 
ATOM      3  C   UNL     1      -5.905  -0.642 127.249  0.00  0.00    +0.000 C 
ATOM      4  C   UNL     1      -6.967  -1.822 127.458  0.00  0.00    +0.000 C 
ATOM      5  C   UNL     1      -7.153  -1.883 128.999  0.00  0.00    +0.000 C 
ATOM      6  C   UNL     1      -8.183  -0.868 129.569  0.00  0.00    +0.000 C 
ATOM      7  C   UNL     1      -7.569  -3.243 129.551  0.00  0.00    +0.000 C 
ATOM      8  C   UNL     1      -7.465  -3.315 131.037  0.00  0.00    +0.000 C 
ATOM      9  C   UNL     1      -6.079  -2.890 131.524  0.00  0.00    +0.000 C 
ATOM     10  C   UNL     1      -5.575  -1.542 130.919  0.00  0.00    +0.000 C 
ATOM     11  C   UNL     1      -4.172  -1.175 131.407  0.00  0.00    +0.000 C 
ATOM     12  C   UNL     1      -4.039  -1.237 132.925  0.00  0.00    +0.000 C 
ATOM     13  C   UNL     1      -4.531  -2.589 133.421  0.00  0.00    +0.000 C 
ATOM     14  C   UNL     1      -4.060  -2.863 134.865  0.00  0.00    +0.000 C 
ATOM     15  C   UNL     1      -4.607  -4.201 135.434  0.00  0.00    +0.000 C 
ATOM     16  C   UNL     1      -6.133  -4.396 135.170  0.00  0.00    +0.000 C 
ATOM     17  C   UNL     1      -6.452  -4.186 133.664  0.00  0.00    +0.000 C 
ATOM     18  C   UNL     1      -6.064  -2.802 133.060  0.00  0.00    +0.000 C 
ATOM     19  C   UNL     1      -7.165  -1.641 133.288  0.00  0.00    +0.000 C 
ENDROOT
BRANCH  16  20
ATOM     20  N   UNL     1      -6.996  -3.608 136.074  0.00  0.00    +0.000 NA
ATOM     21  C   UNL     1      -6.545  -3.757 137.433  0.00  0.00    +0.000 C 
ATOM     22  C   UNL     1      -6.979  -2.651 138.348  0.00  0.00    +0.000 C 
ATOM     23  N   UNL     1      -8.447  -2.930 138.571  0.00  0.00    +0.000 N 
ATOM     24  C   UNL     1      -8.607  -4.189 139.438  0.00  0.00    +0.000 C 
ATOM     25  C   UNL     1      -9.013  -1.747 139.304  0.00  0.00    +0.000 C 
ATOM     26  C   UNL     1      -9.149  -3.071 137.160  0.00  0.00    +0.000 C 
ATOM     27  C   UNL     1      -8.405  -4.034 136.179  0.00  0.00    +0.000 C 
ENDBRANCH  16  20
BRANCH   3  28
ATOM     28  N   UNL     1      -6.430   0.624 126.697  0.00  0.00    +0.000 NA
ATOM     29  C   UNL     1      -6.039   0.875 125.302  0.00  0.00    +0.000 C 
ATOM     30  C   UNL     1      -6.671   2.195 124.794  0.00  0.00    +0.000 C 
ATOM     31  N   UNL     1      -6.313   3.421 125.689  0.00  0.00    +0.000 N 
ATOM     32  C   UNL     1      -4.854   3.821 125.513  0.00  0.00    +0.000 C 
ATOM     33  C   UNL     1      -7.203   4.590 125.334  0.00  0.00    +0.000 C 
ATOM     34  C   UNL     1      -6.637   3.101 127.137  0.00  0.00    +0.000 C 
ATOM     35  C   UNL     1      -6.040   1.775 127.506  0.00  0.00    +0.000 C 
ENDBRANCH   3  28
BRANCH   4  36
ATOM     36  O   UNL     1      -8.161  -1.581 126.678  0.00  0.00    +0.000 OA
BRANCH  36  37
ATOM     37  C   UNL     1      -8.744  -2.395 125.780  0.00  0.00    +0.000 C 
ATOM     38  C   UNL     1      -7.915  -3.385 125.044  0.00  0.00    +0.000 C 
ATOM     39  O   UNL     1      -9.972  -2.349 125.615  0.00  0.00    +0.000 OA
ENDBRANCH  36  37
ENDBRANCH   4  36
BRANCH  15  40
ATOM     40  O   UNL     1      -3.839  -5.262 134.829  0.00  0.00    +0.000 OA
BRANCH  40  41
ATOM     41  C   UNL     1      -2.512  -5.214 134.595  0.00  0.00    +0.000 C 
ATOM     42  C   UNL     1      -1.533  -5.364 135.720  0.00  0.00    +0.000 C 
ATOM     43  O   UNL     1      -2.106  -5.104 133.427  0.00  0.00    +0.000 OA
ENDBRANCH  40  41
ENDBRANCH  15  40
TORSDOF 6
ENDMDL
