MODEL 1
REMARK VINA RESULT:      -5.9      0.000      0.000
REMARK  Name = Piperonyl butoxide
REMARK  15 active torsions:
REMARK  status: ('A' for Active; 'I' for Inactive)
REMARK    1  A    between atoms: C_1  and  C_2
REMARK    2  A    between atoms: C_2  and  C_3
REMARK    3  A    between atoms: C_3  and  C_4
REMARK    4  A    between atoms: C_4  and  O_5
REMARK    5  A    between atoms: O_5  and  C_6
REMARK    6  A    between atoms: C_6  and  C_7
REMARK    7  A    between atoms: C_7  and  O_8
REMARK    8  A    between atoms: O_8  and  C_9
REMARK    9  A    between atoms: C_9  and  C_10
REMARK   10  A    between atoms: C_10  and  O_11
REMARK   11  A    between atoms: O_11  and  C_12
REMARK   12  A    between atoms: C_12  and  C_13
REMARK   13  A    between atoms: C_21  and  C_22
REMARK   14  A    between atoms: C_22  and  C_23
REMARK   15  A    between atoms: C_23  and  C_24
REMARK                            x       y       z     vdW  Elec       q    Type
REMARK                         _______ _______ _______ _____ _____    ______ ____
ROOT
ATOM      1  C   UNL     1      -7.048   6.116 130.667  0.00  0.00    +0.000 C 
ENDROOT
BRANCH   1   2
ATOM      2  C   UNL     1      -8.484   6.273 131.140  0.00  0.00    +0.000 A 
ATOM      3  C   UNL     1      -9.356   6.802 130.159  0.00  0.00    +0.000 A 
ATOM      4  C   UNL     1     -10.691   6.924 130.435  0.00  0.00    +0.000 A 
ATOM      5  C   UNL     1     -11.215   6.549 131.643  0.00  0.00    +0.000 A 
ATOM      6  O   UNL     1     -12.560   6.735 131.702  0.00  0.00    +0.000 OA
ATOM      7  C   UNL     1     -12.804   7.339 130.412  0.00  0.00    +0.000 C 
ATOM      8  O   UNL     1     -11.633   7.397 129.577  0.00  0.00    +0.000 OA
ATOM      9  C   UNL     1     -10.412   6.044 132.649  0.00  0.00    +0.000 A 
ATOM     10  C   UNL     1      -9.016   5.906 132.428  0.00  0.00    +0.000 A 
BRANCH  10  11
ATOM     11  C   UNL     1      -8.242   5.343 133.634  0.00  0.00    +0.000 C 
BRANCH  11  12
ATOM     12  C   UNL     1      -8.748   4.017 134.157  0.00  0.00    +0.000 C 
ATOM     13  C   UNL     1      -8.810   2.795 133.283  0.00  0.00    +0.000 C 
ENDBRANCH  11  12
ENDBRANCH  10  11
ENDBRANCH   1   2
BRANCH   1  14
ATOM     14  O   UNL     1      -6.247   7.144 131.246  0.00  0.00    +0.000 OA
BRANCH  14  15
ATOM     15  C   UNL     1      -4.948   6.687 131.624  0.00  0.00    +0.000 C 
BRANCH  15  16
ATOM     16  C   UNL     1      -3.898   7.617 131.024  0.00  0.00    +0.000 C 
BRANCH  16  17
ATOM     17  O   UNL     1      -2.740   6.850 130.706  0.00  0.00    +0.000 OA
BRANCH  17  18
ATOM     18  C   UNL     1      -2.957   6.046 129.549  0.00  0.00    +0.000 C 
BRANCH  18  19
ATOM     19  C   UNL     1      -3.285   6.959 128.382  0.00  0.00    +0.000 C 
BRANCH  19  20
ATOM     20  O   UNL     1      -4.228   6.318 127.529  0.00  0.00    +0.000 OA
BRANCH  20  21
ATOM     21  C   UNL     1      -4.289   4.926 127.818  0.00  0.00    +0.000 C 
BRANCH  21  22
ATOM     22  C   UNL     1      -4.432   4.161 126.513  0.00  0.00    +0.000 C 
BRANCH  22  24
ATOM     23  C   UNL     1      -2.109   3.408 127.090  0.00  0.00    +0.000 C 
ATOM     24  C   UNL     1      -3.430   3.013 126.460  0.00  0.00    +0.000 C 
ENDBRANCH  22  24
ENDBRANCH  21  22
ENDBRANCH  20  21
ENDBRANCH  19  20
ENDBRANCH  18  19
ENDBRANCH  17  18
ENDBRANCH  16  17
ENDBRANCH  15  16
ENDBRANCH  14  15
ENDBRANCH   1  14
TORSDOF 13
ENDMDL
MODEL 2
REMARK VINA RESULT:      -5.8      1.270      2.562
REMARK  Name = Piperonyl butoxide
REMARK  15 active torsions:
REMARK  status: ('A' for Active; 'I' for Inactive)
REMARK    1  A    between atoms: C_1  and  C_2
REMARK    2  A    between atoms: C_2  and  C_3
REMARK    3  A    between atoms: C_3  and  C_4
REMARK    4  A    between atoms: C_4  and  O_5
REMARK    5  A    between atoms: O_5  and  C_6
REMARK    6  A    between atoms: C_6  and  C_7
REMARK    7  A    between atoms: C_7  and  O_8
REMARK    8  A    between atoms: O_8  and  C_9
REMARK    9  A    between atoms: C_9  and  C_10
REMARK   10  A    between atoms: C_10  and  O_11
REMARK   11  A    between atoms: O_11  and  C_12
REMARK   12  A    between atoms: C_12  and  C_13
REMARK   13  A    between atoms: C_21  and  C_22
REMARK   14  A    between atoms: C_22  and  C_23
REMARK   15  A    between atoms: C_23  and  C_24
REMARK                            x       y       z     vdW  Elec       q    Type
REMARK                         _______ _______ _______ _____ _____    ______ ____
ROOT
ATOM      1  C   UNL     1      -6.921   6.543 131.031  0.00  0.00    +0.000 C 
ENDROOT
BRANCH   1   2
ATOM      2  C   UNL     1      -8.399   6.544 131.387  0.00  0.00    +0.000 A 
ATOM      3  C   UNL     1      -9.230   7.094 130.383  0.00  0.00    +0.000 A 
ATOM      4  C   UNL     1     -10.588   7.086 130.548  0.00  0.00    +0.000 A 
ATOM      5  C   UNL     1     -11.175   6.560 131.668  0.00  0.00    +0.000 A 
ATOM      6  O   UNL     1     -12.531   6.635 131.623  0.00  0.00    +0.000 OA
ATOM      7  C   UNL     1     -12.720   7.337 130.374  0.00  0.00    +0.000 C 
ATOM      8  O   UNL     1     -11.494   7.564 129.654  0.00  0.00    +0.000 OA
ATOM      9  C   UNL     1     -10.417   6.026 132.693  0.00  0.00    +0.000 A 
ATOM     10  C   UNL     1      -9.001   6.017 132.586  0.00  0.00    +0.000 A 
BRANCH  10  11
ATOM     11  C   UNL     1      -8.282   5.405 133.801  0.00  0.00    +0.000 C 
BRANCH  11  12
ATOM     12  C   UNL     1      -8.723   4.005 134.167  0.00  0.00    +0.000 C 
ATOM     13  C   UNL     1      -8.568   2.853 133.213  0.00  0.00    +0.000 C 
ENDBRANCH  11  12
ENDBRANCH  10  11
ENDBRANCH   1   2
BRANCH   1  14
ATOM     14  O   UNL     1      -6.483   5.199 130.846  0.00  0.00    +0.000 OA
BRANCH  14  15
ATOM     15  C   UNL     1      -7.139   4.547 129.759  0.00  0.00    +0.000 C 
BRANCH  15  16
ATOM     16  C   UNL     1      -6.089   3.998 128.798  0.00  0.00    +0.000 C 
BRANCH  16  17
ATOM     17  O   UNL     1      -6.025   4.851 127.659  0.00  0.00    +0.000 OA
BRANCH  17  18
ATOM     18  C   UNL     1      -4.828   4.629 126.919  0.00  0.00    +0.000 C 
BRANCH  18  19
ATOM     19  C   UNL     1      -3.702   5.407 127.577  0.00  0.00    +0.000 C 
BRANCH  19  20
ATOM     20  O   UNL     1      -4.122   6.751 127.798  0.00  0.00    +0.000 OA
BRANCH  20  21
ATOM     21  C   UNL     1      -3.249   7.396 128.718  0.00  0.00    +0.000 C 
BRANCH  21  22
ATOM     22  C   UNL     1      -2.186   6.404 129.161  0.00  0.00    +0.000 C 
BRANCH  22  24
ATOM     23  C   UNL     1      -2.496   5.096 131.279  0.00  0.00    +0.000 C 
ATOM     24  C   UNL     1      -2.051   6.415 130.679  0.00  0.00    +0.000 C 
ENDBRANCH  22  24
ENDBRANCH  21  22
ENDBRANCH  20  21
ENDBRANCH  19  20
ENDBRANCH  18  19
ENDBRANCH  17  18
ENDBRANCH  16  17
ENDBRANCH  15  16
ENDBRANCH  14  15
ENDBRANCH   1  14
TORSDOF 13
ENDMDL
MODEL 3
REMARK VINA RESULT:      -5.8      6.511      9.697
REMARK  Name = Piperonyl butoxide
REMARK  15 active torsions:
REMARK  status: ('A' for Active; 'I' for Inactive)
REMARK    1  A    between atoms: C_1  and  C_2
REMARK    2  A    between atoms: C_2  and  C_3
REMARK    3  A    between atoms: C_3  and  C_4
REMARK    4  A    between atoms: C_4  and  O_5
REMARK    5  A    between atoms: O_5  and  C_6
REMARK    6  A    between atoms: C_6  and  C_7
REMARK    7  A    between atoms: C_7  and  O_8
REMARK    8  A    between atoms: O_8  and  C_9
REMARK    9  A    between atoms: C_9  and  C_10
REMARK   10  A    between atoms: C_10  and  O_11
REMARK   11  A    between atoms: O_11  and  C_12
REMARK   12  A    between atoms: C_12  and  C_13
REMARK   13  A    between atoms: C_21  and  C_22
REMARK   14  A    between atoms: C_22  and  C_23
REMARK   15  A    between atoms: C_23  and  C_24
REMARK                            x       y       z     vdW  Elec       q    Type
REMARK                         _______ _______ _______ _____ _____    ______ ____
ROOT
ATOM      1  C   UNL     1      -8.735  -2.343 124.247  0.00  0.00    +0.000 C 
ENDROOT
BRANCH   1   2
ATOM      2  C   UNL     1      -7.903  -2.380 125.519  0.00  0.00    +0.000 A 
ATOM      3  C   UNL     1      -8.647  -2.687 126.682  0.00  0.00    +0.000 A 
ATOM      4  C   UNL     1      -8.004  -2.824 127.881  0.00  0.00    +0.000 A 
ATOM      5  C   UNL     1      -6.648  -2.668 127.994  0.00  0.00    +0.000 A 
ATOM      6  O   UNL     1      -6.210  -2.865 129.266  0.00  0.00    +0.000 OA
ATOM      7  C   UNL     1      -7.463  -3.091 129.949  0.00  0.00    +0.000 C 
ATOM      8  O   UNL     1      -8.598  -3.135 129.064  0.00  0.00    +0.000 OA
ATOM      9  C   UNL     1      -5.868  -2.348 126.899  0.00  0.00    +0.000 A 
ATOM     10  C   UNL     1      -6.480  -2.180 125.629  0.00  0.00    +0.000 A 
BRANCH  10  11
ATOM     11  C   UNL     1      -5.497  -1.815 124.501  0.00  0.00    +0.000 C 
BRANCH  11  12
ATOM     12  C   UNL     1      -5.248  -2.911 123.490  0.00  0.00    +0.000 C 
ATOM     13  C   UNL     1      -4.522  -4.175 123.858  0.00  0.00    +0.000 C 
ENDBRANCH  11  12
ENDBRANCH  10  11
ENDBRANCH   1   2
BRANCH   1  14
ATOM     14  O   UNL     1      -9.522  -1.154 124.234  0.00  0.00    +0.000 OA
BRANCH  14  15
ATOM     15  C   UNL     1      -8.753   0.017 123.955  0.00  0.00    +0.000 C 
BRANCH  15  16
ATOM     16  C   UNL     1      -9.598   1.251 124.251  0.00  0.00    +0.000 C 
BRANCH  16  17
ATOM     17  O   UNL     1      -9.266   1.729 125.552  0.00  0.00    +0.000 OA
BRANCH  17  18
ATOM     18  C   UNL     1      -7.947   1.336 125.921  0.00  0.00    +0.000 C 
BRANCH  18  19
ATOM     19  C   UNL     1      -7.092   2.583 126.052  0.00  0.00    +0.000 C 
BRANCH  19  20
ATOM     20  O   UNL     1      -5.841   2.370 125.402  0.00  0.00    +0.000 OA
BRANCH  20  21
ATOM     21  C   UNL     1      -5.199   3.614 125.148  0.00  0.00    +0.000 C 
BRANCH  21  22
ATOM     22  C   UNL     1      -4.306   3.954 126.328  0.00  0.00    +0.000 C 
BRANCH  22  24
ATOM     23  C   UNL     1      -1.918   3.214 126.547  0.00  0.00    +0.000 C 
ATOM     24  C   UNL     1      -3.371   2.790 126.637  0.00  0.00    +0.000 C 
ENDBRANCH  22  24
ENDBRANCH  21  22
ENDBRANCH  20  21
ENDBRANCH  19  20
ENDBRANCH  18  19
ENDBRANCH  17  18
ENDBRANCH  16  17
ENDBRANCH  15  16
ENDBRANCH  14  15
ENDBRANCH   1  14
TORSDOF 13
ENDMDL
MODEL 4
REMARK VINA RESULT:      -5.7      1.768      3.050
REMARK  Name = Piperonyl butoxide
REMARK  15 active torsions:
REMARK  status: ('A' for Active; 'I' for Inactive)
REMARK    1  A    between atoms: C_1  and  C_2
REMARK    2  A    between atoms: C_2  and  C_3
REMARK    3  A    between atoms: C_3  and  C_4
REMARK    4  A    between atoms: C_4  and  O_5
REMARK    5  A    between atoms: O_5  and  C_6
REMARK    6  A    between atoms: C_6  and  C_7
REMARK    7  A    between atoms: C_7  and  O_8
REMARK    8  A    between atoms: O_8  and  C_9
REMARK    9  A    between atoms: C_9  and  C_10
REMARK   10  A    between atoms: C_10  and  O_11
REMARK   11  A    between atoms: O_11  and  C_12
REMARK   12  A    between atoms: C_12  and  C_13
REMARK   13  A    between atoms: C_21  and  C_22
REMARK   14  A    between atoms: C_22  and  C_23
REMARK   15  A    between atoms: C_23  and  C_24
REMARK                            x       y       z     vdW  Elec       q    Type
REMARK                         _______ _______ _______ _____ _____    ______ ____
ROOT
ATOM      1  C   UNL     1      -5.931   6.156 132.158  0.00  0.00    +0.000 C 
ENDROOT
BRANCH   1   2
ATOM      2  C   UNL     1      -7.427   6.319 131.939  0.00  0.00    +0.000 A 
ATOM      3  C   UNL     1      -7.760   7.049 130.774  0.00  0.00    +0.000 A 
ATOM      4  C   UNL     1      -9.074   7.201 130.423  0.00  0.00    +0.000 A 
ATOM      5  C   UNL     1     -10.087   6.668 131.174  0.00  0.00    +0.000 A 
ATOM      6  O   UNL     1     -11.311   6.920 130.640  0.00  0.00    +0.000 OA
ATOM      7  C   UNL     1     -10.947   7.737 129.505  0.00  0.00    +0.000 C 
ATOM      8  O   UNL     1      -9.525   7.861 129.324  0.00  0.00    +0.000 OA
ATOM      9  C   UNL     1      -9.827   5.962 132.333  0.00  0.00    +0.000 A 
ATOM     10  C   UNL     1      -8.485   5.780 132.757  0.00  0.00    +0.000 A 
BRANCH  10  11
ATOM     11  C   UNL     1      -8.341   4.986 134.068  0.00  0.00    +0.000 C 
BRANCH  11  12
ATOM     12  C   UNL     1      -8.627   3.505 133.953  0.00  0.00    +0.000 C 
ATOM     13  C   UNL     1      -7.554   2.520 133.578  0.00  0.00    +0.000 C 
ENDBRANCH  11  12
ENDBRANCH  10  11
ENDBRANCH   1   2
BRANCH   1  14
ATOM     14  O   UNL     1      -5.229   6.996 131.243  0.00  0.00    +0.000 OA
BRANCH  14  15
ATOM     15  C   UNL     1      -3.834   6.697 131.177  0.00  0.00    +0.000 C 
BRANCH  15  16
ATOM     16  C   UNL     1      -3.554   5.902 129.906  0.00  0.00    +0.000 C 
BRANCH  16  17
ATOM     17  O   UNL     1      -3.540   4.515 130.231  0.00  0.00    +0.000 OA
BRANCH  17  18
ATOM     18  C   UNL     1      -4.474   3.792 129.435  0.00  0.00    +0.000 C 
BRANCH  18  19
ATOM     19  C   UNL     1      -5.000   4.714 128.350  0.00  0.00    +0.000 C 
BRANCH  19  20
ATOM     20  O   UNL     1      -6.424   4.737 128.397  0.00  0.00    +0.000 OA
BRANCH  20  21
ATOM     21  C   UNL     1      -6.906   3.709 129.255  0.00  0.00    +0.000 C 
BRANCH  21  22
ATOM     22  C   UNL     1      -8.424   3.748 129.260  0.00  0.00    +0.000 C 
BRANCH  22  24
ATOM     23  C   UNL     1     -10.335   2.964 130.685  0.00  0.00    +0.000 C 
ATOM     24  C   UNL     1      -8.981   2.607 130.104  0.00  0.00    +0.000 C 
ENDBRANCH  22  24
ENDBRANCH  21  22
ENDBRANCH  20  21
ENDBRANCH  19  20
ENDBRANCH  18  19
ENDBRANCH  17  18
ENDBRANCH  16  17
ENDBRANCH  15  16
ENDBRANCH  14  15
ENDBRANCH   1  14
TORSDOF 13
ENDMDL
MODEL 5
REMARK VINA RESULT:      -5.7      5.563      8.995
REMARK  Name = Piperonyl butoxide
REMARK  15 active torsions:
REMARK  status: ('A' for Active; 'I' for Inactive)
REMARK    1  A    between atoms: C_1  and  C_2
REMARK    2  A    between atoms: C_2  and  C_3
REMARK    3  A    between atoms: C_3  and  C_4
REMARK    4  A    between atoms: C_4  and  O_5
REMARK    5  A    between atoms: O_5  and  C_6
REMARK    6  A    between atoms: C_6  and  C_7
REMARK    7  A    between atoms: C_7  and  O_8
REMARK    8  A    between atoms: O_8  and  C_9
REMARK    9  A    between atoms: C_9  and  C_10
REMARK   10  A    between atoms: C_10  and  O_11
REMARK   11  A    between atoms: O_11  and  C_12
REMARK   12  A    between atoms: C_12  and  C_13
REMARK   13  A    between atoms: C_21  and  C_22
REMARK   14  A    between atoms: C_22  and  C_23
REMARK   15  A    between atoms: C_23  and  C_24
REMARK                            x       y       z     vdW  Elec       q    Type
REMARK                         _______ _______ _______ _____ _____    ______ ____
ROOT
ATOM      1  C   UNL     1      -8.031   1.173 128.153  0.00  0.00    +0.000 C 
ENDROOT
BRANCH   1   2
ATOM      2  C   UNL     1      -8.411   0.499 126.844  0.00  0.00    +0.000 A 
ATOM      3  C   UNL     1      -9.125   1.337 125.955  0.00  0.00    +0.000 A 
ATOM      4  C   UNL     1      -9.462   0.874 124.712  0.00  0.00    +0.000 A 
ATOM      5  C   UNL     1      -9.130  -0.389 124.298  0.00  0.00    +0.000 A 
ATOM      6  O   UNL     1      -9.541  -0.640 123.027  0.00  0.00    +0.000 OA
ATOM      7  C   UNL     1     -10.235   0.591 122.721  0.00  0.00    +0.000 C 
ATOM      8  O   UNL     1     -10.128   1.581 123.761  0.00  0.00    +0.000 OA
ATOM      9  C   UNL     1      -8.450  -1.261 125.128  0.00  0.00    +0.000 A 
ATOM     10  C   UNL     1      -8.084  -0.843 126.434  0.00  0.00    +0.000 A 
BRANCH  10  11
ATOM     11  C   UNL     1      -7.344  -1.916 127.253  0.00  0.00    +0.000 C 
BRANCH  11  12
ATOM     12  C   UNL     1      -8.202  -2.673 128.241  0.00  0.00    +0.000 C 
ATOM     13  C   UNL     1      -8.945  -3.920 127.849  0.00  0.00    +0.000 C 
ENDBRANCH  11  12
ENDBRANCH  10  11
ENDBRANCH   1   2
BRANCH   1  14
ATOM     14  O   UNL     1      -9.063   2.081 128.531  0.00  0.00    +0.000 OA
BRANCH  14  15
ATOM     15  C   UNL     1      -8.672   2.954 129.591  0.00  0.00    +0.000 C 
BRANCH  15  16
ATOM     16  C   UNL     1      -9.849   3.142 130.543  0.00  0.00    +0.000 C 
BRANCH  16  17
ATOM     17  O   UNL     1     -10.814   3.978 129.912  0.00  0.00    +0.000 OA
BRANCH  17  18
ATOM     18  C   UNL     1     -10.472   5.355 130.052  0.00  0.00    +0.000 C 
BRANCH  18  19
ATOM     19  C   UNL     1     -11.032   5.859 131.370  0.00  0.00    +0.000 C 
BRANCH  19  20
ATOM     20  O   UNL     1     -12.245   6.566 131.129  0.00  0.00    +0.000 OA
BRANCH  20  21
ATOM     21  C   UNL     1     -12.269   7.067 129.797  0.00  0.00    +0.000 C 
BRANCH  21  22
ATOM     22  C   UNL     1     -12.563   8.557 129.840  0.00  0.00    +0.000 C 
BRANCH  22  24
ATOM     23  C   UNL     1     -13.744   7.793 127.762  0.00  0.00    +0.000 C 
ATOM     24  C   UNL     1     -13.284   8.991 128.569  0.00  0.00    +0.000 C 
ENDBRANCH  22  24
ENDBRANCH  21  22
ENDBRANCH  20  21
ENDBRANCH  19  20
ENDBRANCH  18  19
ENDBRANCH  17  18
ENDBRANCH  16  17
ENDBRANCH  15  16
ENDBRANCH  14  15
ENDBRANCH   1  14
TORSDOF 13
ENDMDL
MODEL 6
REMARK VINA RESULT:      -5.7      7.245     10.689
REMARK  Name = Piperonyl butoxide
REMARK  15 active torsions:
REMARK  status: ('A' for Active; 'I' for Inactive)
REMARK    1  A    between atoms: C_1  and  C_2
REMARK    2  A    between atoms: C_2  and  C_3
REMARK    3  A    between atoms: C_3  and  C_4
REMARK    4  A    between atoms: C_4  and  O_5
REMARK    5  A    between atoms: O_5  and  C_6
REMARK    6  A    between atoms: C_6  and  C_7
REMARK    7  A    between atoms: C_7  and  O_8
REMARK    8  A    between atoms: O_8  and  C_9
REMARK    9  A    between atoms: C_9  and  C_10
REMARK   10  A    between atoms: C_10  and  O_11
REMARK   11  A    between atoms: O_11  and  C_12
REMARK   12  A    between atoms: C_12  and  C_13
REMARK   13  A    between atoms: C_21  and  C_22
REMARK   14  A    between atoms: C_22  and  C_23
REMARK   15  A    between atoms: C_23  and  C_24
REMARK                            x       y       z     vdW  Elec       q    Type
REMARK                         _______ _______ _______ _____ _____    ______ ____
ROOT
ATOM      1  C   UNL     1      -9.163   2.340 123.545  0.00  0.00    +0.000 C 
ENDROOT
BRANCH   1   2
ATOM      2  C   UNL     1      -8.093   2.931 122.641  0.00  0.00    +0.000 A 
ATOM      3  C   UNL     1      -8.567   3.308 121.362  0.00  0.00    +0.000 A 
ATOM      4  C   UNL     1      -7.720   3.921 120.480  0.00  0.00    +0.000 A 
ATOM      5  C   UNL     1      -6.413   4.183 120.797  0.00  0.00    +0.000 A 
ATOM      6  O   UNL     1      -5.754   4.813 119.790  0.00  0.00    +0.000 OA
ATOM      7  C   UNL     1      -6.784   4.849 118.776  0.00  0.00    +0.000 C 
ATOM      8  O   UNL     1      -8.053   4.347 119.233  0.00  0.00    +0.000 OA
ATOM      9  C   UNL     1      -5.886   3.822 122.023  0.00  0.00    +0.000 A 
ATOM     10  C   UNL     1      -6.712   3.170 122.976  0.00  0.00    +0.000 A 
BRANCH  10  11
ATOM     11  C   UNL     1      -5.994   2.816 124.292  0.00  0.00    +0.000 C 
BRANCH  11  12
ATOM     12  C   UNL     1      -6.215   3.792 125.425  0.00  0.00    +0.000 C 
ATOM     13  C   UNL     1      -5.068   4.483 126.107  0.00  0.00    +0.000 C 
ENDBRANCH  11  12
ENDBRANCH  10  11
ENDBRANCH   1   2
BRANCH   1  14
ATOM     14  O   UNL     1      -8.964   0.931 123.648  0.00  0.00    +0.000 OA
BRANCH  14  15
ATOM     15  C   UNL     1      -9.798   0.187 122.759  0.00  0.00    +0.000 C 
BRANCH  15  16
ATOM     16  C   UNL     1      -9.366  -1.275 122.777  0.00  0.00    +0.000 C 
BRANCH  16  17
ATOM     17  O   UNL     1      -7.945  -1.329 122.860  0.00  0.00    +0.000 OA
BRANCH  17  18
ATOM     18  C   UNL     1      -7.521  -2.370 123.736  0.00  0.00    +0.000 C 
BRANCH  18  19
ATOM     19  C   UNL     1      -8.746  -3.133 124.207  0.00  0.00    +0.000 C 
BRANCH  19  20
ATOM     20  O   UNL     1      -8.697  -3.279 125.624  0.00  0.00    +0.000 OA
BRANCH  20  21
ATOM     21  C   UNL     1      -8.711  -2.003 126.252  0.00  0.00    +0.000 C 
BRANCH  21  22
ATOM     22  C   UNL     1      -7.975  -2.101 127.577  0.00  0.00    +0.000 C 
BRANCH  22  24
ATOM     23  C   UNL     1      -7.530  -3.572 129.561  0.00  0.00    +0.000 C 
ATOM     24  C   UNL     1      -8.338  -3.399 128.289  0.00  0.00    +0.000 C 
ENDBRANCH  22  24
ENDBRANCH  21  22
ENDBRANCH  20  21
ENDBRANCH  19  20
ENDBRANCH  18  19
ENDBRANCH  17  18
ENDBRANCH  16  17
ENDBRANCH  15  16
ENDBRANCH  14  15
ENDBRANCH   1  14
TORSDOF 13
ENDMDL
MODEL 7
REMARK VINA RESULT:      -5.6      8.077     10.113
REMARK  Name = Piperonyl butoxide
REMARK  15 active torsions:
REMARK  status: ('A' for Active; 'I' for Inactive)
REMARK    1  A    between atoms: C_1  and  C_2
REMARK    2  A    between atoms: C_2  and  C_3
REMARK    3  A    between atoms: C_3  and  C_4
REMARK    4  A    between atoms: C_4  and  O_5
REMARK    5  A    between atoms: O_5  and  C_6
REMARK    6  A    between atoms: C_6  and  C_7
REMARK    7  A    between atoms: C_7  and  O_8
REMARK    8  A    between atoms: O_8  and  C_9
REMARK    9  A    between atoms: C_9  and  C_10
REMARK   10  A    between atoms: C_10  and  O_11
REMARK   11  A    between atoms: O_11  and  C_12
REMARK   12  A    between atoms: C_12  and  C_13
REMARK   13  A    between atoms: C_21  and  C_22
REMARK   14  A    between atoms: C_22  and  C_23
REMARK   15  A    between atoms: C_23  and  C_24
REMARK                            x       y       z     vdW  Elec       q    Type
REMARK                         _______ _______ _______ _____ _____    ______ ____
ROOT
ATOM      1  C   UNL     1      -8.998  -2.354 125.458  0.00  0.00    +0.000 C 
ENDROOT
BRANCH   1   2
ATOM      2  C   UNL     1      -7.879  -2.390 126.486  0.00  0.00    +0.000 A 
ATOM      3  C   UNL     1      -8.284  -2.856 127.759  0.00  0.00    +0.000 A 
ATOM      4  C   UNL     1      -7.356  -3.006 128.753  0.00  0.00    +0.000 A 
ATOM      5  C   UNL     1      -6.033  -2.713 128.554  0.00  0.00    +0.000 A 
ATOM      6  O   UNL     1      -5.280  -2.950 129.660  0.00  0.00    +0.000 OA
ATOM      7  C   UNL     1      -6.302  -3.356 130.599  0.00  0.00    +0.000 C 
ATOM      8  O   UNL     1      -7.611  -3.461 130.008  0.00  0.00    +0.000 OA
ATOM      9  C   UNL     1      -5.578  -2.235 127.339  0.00  0.00    +0.000 A 
ATOM     10  C   UNL     1      -6.496  -2.045 126.273  0.00  0.00    +0.000 A 
BRANCH  10  11
ATOM     11  C   UNL     1      -5.857  -1.499 124.983  0.00  0.00    +0.000 C 
BRANCH  11  12
ATOM     12  C   UNL     1      -4.840  -2.411 124.336  0.00  0.00    +0.000 C 
ATOM     13  C   UNL     1      -5.202  -3.796 123.874  0.00  0.00    +0.000 C 
ENDBRANCH  11  12
ENDBRANCH  10  11
ENDBRANCH   1   2
BRANCH   1  14
ATOM     14  O   UNL     1      -9.867  -1.261 125.747  0.00  0.00    +0.000 OA
BRANCH  14  15
ATOM     15  C   UNL     1      -9.172  -0.021 125.878  0.00  0.00    +0.000 C 
BRANCH  15  16
ATOM     16  C   UNL     1      -9.116   0.666 124.518  0.00  0.00    +0.000 C 
BRANCH  16  17
ATOM     17  O   UNL     1      -9.623   1.991 124.656  0.00  0.00    +0.000 OA
BRANCH  17  18
ATOM     18  C   UNL     1      -8.679   2.952 124.194  0.00  0.00    +0.000 C 
BRANCH  18  19
ATOM     19  C   UNL     1      -8.008   2.409 122.945  0.00  0.00    +0.000 C 
BRANCH  19  20
ATOM     20  O   UNL     1      -8.573   3.031 121.795  0.00  0.00    +0.000 OA
BRANCH  20  21
ATOM     21  C   UNL     1      -7.580   3.775 121.098  0.00  0.00    +0.000 C 
BRANCH  21  22
ATOM     22  C   UNL     1      -6.214   3.202 121.435  0.00  0.00    +0.000 C 
BRANCH  22  24
ATOM     23  C   UNL     1      -5.341   5.005 119.924  0.00  0.00    +0.000 C 
ATOM     24  C   UNL     1      -5.132   4.256 121.225  0.00  0.00    +0.000 C 
ENDBRANCH  22  24
ENDBRANCH  21  22
ENDBRANCH  20  21
ENDBRANCH  19  20
ENDBRANCH  18  19
ENDBRANCH  17  18
ENDBRANCH  16  17
ENDBRANCH  15  16
ENDBRANCH  14  15
ENDBRANCH   1  14
TORSDOF 13
ENDMDL
MODEL 8
REMARK VINA RESULT:      -5.6      4.668      5.594
REMARK  Name = Piperonyl butoxide
REMARK  15 active torsions:
REMARK  status: ('A' for Active; 'I' for Inactive)
REMARK    1  A    between atoms: C_1  and  C_2
REMARK    2  A    between atoms: C_2  and  C_3
REMARK    3  A    between atoms: C_3  and  C_4
REMARK    4  A    between atoms: C_4  and  O_5
REMARK    5  A    between atoms: O_5  and  C_6
REMARK    6  A    between atoms: C_6  and  C_7
REMARK    7  A    between atoms: C_7  and  O_8
REMARK    8  A    between atoms: O_8  and  C_9
REMARK    9  A    between atoms: C_9  and  C_10
REMARK   10  A    between atoms: C_10  and  O_11
REMARK   11  A    between atoms: O_11  and  C_12
REMARK   12  A    between atoms: C_12  and  C_13
REMARK   13  A    between atoms: C_21  and  C_22
REMARK   14  A    between atoms: C_22  and  C_23
REMARK   15  A    between atoms: C_23  and  C_24
REMARK                            x       y       z     vdW  Elec       q    Type
REMARK                         _______ _______ _______ _____ _____    ______ ____
ROOT
ATOM      1  C   UNL     1      -8.206   4.762 129.760  0.00  0.00    +0.000 C 
ENDROOT
BRANCH   1   2
ATOM      2  C   UNL     1      -9.366   5.462 130.450  0.00  0.00    +0.000 A 
ATOM      3  C   UNL     1     -10.372   5.915 129.565  0.00  0.00    +0.000 A 
ATOM      4  C   UNL     1     -11.505   6.495 130.067  0.00  0.00    +0.000 A 
ATOM      5  C   UNL     1     -11.696   6.657 131.413  0.00  0.00    +0.000 A 
ATOM      6  O   UNL     1     -12.892   7.237 131.697  0.00  0.00    +0.000 OA
ATOM      7  C   UNL     1     -13.395   7.485 130.365  0.00  0.00    +0.000 C 
ATOM      8  O   UNL     1     -12.550   6.954 129.328  0.00  0.00    +0.000 OA
ATOM      9  C   UNL     1     -10.742   6.254 132.328  0.00  0.00    +0.000 A 
ATOM     10  C   UNL     1      -9.539   5.656 131.868  0.00  0.00    +0.000 A 
BRANCH  10  11
ATOM     11  C   UNL     1      -8.561   5.266 132.991  0.00  0.00    +0.000 C 
BRANCH  11  12
ATOM     12  C   UNL     1      -8.969   4.058 133.804  0.00  0.00    +0.000 C 
ATOM     13  C   UNL     1      -9.176   2.711 133.168  0.00  0.00    +0.000 C 
ENDBRANCH  11  12
ENDBRANCH  10  11
ENDBRANCH   1   2
BRANCH   1  14
ATOM     14  O   UNL     1      -8.714   3.717 128.933  0.00  0.00    +0.000 OA
BRANCH  14  15
ATOM     15  C   UNL     1      -8.523   2.420 129.499  0.00  0.00    +0.000 C 
BRANCH  15  16
ATOM     16  C   UNL     1      -8.351   1.404 128.374  0.00  0.00    +0.000 C 
BRANCH  16  17
ATOM     17  O   UNL     1      -9.019   1.893 127.215  0.00  0.00    +0.000 OA
BRANCH  17  18
ATOM     18  C   UNL     1      -9.002   0.927 126.167  0.00  0.00    +0.000 C 
BRANCH  18  19
ATOM     19  C   UNL     1      -7.596   0.365 126.052  0.00  0.00    +0.000 C 
BRANCH  19  20
ATOM     20  O   UNL     1      -7.665  -1.017 125.713  0.00  0.00    +0.000 OA
BRANCH  20  21
ATOM     21  C   UNL     1      -9.017  -1.462 125.724  0.00  0.00    +0.000 C 
BRANCH  21  22
ATOM     22  C   UNL     1      -9.034  -2.970 125.909  0.00  0.00    +0.000 C 
BRANCH  22  24
ATOM     23  C   UNL     1      -9.503  -3.281 123.464  0.00  0.00    +0.000 C 
ATOM     24  C   UNL     1      -8.604  -3.665 124.623  0.00  0.00    +0.000 C 
ENDBRANCH  22  24
ENDBRANCH  21  22
ENDBRANCH  20  21
ENDBRANCH  19  20
ENDBRANCH  18  19
ENDBRANCH  17  18
ENDBRANCH  16  17
ENDBRANCH  15  16
ENDBRANCH  14  15
ENDBRANCH   1  14
TORSDOF 13
ENDMDL
MODEL 9
REMARK VINA RESULT:      -5.5      6.962      9.933
REMARK  Name = Piperonyl butoxide
REMARK  15 active torsions:
REMARK  status: ('A' for Active; 'I' for Inactive)
REMARK    1  A    between atoms: C_1  and  C_2
REMARK    2  A    between atoms: C_2  and  C_3
REMARK    3  A    between atoms: C_3  and  C_4
REMARK    4  A    between atoms: C_4  and  O_5
REMARK    5  A    between atoms: O_5  and  C_6
REMARK    6  A    between atoms: C_6  and  C_7
REMARK    7  A    between atoms: C_7  and  O_8
REMARK    8  A    between atoms: O_8  and  C_9
REMARK    9  A    between atoms: C_9  and  C_10
REMARK   10  A    between atoms: C_10  and  O_11
REMARK   11  A    between atoms: O_11  and  C_12
REMARK   12  A    between atoms: C_12  and  C_13
REMARK   13  A    between atoms: C_21  and  C_22
REMARK   14  A    between atoms: C_22  and  C_23
REMARK   15  A    between atoms: C_23  and  C_24
REMARK                            x       y       z     vdW  Elec       q    Type
REMARK                         _______ _______ _______ _____ _____    ______ ____
ROOT
ATOM      1  C   UNL     1      -8.113   2.335 125.097  0.00  0.00    +0.000 C 
ENDROOT
BRANCH   1   2
ATOM      2  C   UNL     1      -7.084   3.007 124.202  0.00  0.00    +0.000 A 
ATOM      3  C   UNL     1      -7.471   3.085 122.843  0.00  0.00    +0.000 A 
ATOM      4  C   UNL     1      -6.666   3.733 121.946  0.00  0.00    +0.000 A 
ATOM      5  C   UNL     1      -5.484   4.312 122.325  0.00  0.00    +0.000 A 
ATOM      6  O   UNL     1      -4.851   4.918 121.286  0.00  0.00    +0.000 OA
ATOM      7  C   UNL     1      -5.742   4.586 120.197  0.00  0.00    +0.000 C 
ATOM      8  O   UNL     1      -6.930   3.894 120.622  0.00  0.00    +0.000 OA
ATOM      9  C   UNL     1      -5.042   4.253 123.633  0.00  0.00    +0.000 A 
ATOM     10  C   UNL     1      -5.827   3.582 124.608  0.00  0.00    +0.000 A 
BRANCH  10  11
ATOM     11  C   UNL     1      -5.212   3.583 126.019  0.00  0.00    +0.000 C 
BRANCH  11  12
ATOM     12  C   UNL     1      -3.723   3.843 126.068  0.00  0.00    +0.000 C 
ATOM     13  C   UNL     1      -2.803   3.011 126.918  0.00  0.00    +0.000 C 
ENDBRANCH  11  12
ENDBRANCH  10  11
ENDBRANCH   1   2
BRANCH   1  14
ATOM     14  O   UNL     1      -9.265   2.004 124.323  0.00  0.00    +0.000 OA
BRANCH  14  15
ATOM     15  C   UNL     1      -9.669   0.644 124.487  0.00  0.00    +0.000 C 
BRANCH  15  16
ATOM     16  C   UNL     1      -8.888  -0.230 123.511  0.00  0.00    +0.000 C 
BRANCH  16  17
ATOM     17  O   UNL     1      -9.648  -1.405 123.245  0.00  0.00    +0.000 OA
BRANCH  17  18
ATOM     18  C   UNL     1      -8.849  -2.577 123.389  0.00  0.00    +0.000 C 
BRANCH  18  19
ATOM     19  C   UNL     1      -9.220  -3.256 124.694  0.00  0.00    +0.000 C 
BRANCH  19  20
ATOM     20  O   UNL     1      -8.066  -3.346 125.526  0.00  0.00    +0.000 OA
BRANCH  20  21
ATOM     21  C   UNL     1      -8.067  -2.294 126.485  0.00  0.00    +0.000 C 
BRANCH  21  22
ATOM     22  C   UNL     1      -6.674  -2.175 127.081  0.00  0.00    +0.000 C 
BRANCH  22  24
ATOM     23  C   UNL     1      -5.625  -0.403 125.647  0.00  0.00    +0.000 C 
ATOM     24  C   UNL     1      -5.654  -1.880 125.988  0.00  0.00    +0.000 C 
ENDBRANCH  22  24
ENDBRANCH  21  22
ENDBRANCH  20  21
ENDBRANCH  19  20
ENDBRANCH  18  19
ENDBRANCH  17  18
ENDBRANCH  16  17
ENDBRANCH  15  16
ENDBRANCH  14  15
ENDBRANCH   1  14
TORSDOF 13
ENDMDL
