MODEL 1
REMARK VINA RESULT:      -9.2      0.000      0.000
REMARK  Name = Piperaquine
REMARK  6 active torsions:
REMARK  status: ('A' for Active; 'I' for Inactive)
REMARK    1  A    between atoms: C_8  and  N_12
REMARK    2  A    between atoms: N_15  and  C_16
REMARK    3  A    between atoms: C_16  and  C_17
REMARK    4  A    between atoms: C_17  and  C_18
REMARK    5  A    between atoms: C_18  and  N_19
REMARK    6  A    between atoms: N_22  and  C_25
REMARK                            x       y       z     vdW  Elec       q    Type
REMARK                         _______ _______ _______ _____ _____    ______ ____
ROOT
ATOM      1  C   UNL     1      -4.267   2.315 129.465  0.00  0.00    +0.000 C 
ENDROOT
BRANCH   1   2
ATOM      2  C   UNL     1      -5.036   3.313 128.636  0.00  0.00    +0.000 C 
BRANCH   2   6
ATOM      3  N   UNL     1      -6.129   3.123 125.280  0.00  0.00    +0.000 N 
ATOM      4  C   UNL     1      -5.488   1.983 125.958  0.00  0.00    +0.000 C 
ATOM      5  C   UNL     1      -4.136   2.467 126.565  0.00  0.00    +0.000 C 
ATOM      6  N   UNL     1      -4.260   3.665 127.436  0.00  0.00    +0.000 NA
ATOM      7  C   UNL     1      -4.928   4.735 126.647  0.00  0.00    +0.000 C 
ATOM      8  C   UNL     1      -6.322   4.305 126.139  0.00  0.00    +0.000 C 
BRANCH   3  16
ATOM      9 CL   UNL     1      -5.444   5.257 118.884  0.00  0.00    +0.000 Cl
ATOM     10  C   UNL     1      -5.870   4.603 120.415  0.00  0.00    +0.000 A 
ATOM     11  C   UNL     1      -7.104   3.981 120.603  0.00  0.00    +0.000 A 
ATOM     12  C   UNL     1      -7.480   3.454 121.835  0.00  0.00    +0.000 A 
ATOM     13  C   UNL     1      -6.575   3.535 122.913  0.00  0.00    +0.000 A 
ATOM     14  C   UNL     1      -5.309   4.124 122.676  0.00  0.00    +0.000 A 
ATOM     15  C   UNL     1      -4.966   4.686 121.456  0.00  0.00    +0.000 A 
ATOM     16  C   UNL     1      -6.969   3.008 124.182  0.00  0.00    +0.000 A 
ATOM     17  C   UNL     1      -8.219   2.404 124.280  0.00  0.00    +0.000 A 
ATOM     18  C   UNL     1      -9.031   2.377 123.160  0.00  0.00    +0.000 A 
ATOM     19  N   UNL     1      -8.689   2.886 121.957  0.00  0.00    +0.000 NA
ENDBRANCH   3  16
ENDBRANCH   2   6
ENDBRANCH   1   2
BRANCH   1  20
ATOM     20  C   UNL     1      -5.068   1.838 130.664  0.00  0.00    +0.000 C 
BRANCH  20  21
ATOM     21  N   UNL     1      -4.849   0.402 130.890  0.00  0.00    +0.000 NA
ATOM     22  C   UNL     1      -6.052  -0.226 131.499  0.00  0.00    +0.000 C 
ATOM     23  C   UNL     1      -7.301  -0.275 130.569  0.00  0.00    +0.000 C 
ATOM     24  N   UNL     1      -6.921  -0.880 129.286  0.00  0.00    +0.000 N 
ATOM     25  C   UNL     1      -5.743  -0.308 128.631  0.00  0.00    +0.000 C 
ATOM     26  C   UNL     1      -4.554  -0.318 129.625  0.00  0.00    +0.000 C 
BRANCH  24  27
ATOM     27  C   UNL     1      -7.634  -1.919 128.715  0.00  0.00    +0.000 A 
ATOM     28  C   UNL     1      -8.035  -2.987 129.514  0.00  0.00    +0.000 A 
ATOM     29  C   UNL     1      -8.792  -3.997 128.952  0.00  0.00    +0.000 A 
ATOM     30  N   UNL     1      -9.158  -4.036 127.654  0.00  0.00    +0.000 NA
ATOM     31  C   UNL     1      -8.770  -3.033 126.860  0.00  0.00    +0.000 A 
ATOM     32  C   UNL     1      -8.003  -1.941 127.339  0.00  0.00    +0.000 A 
ATOM     33  C   UNL     1      -7.621  -0.958 126.405  0.00  0.00    +0.000 A 
ATOM     34  C   UNL     1      -8.005  -0.989 125.073  0.00  0.00    +0.000 A 
ATOM     35  C   UNL     1      -8.764  -2.056 124.631  0.00  0.00    +0.000 A 
ATOM     36 CL   UNL     1      -9.234  -2.124 122.979  0.00  0.00    +0.000 Cl
ATOM     37  C   UNL     1      -9.129  -3.067 125.517  0.00  0.00    +0.000 A 
ENDBRANCH  24  27
ENDBRANCH  20  21
ENDBRANCH   1  20
TORSDOF 6
ENDMDL
MODEL 2
REMARK VINA RESULT:      -9.1      3.513      7.938
REMARK  Name = Piperaquine
REMARK  6 active torsions:
REMARK  status: ('A' for Active; 'I' for Inactive)
REMARK    1  A    between atoms: C_8  and  N_12
REMARK    2  A    between atoms: N_15  and  C_16
REMARK    3  A    between atoms: C_16  and  C_17
REMARK    4  A    between atoms: C_17  and  C_18
REMARK    5  A    between atoms: C_18  and  N_19
REMARK    6  A    between atoms: N_22  and  C_25
REMARK                            x       y       z     vdW  Elec       q    Type
REMARK                         _______ _______ _______ _____ _____    ______ ____
ROOT
ATOM      1  C   UNL     1      -6.267   4.504 124.865  0.00  0.00    +0.000 C 
ENDROOT
BRANCH   1   2
ATOM      2  C   UNL     1      -6.811   3.491 123.887  0.00  0.00    +0.000 C 
BRANCH   2   6
ATOM      3  N   UNL     1      -8.222   0.335 124.623  0.00  0.00    +0.000 N 
ATOM      4  C   UNL     1      -8.121   0.842 123.244  0.00  0.00    +0.000 C 
ATOM      5  C   UNL     1      -8.765   2.261 123.191  0.00  0.00    +0.000 C 
ATOM      6  N   UNL     1      -8.221   3.209 124.199  0.00  0.00    +0.000 NA
ATOM      7  C   UNL     1      -8.369   2.581 125.540  0.00  0.00    +0.000 C 
ATOM      8  C   UNL     1      -7.634   1.227 125.638  0.00  0.00    +0.000 C 
BRANCH   3  16
ATOM      9 CL   UNL     1      -4.125  -4.910 123.341  0.00  0.00    +0.000 Cl
ATOM     10  C   UNL     1      -5.326  -3.773 123.811  0.00  0.00    +0.000 A 
ATOM     11  C   UNL     1      -6.465  -4.188 124.500  0.00  0.00    +0.000 A 
ATOM     12  C   UNL     1      -7.459  -3.292 124.882  0.00  0.00    +0.000 A 
ATOM     13  C   UNL     1      -7.293  -1.924 124.579  0.00  0.00    +0.000 A 
ATOM     14  C   UNL     1      -6.101  -1.527 123.926  0.00  0.00    +0.000 A 
ATOM     15  C   UNL     1      -5.141  -2.438 123.511  0.00  0.00    +0.000 A 
ATOM     16  C   UNL     1      -8.323  -1.008 124.957  0.00  0.00    +0.000 A 
ATOM     17  C   UNL     1      -9.426  -1.508 125.643  0.00  0.00    +0.000 A 
ATOM     18  C   UNL     1      -9.490  -2.868 125.891  0.00  0.00    +0.000 A 
ATOM     19  N   UNL     1      -8.540  -3.755 125.525  0.00  0.00    +0.000 NA
ENDBRANCH   3  16
ENDBRANCH   2   6
ENDBRANCH   1   2
BRANCH   1  20
ATOM     20  C   UNL     1      -4.826   4.207 125.244  0.00  0.00    +0.000 C 
BRANCH  20  21
ATOM     21  N   UNL     1      -4.776   3.293 126.394  0.00  0.00    +0.000 NA
ATOM     22  C   UNL     1      -3.367   3.012 126.783  0.00  0.00    +0.000 C 
ATOM     23  C   UNL     1      -2.597   4.235 127.362  0.00  0.00    +0.000 C 
ATOM     24  N   UNL     1      -3.387   4.831 128.447  0.00  0.00    +0.000 N 
ATOM     25  C   UNL     1      -4.784   5.134 128.131  0.00  0.00    +0.000 C 
ATOM     26  C   UNL     1      -5.468   3.857 127.580  0.00  0.00    +0.000 C 
BRANCH  24  27
ATOM     27  C   UNL     1      -2.850   5.107 129.692  0.00  0.00    +0.000 A 
ATOM     28  C   UNL     1      -2.092   6.262 129.863  0.00  0.00    +0.000 A 
ATOM     29  C   UNL     1      -1.602   6.562 131.121  0.00  0.00    +0.000 A 
ATOM     30  N   UNL     1      -1.789   5.788 132.210  0.00  0.00    +0.000 NA
ATOM     31  C   UNL     1      -2.497   4.663 132.069  0.00  0.00    +0.000 A 
ATOM     32  C   UNL     1      -3.055   4.270 130.827  0.00  0.00    +0.000 A 
ATOM     33  C   UNL     1      -3.753   3.047 130.788  0.00  0.00    +0.000 A 
ATOM     34  C   UNL     1      -3.956   2.254 131.908  0.00  0.00    +0.000 A 
ATOM     35  C   UNL     1      -3.414   2.664 133.110  0.00  0.00    +0.000 A 
ATOM     36 CL   UNL     1      -3.638   1.687 134.507  0.00  0.00    +0.000 Cl
ATOM     37  C   UNL     1      -2.685   3.849 133.181  0.00  0.00    +0.000 A 
ENDBRANCH  24  27
ENDBRANCH  20  21
ENDBRANCH   1  20
TORSDOF 6
ENDMDL
MODEL 3
REMARK VINA RESULT:      -9.0      3.880      8.051
REMARK  Name = Piperaquine
REMARK  6 active torsions:
REMARK  status: ('A' for Active; 'I' for Inactive)
REMARK    1  A    between atoms: C_8  and  N_12
REMARK    2  A    between atoms: N_15  and  C_16
REMARK    3  A    between atoms: C_16  and  C_17
REMARK    4  A    between atoms: C_17  and  C_18
REMARK    5  A    between atoms: C_18  and  N_19
REMARK    6  A    between atoms: N_22  and  C_25
REMARK                            x       y       z     vdW  Elec       q    Type
REMARK                         _______ _______ _______ _____ _____    ______ ____
ROOT
ATOM      1  C   UNL     1      -5.682   4.432 125.048  0.00  0.00    +0.000 C 
ENDROOT
BRANCH   1   2
ATOM      2  C   UNL     1      -6.434   3.496 124.135  0.00  0.00    +0.000 C 
BRANCH   2   6
ATOM      3  N   UNL     1      -8.029   0.421 124.839  0.00  0.00    +0.000 N 
ATOM      4  C   UNL     1      -8.078   1.038 123.502  0.00  0.00    +0.000 C 
ATOM      5  C   UNL     1      -8.581   2.506 123.655  0.00  0.00    +0.000 C 
ATOM      6  N   UNL     1      -7.805   3.310 124.636  0.00  0.00    +0.000 NA
ATOM      7  C   UNL     1      -7.819   2.581 125.933  0.00  0.00    +0.000 C 
ATOM      8  C   UNL     1      -7.215   1.165 125.816  0.00  0.00    +0.000 C 
BRANCH   3  16
ATOM      9 CL   UNL     1      -4.181  -4.953 123.337  0.00  0.00    +0.000 Cl
ATOM     10  C   UNL     1      -5.333  -3.783 123.845  0.00  0.00    +0.000 A 
ATOM     11  C   UNL     1      -6.514  -4.177 124.474  0.00  0.00    +0.000 A 
ATOM     12  C   UNL     1      -7.469  -3.252 124.884  0.00  0.00    +0.000 A 
ATOM     13  C   UNL     1      -7.221  -1.879 124.674  0.00  0.00    +0.000 A 
ATOM     14  C   UNL     1      -5.989  -1.509 124.083  0.00  0.00    +0.000 A 
ATOM     15  C   UNL     1      -5.067  -2.444 123.637  0.00  0.00    +0.000 A 
ATOM     16  C   UNL     1      -8.212  -0.933 125.082  0.00  0.00    +0.000 A 
ATOM     17  C   UNL     1      -9.361  -1.413 125.703  0.00  0.00    +0.000 A 
ATOM     18  C   UNL     1      -9.506  -2.781 125.860  0.00  0.00    +0.000 A 
ATOM     19  N   UNL     1      -8.594  -3.694 125.466  0.00  0.00    +0.000 NA
ENDBRANCH   3  16
ENDBRANCH   2   6
ENDBRANCH   1   2
BRANCH   1  20
ATOM     20  C   UNL     1      -4.563   3.720 125.790  0.00  0.00    +0.000 C 
BRANCH  20  21
ATOM     21  N   UNL     1      -3.745   4.687 126.535  0.00  0.00    +0.000 NA
ATOM     22  C   UNL     1      -4.556   5.371 127.578  0.00  0.00    +0.000 C 
ATOM     23  C   UNL     1      -5.031   4.450 128.741  0.00  0.00    +0.000 C 
ATOM     24  N   UNL     1      -3.874   3.733 129.290  0.00  0.00    +0.000 N 
ATOM     25  C   UNL     1      -3.031   3.035 128.316  0.00  0.00    +0.000 C 
ATOM     26  C   UNL     1      -2.596   4.033 127.213  0.00  0.00    +0.000 C 
BRANCH  24  27
ATOM     27  C   UNL     1      -3.594   3.699 130.644  0.00  0.00    +0.000 A 
ATOM     28  C   UNL     1      -4.160   2.699 131.429  0.00  0.00    +0.000 A 
ATOM     29  C   UNL     1      -3.836   2.636 132.772  0.00  0.00    +0.000 A 
ATOM     30  N   UNL     1      -3.015   3.508 133.393  0.00  0.00    +0.000 NA
ATOM     31  C   UNL     1      -2.473   4.490 132.666  0.00  0.00    +0.000 A 
ATOM     32  C   UNL     1      -2.728   4.636 131.280  0.00  0.00    +0.000 A 
ATOM     33  C   UNL     1      -2.131   5.729 130.621  0.00  0.00    +0.000 A 
ATOM     34  C   UNL     1      -1.277   6.620 131.254  0.00  0.00    +0.000 A 
ATOM     35  C   UNL     1      -1.032   6.451 132.603  0.00  0.00    +0.000 A 
ATOM     36 CL   UNL     1       0.008   7.554 133.412  0.00  0.00    +0.000 Cl
ATOM     37  C   UNL     1      -1.634   5.404 133.297  0.00  0.00    +0.000 A 
ENDBRANCH  24  27
ENDBRANCH  20  21
ENDBRANCH   1  20
TORSDOF 6
ENDMDL
MODEL 4
REMARK VINA RESULT:      -8.9      2.008      6.273
REMARK  Name = Piperaquine
REMARK  6 active torsions:
REMARK  status: ('A' for Active; 'I' for Inactive)
REMARK    1  A    between atoms: C_8  and  N_12
REMARK    2  A    between atoms: N_15  and  C_16
REMARK    3  A    between atoms: C_16  and  C_17
REMARK    4  A    between atoms: C_17  and  C_18
REMARK    5  A    between atoms: C_18  and  N_19
REMARK    6  A    between atoms: N_22  and  C_25
REMARK                            x       y       z     vdW  Elec       q    Type
REMARK                         _______ _______ _______ _____ _____    ______ ____
ROOT
ATOM      1  C   UNL     1      -4.445   1.867 131.427  0.00  0.00    +0.000 C 
ENDROOT
BRANCH   1   2
ATOM      2  C   UNL     1      -4.187   0.510 130.820  0.00  0.00    +0.000 C 
BRANCH   2   6
ATOM      3  N   UNL     1      -6.558  -1.682 129.380  0.00  0.00    +0.000 N 
ATOM      4  C   UNL     1      -6.929  -0.344 129.873  0.00  0.00    +0.000 C 
ATOM      5  C   UNL     1      -6.431  -0.204 131.344  0.00  0.00    +0.000 C 
ATOM      6  N   UNL     1      -4.987  -0.507 131.522  0.00  0.00    +0.000 NA
ATOM      7  C   UNL     1      -4.737  -1.870 130.979  0.00  0.00    +0.000 C 
ATOM      8  C   UNL     1      -5.120  -1.985 129.488  0.00  0.00    +0.000 C 
BRANCH   3  16
ATOM      9 CL   UNL     1      -6.400  -1.487 122.607  0.00  0.00    +0.000 Cl
ATOM     10  C   UNL     1      -6.637  -1.747 124.289  0.00  0.00    +0.000 A 
ATOM     11  C   UNL     1      -7.602  -2.648 124.739  0.00  0.00    +0.000 A 
ATOM     12  C   UNL     1      -7.824  -2.868 126.095  0.00  0.00    +0.000 A 
ATOM     13  C   UNL     1      -7.034  -2.175 127.035  0.00  0.00    +0.000 A 
ATOM     14  C   UNL     1      -6.027  -1.308 126.546  0.00  0.00    +0.000 A 
ATOM     15  C   UNL     1      -5.848  -1.063 125.192  0.00  0.00    +0.000 A 
ATOM     16  C   UNL     1      -7.275  -2.391 128.427  0.00  0.00    +0.000 A 
ATOM     17  C   UNL     1      -8.257  -3.308 128.788  0.00  0.00    +0.000 A 
ATOM     18  C   UNL     1      -8.976  -3.936 127.785  0.00  0.00    +0.000 A 
ATOM     19  N   UNL     1      -8.780  -3.734 126.465  0.00  0.00    +0.000 NA
ENDBRANCH   3  16
ENDBRANCH   2   6
ENDBRANCH   1   2
BRANCH   1  20
ATOM     20  C   UNL     1      -5.307   2.735 130.526  0.00  0.00    +0.000 C 
BRANCH  20  21
ATOM     21  N   UNL     1      -4.466   3.496 129.591  0.00  0.00    +0.000 NA
ATOM     22  C   UNL     1      -3.930   2.610 128.522  0.00  0.00    +0.000 C 
ATOM     23  C   UNL     1      -5.004   2.049 127.543  0.00  0.00    +0.000 C 
ATOM     24  N   UNL     1      -5.806   3.162 127.020  0.00  0.00    +0.000 N 
ATOM     25  C   UNL     1      -6.365   4.074 128.020  0.00  0.00    +0.000 C 
ATOM     26  C   UNL     1      -5.223   4.590 128.932  0.00  0.00    +0.000 C 
BRANCH  24  27
ATOM     27  C   UNL     1      -6.037   3.340 125.667  0.00  0.00    +0.000 A 
ATOM     28  C   UNL     1      -5.225   4.215 124.951  0.00  0.00    +0.000 A 
ATOM     29  C   UNL     1      -5.424   4.351 123.589  0.00  0.00    +0.000 A 
ATOM     30  N   UNL     1      -6.383   3.702 122.897  0.00  0.00    +0.000 NA
ATOM     31  C   UNL     1      -7.189   2.870 123.565  0.00  0.00    +0.000 A 
ATOM     32  C   UNL     1      -7.061   2.648 124.959  0.00  0.00    +0.000 A 
ATOM     33  C   UNL     1      -7.987   1.777 125.564  0.00  0.00    +0.000 A 
ATOM     34  C   UNL     1      -8.966   1.099 124.854  0.00  0.00    +0.000 A 
ATOM     35  C   UNL     1      -9.064   1.320 123.493  0.00  0.00    +0.000 A 
ATOM     36 CL   UNL     1     -10.283   0.506 122.596  0.00  0.00    +0.000 Cl
ATOM     37  C   UNL     1      -8.190   2.204 122.865  0.00  0.00    +0.000 A 
ENDBRANCH  24  27
ENDBRANCH  20  21
ENDBRANCH   1  20
TORSDOF 6
ENDMDL
MODEL 5
REMARK VINA RESULT:      -8.7      3.996      6.511
REMARK  Name = Piperaquine
REMARK  6 active torsions:
REMARK  status: ('A' for Active; 'I' for Inactive)
REMARK    1  A    between atoms: C_8  and  N_12
REMARK    2  A    between atoms: N_15  and  C_16
REMARK    3  A    between atoms: C_16  and  C_17
REMARK    4  A    between atoms: C_17  and  C_18
REMARK    5  A    between atoms: C_18  and  N_19
REMARK    6  A    between atoms: N_22  and  C_25
REMARK                            x       y       z     vdW  Elec       q    Type
REMARK                         _______ _______ _______ _____ _____    ______ ____
ROOT
ATOM      1  C   UNL     1      -6.686  -1.669 131.649  0.00  0.00    +0.000 C 
ENDROOT
BRANCH   1   2
ATOM      2  C   UNL     1      -7.041  -0.243 131.992  0.00  0.00    +0.000 C 
BRANCH   2   6
ATOM      3  N   UNL     1      -8.084   3.057 131.273  0.00  0.00    +0.000 N 
ATOM      4  C   UNL     1      -8.476   2.368 132.514  0.00  0.00    +0.000 C 
ATOM      5  C   UNL     1      -9.108   0.993 132.137  0.00  0.00    +0.000 C 
ATOM      6  N   UNL     1      -8.251   0.158 131.255  0.00  0.00    +0.000 NA
ATOM      7  C   UNL     1      -7.915   0.963 130.050  0.00  0.00    +0.000 C 
ATOM      8  C   UNL     1      -7.184   2.275 130.408  0.00  0.00    +0.000 C 
BRANCH   3  16
ATOM      9 CL   UNL     1     -12.888   7.464 129.417  0.00  0.00    +0.000 Cl
ATOM     10  C   UNL     1     -11.501   6.581 129.918  0.00  0.00    +0.000 A 
ATOM     11  C   UNL     1     -10.286   7.231 130.135  0.00  0.00    +0.000 A 
ATOM     12  C   UNL     1      -9.144   6.539 130.528  0.00  0.00    +0.000 A 
ATOM     13  C   UNL     1      -9.230   5.146 130.732  0.00  0.00    +0.000 A 
ATOM     14  C   UNL     1     -10.490   4.525 130.557  0.00  0.00    +0.000 A 
ATOM     15  C   UNL     1     -11.608   5.219 130.120  0.00  0.00    +0.000 A 
ATOM     16  C   UNL     1      -8.052   4.436 131.121  0.00  0.00    +0.000 A 
ATOM     17  C   UNL     1      -6.882   5.164 131.315  0.00  0.00    +0.000 A 
ATOM     18  C   UNL     1      -6.906   6.529 131.088  0.00  0.00    +0.000 A 
ATOM     19  N   UNL     1      -8.001   7.218 130.701  0.00  0.00    +0.000 NA
ENDBRANCH   3  16
ENDBRANCH   2   6
ENDBRANCH   1   2
BRANCH   1  20
ATOM     20  C   UNL     1      -5.644  -1.742 130.546  0.00  0.00    +0.000 C 
BRANCH  20  21
ATOM     21  N   UNL     1      -5.801  -2.983 129.774  0.00  0.00    +0.000 NA
ATOM     22  C   UNL     1      -7.240  -3.271 129.524  0.00  0.00    +0.000 C 
ATOM     23  C   UNL     1      -7.949  -2.258 128.577  0.00  0.00    +0.000 C 
ATOM     24  N   UNL     1      -7.166  -2.124 127.342  0.00  0.00    +0.000 N 
ATOM     25  C   UNL     1      -5.739  -1.840 127.517  0.00  0.00    +0.000 C 
ATOM     26  C   UNL     1      -5.120  -2.905 128.457  0.00  0.00    +0.000 C 
BRANCH  24  27
ATOM     27  C   UNL     1      -7.732  -2.243 126.086  0.00  0.00    +0.000 A 
ATOM     28  C   UNL     1      -8.021  -3.511 125.590  0.00  0.00    +0.000 A 
ATOM     29  C   UNL     1      -8.636  -3.624 124.356  0.00  0.00    +0.000 A 
ATOM     30  N   UNL     1      -8.959  -2.574 123.573  0.00  0.00    +0.000 NA
ATOM     31  C   UNL     1      -8.674  -1.346 124.017  0.00  0.00    +0.000 A 
ATOM     32  C   UNL     1      -8.058  -1.119 125.273  0.00  0.00    +0.000 A 
ATOM     33  C   UNL     1      -7.773   0.216 125.624  0.00  0.00    +0.000 A 
ATOM     34  C   UNL     1      -8.114   1.298 124.826  0.00  0.00    +0.000 A 
ATOM     35  C   UNL     1      -8.726   1.053 123.612  0.00  0.00    +0.000 A 
ATOM     36 CL   UNL     1      -9.140   2.379 122.599  0.00  0.00    +0.000 Cl
ATOM     37  C   UNL     1      -8.990  -0.255 123.214  0.00  0.00    +0.000 A 
ENDBRANCH  24  27
ENDBRANCH  20  21
ENDBRANCH   1  20
TORSDOF 6
ENDMDL
MODEL 6
REMARK VINA RESULT:      -8.7      2.869      6.998
REMARK  Name = Piperaquine
REMARK  6 active torsions:
REMARK  status: ('A' for Active; 'I' for Inactive)
REMARK    1  A    between atoms: C_8  and  N_12
REMARK    2  A    between atoms: N_15  and  C_16
REMARK    3  A    between atoms: C_16  and  C_17
REMARK    4  A    between atoms: C_17  and  C_18
REMARK    5  A    between atoms: C_18  and  N_19
REMARK    6  A    between atoms: N_22  and  C_25
REMARK                            x       y       z     vdW  Elec       q    Type
REMARK                         _______ _______ _______ _____ _____    ______ ____
ROOT
ATOM      1  C   UNL     1      -4.756   4.783 129.057  0.00  0.00    +0.000 C 
ENDROOT
BRANCH   1   2
ATOM      2  C   UNL     1      -4.171   3.534 129.669  0.00  0.00    +0.000 C 
BRANCH   2   6
ATOM      3  N   UNL     1      -5.826   0.826 131.227  0.00  0.00    +0.000 N 
ATOM      4  C   UNL     1      -6.564   1.927 130.585  0.00  0.00    +0.000 C 
ATOM      5  C   UNL     1      -6.045   3.277 131.167  0.00  0.00    +0.000 C 
ATOM      6  N   UNL     1      -4.569   3.441 131.083  0.00  0.00    +0.000 NA
ATOM      7  C   UNL     1      -3.942   2.270 131.752  0.00  0.00    +0.000 C 
ATOM      8  C   UNL     1      -4.361   0.932 131.106  0.00  0.00    +0.000 C 
BRANCH   3  16
ATOM      9 CL   UNL     1      -8.730  -3.589 126.984  0.00  0.00    +0.000 Cl
ATOM     10  C   UNL     1      -8.030  -2.676 128.261  0.00  0.00    +0.000 A 
ATOM     11  C   UNL     1      -8.013  -3.175 129.564  0.00  0.00    +0.000 A 
ATOM     12  C   UNL     1      -7.464  -2.452 130.618  0.00  0.00    +0.000 A 
ATOM     13  C   UNL     1      -6.892  -1.191 130.353  0.00  0.00    +0.000 A 
ATOM     14  C   UNL     1      -6.876  -0.737 129.012  0.00  0.00    +0.000 A 
ATOM     15  C   UNL     1      -7.468  -1.447 127.978  0.00  0.00    +0.000 A 
ATOM     16  C   UNL     1      -6.343  -0.443 131.441  0.00  0.00    +0.000 A 
ATOM     17  C   UNL     1      -6.368  -1.017 132.708  0.00  0.00    +0.000 A 
ATOM     18  C   UNL     1      -6.954  -2.262 132.861  0.00  0.00    +0.000 A 
ATOM     19  N   UNL     1      -7.496  -2.977 131.852  0.00  0.00    +0.000 NA
ENDBRANCH   3  16
ENDBRANCH   2   6
ENDBRANCH   1   2
BRANCH   1  20
ATOM     20  C   UNL     1      -4.696   4.751 127.540  0.00  0.00    +0.000 C 
BRANCH  20  21
ATOM     21  N   UNL     1      -6.038   4.935 126.969  0.00  0.00    +0.000 NA
ATOM     22  C   UNL     1      -6.000   4.828 125.485  0.00  0.00    +0.000 C 
ATOM     23  C   UNL     1      -5.656   3.409 124.945  0.00  0.00    +0.000 C 
ATOM     24  N   UNL     1      -6.550   2.426 125.570  0.00  0.00    +0.000 N 
ATOM     25  C   UNL     1      -6.635   2.475 127.032  0.00  0.00    +0.000 C 
ATOM     26  C   UNL     1      -6.996   3.917 127.471  0.00  0.00    +0.000 C 
BRANCH  24  27
ATOM     27  C   UNL     1      -7.264   1.497 124.835  0.00  0.00    +0.000 A 
ATOM     28  C   UNL     1      -8.463   1.879 124.241  0.00  0.00    +0.000 A 
ATOM     29  C   UNL     1      -9.147   0.963 123.463  0.00  0.00    +0.000 A 
ATOM     30  N   UNL     1      -8.740  -0.306 123.254  0.00  0.00    +0.000 NA
ATOM     31  C   UNL     1      -7.600  -0.705 123.829  0.00  0.00    +0.000 A 
ATOM     32  C   UNL     1      -6.816   0.159 124.634  0.00  0.00    +0.000 A 
ATOM     33  C   UNL     1      -5.652  -0.378 125.218  0.00  0.00    +0.000 A 
ATOM     34  C   UNL     1      -5.225  -1.679 124.996  0.00  0.00    +0.000 A 
ATOM     35  C   UNL     1      -5.998  -2.499 124.197  0.00  0.00    +0.000 A 
ATOM     36 CL   UNL     1      -5.496  -4.120 123.924  0.00  0.00    +0.000 Cl
ATOM     37  C   UNL     1      -7.176  -2.014 123.633  0.00  0.00    +0.000 A 
ENDBRANCH  24  27
ENDBRANCH  20  21
ENDBRANCH   1  20
TORSDOF 6
ENDMDL
MODEL 7
REMARK VINA RESULT:      -8.7      3.862      7.339
REMARK  Name = Piperaquine
REMARK  6 active torsions:
REMARK  status: ('A' for Active; 'I' for Inactive)
REMARK    1  A    between atoms: C_8  and  N_12
REMARK    2  A    between atoms: N_15  and  C_16
REMARK    3  A    between atoms: C_16  and  C_17
REMARK    4  A    between atoms: C_17  and  C_18
REMARK    5  A    between atoms: C_18  and  N_19
REMARK    6  A    between atoms: N_22  and  C_25
REMARK                            x       y       z     vdW  Elec       q    Type
REMARK                         _______ _______ _______ _____ _____    ______ ____
ROOT
ATOM      1  C   UNL     1      -5.864  -1.155 132.567  0.00  0.00    +0.000 C 
ENDROOT
BRANCH   1   2
ATOM      2  C   UNL     1      -5.231  -1.733 131.326  0.00  0.00    +0.000 C 
BRANCH   2   6
ATOM      3  N   UNL     1      -7.387  -2.471 128.624  0.00  0.00    +0.000 N 
ATOM      4  C   UNL     1      -7.896  -1.988 129.919  0.00  0.00    +0.000 C 
ATOM      5  C   UNL     1      -7.323  -2.901 131.046  0.00  0.00    +0.000 C 
ATOM      6  N   UNL     1      -5.843  -3.036 131.018  0.00  0.00    +0.000 NA
ATOM      7  C   UNL     1      -5.455  -3.516 129.665  0.00  0.00    +0.000 C 
ATOM      8  C   UNL     1      -5.918  -2.556 128.547  0.00  0.00    +0.000 C 
BRANCH   3  16
ATOM      9 CL   UNL     1      -8.829   2.966 124.842  0.00  0.00    +0.000 Cl
ATOM     10  C   UNL     1      -8.594   1.436 125.590  0.00  0.00    +0.000 A 
ATOM     11  C   UNL     1      -9.133   0.280 125.026  0.00  0.00    +0.000 A 
ATOM     12  C   UNL     1      -8.970  -0.969 125.617  0.00  0.00    +0.000 A 
ATOM     13  C   UNL     1      -8.220  -1.065 126.808  0.00  0.00    +0.000 A 
ATOM     14  C   UNL     1      -7.641   0.119 127.326  0.00  0.00    +0.000 A 
ATOM     15  C   UNL     1      -7.850   1.364 126.751  0.00  0.00    +0.000 A 
ATOM     16  C   UNL     1      -8.068  -2.347 127.421  0.00  0.00    +0.000 A 
ATOM     17  C   UNL     1      -8.638  -3.448 126.790  0.00  0.00    +0.000 A 
ATOM     18  C   UNL     1      -9.355  -3.244 125.623  0.00  0.00    +0.000 A 
ATOM     19  N   UNL     1      -9.529  -2.041 125.036  0.00  0.00    +0.000 NA
ENDBRANCH   3  16
ENDBRANCH   2   6
ENDBRANCH   1   2
BRANCH   1  20
ATOM     20  C   UNL     1      -5.921   0.363 132.519  0.00  0.00    +0.000 C 
BRANCH  20  21
ATOM     21  N   UNL     1      -7.273   0.814 132.160  0.00  0.00    +0.000 NA
ATOM     22  C   UNL     1      -7.750   1.858 133.107  0.00  0.00    +0.000 C 
ATOM     23  C   UNL     1      -6.974   3.207 133.031  0.00  0.00    +0.000 C 
ATOM     24  N   UNL     1      -6.941   3.665 131.636  0.00  0.00    +0.000 N 
ATOM     25  C   UNL     1      -6.481   2.684 130.650  0.00  0.00    +0.000 C 
ATOM     26  C   UNL     1      -7.320   1.389 130.792  0.00  0.00    +0.000 C 
BRANCH  24  27
ATOM     27  C   UNL     1      -7.308   4.946 131.266  0.00  0.00    +0.000 A 
ATOM     28  C   UNL     1      -6.354   5.960 131.298  0.00  0.00    +0.000 A 
ATOM     29  C   UNL     1      -6.709   7.228 130.877  0.00  0.00    +0.000 A 
ATOM     30  N   UNL     1      -7.945   7.565 130.453  0.00  0.00    +0.000 NA
ATOM     31  C   UNL     1      -8.885   6.615 130.431  0.00  0.00    +0.000 A 
ATOM     32  C   UNL     1      -8.622   5.281 130.828  0.00  0.00    +0.000 A 
ATOM     33  C   UNL     1      -9.697   4.371 130.798  0.00  0.00    +0.000 A 
ATOM     34  C   UNL     1     -10.965   4.712 130.352  0.00  0.00    +0.000 A 
ATOM     35  C   UNL     1     -11.195   6.016 129.957  0.00  0.00    +0.000 A 
ATOM     36 CL   UNL     1     -12.764   6.465 129.418  0.00  0.00    +0.000 Cl
ATOM     37  C   UNL     1     -10.166   6.953 130.009  0.00  0.00    +0.000 A 
ENDBRANCH  24  27
ENDBRANCH  20  21
ENDBRANCH   1  20
TORSDOF 6
ENDMDL
MODEL 8
REMARK VINA RESULT:      -8.7      4.087      5.636
REMARK  Name = Piperaquine
REMARK  6 active torsions:
REMARK  status: ('A' for Active; 'I' for Inactive)
REMARK    1  A    between atoms: C_8  and  N_12
REMARK    2  A    between atoms: N_15  and  C_16
REMARK    3  A    between atoms: C_16  and  C_17
REMARK    4  A    between atoms: C_17  and  C_18
REMARK    5  A    between atoms: C_18  and  N_19
REMARK    6  A    between atoms: N_22  and  C_25
REMARK                            x       y       z     vdW  Elec       q    Type
REMARK                         _______ _______ _______ _____ _____    ______ ____
ROOT
ATOM      1  C   UNL     1      -3.129   5.230 130.030  0.00  0.00    +0.000 C 
ENDROOT
BRANCH   1   2
ATOM      2  C   UNL     1      -3.042   4.145 128.985  0.00  0.00    +0.000 C 
BRANCH   2   6
ATOM      3  N   UNL     1      -4.739   3.512 125.949  0.00  0.00    +0.000 N 
ATOM      4  C   UNL     1      -3.586   2.704 126.382  0.00  0.00    +0.000 C 
ATOM      5  C   UNL     1      -2.403   3.666 126.708  0.00  0.00    +0.000 C 
ATOM      6  N   UNL     1      -2.752   4.744 127.672  0.00  0.00    +0.000 NA
ATOM      7  C   UNL     1      -3.929   5.475 127.131  0.00  0.00    +0.000 C 
ATOM      8  C   UNL     1      -5.145   4.548 126.914  0.00  0.00    +0.000 C 
BRANCH   3  16
ATOM      9 CL   UNL     1      -5.787   4.963 119.412  0.00  0.00    +0.000 Cl
ATOM     10  C   UNL     1      -5.749   4.417 121.041  0.00  0.00    +0.000 A 
ATOM     11  C   UNL     1      -6.734   3.555 121.524  0.00  0.00    +0.000 A 
ATOM     12  C   UNL     1      -6.735   3.107 122.842  0.00  0.00    +0.000 A 
ATOM     13  C   UNL     1      -5.697   3.523 123.702  0.00  0.00    +0.000 A 
ATOM     14  C   UNL     1      -4.684   4.355 123.167  0.00  0.00    +0.000 A 
ATOM     15  C   UNL     1      -4.720   4.830 121.864  0.00  0.00    +0.000 A 
ATOM     16  C   UNL     1      -5.710   3.075 125.059  0.00  0.00    +0.000 A 
ATOM     17  C   UNL     1      -6.730   2.216 125.456  0.00  0.00    +0.000 A 
ATOM     18  C   UNL     1      -7.700   1.868 124.532  0.00  0.00    +0.000 A 
ATOM     19  N   UNL     1      -7.720   2.295 123.251  0.00  0.00    +0.000 NA
ENDBRANCH   3  16
ENDBRANCH   2   6
ENDBRANCH   1   2
BRANCH   1  20
ATOM     20  C   UNL     1      -3.709   4.712 131.335  0.00  0.00    +0.000 C 
BRANCH  20  21
ATOM     21  N   UNL     1      -4.775   5.603 131.812  0.00  0.00    +0.000 NA
ATOM     22  C   UNL     1      -5.556   6.151 130.670  0.00  0.00    +0.000 C 
ATOM     23  C   UNL     1      -6.398   5.096 129.893  0.00  0.00    +0.000 C 
ATOM     24  N   UNL     1      -7.222   4.342 130.845  0.00  0.00    +0.000 N 
ATOM     25  C   UNL     1      -6.516   3.774 131.996  0.00  0.00    +0.000 C 
ATOM     26  C   UNL     1      -5.724   4.899 132.711  0.00  0.00    +0.000 C 
BRANCH  24  27
ATOM     27  C   UNL     1      -8.583   4.161 130.670  0.00  0.00    +0.000 A 
ATOM     28  C   UNL     1      -9.118   2.882 130.792  0.00  0.00    +0.000 A 
ATOM     29  C   UNL     1     -10.484   2.712 130.669  0.00  0.00    +0.000 A 
ATOM     30  N   UNL     1     -11.350   3.714 130.410  0.00  0.00    +0.000 NA
ATOM     31  C   UNL     1     -10.860   4.950 130.269  0.00  0.00    +0.000 A 
ATOM     32  C   UNL     1      -9.477   5.234 130.390  0.00  0.00    +0.000 A 
ATOM     33  C   UNL     1      -9.069   6.567 130.188  0.00  0.00    +0.000 A 
ATOM     34  C   UNL     1      -9.958   7.601 129.933  0.00  0.00    +0.000 A 
ATOM     35  C   UNL     1     -11.303   7.303 129.832  0.00  0.00    +0.000 A 
ATOM     36 CL   UNL     1     -12.420   8.565 129.498  0.00  0.00    +0.000 Cl
ATOM     37  C   UNL     1     -11.741   5.989 129.989  0.00  0.00    +0.000 A 
ENDBRANCH  24  27
ENDBRANCH  20  21
ENDBRANCH   1  20
TORSDOF 6
ENDMDL
MODEL 9
REMARK VINA RESULT:      -8.6      3.130      6.229
REMARK  Name = Piperaquine
REMARK  6 active torsions:
REMARK  status: ('A' for Active; 'I' for Inactive)
REMARK    1  A    between atoms: C_8  and  N_12
REMARK    2  A    between atoms: N_15  and  C_16
REMARK    3  A    between atoms: C_16  and  C_17
REMARK    4  A    between atoms: C_17  and  C_18
REMARK    5  A    between atoms: C_18  and  N_19
REMARK    6  A    between atoms: N_22  and  C_25
REMARK                            x       y       z     vdW  Elec       q    Type
REMARK                         _______ _______ _______ _____ _____    ______ ____
ROOT
ATOM      1  C   UNL     1      -6.217   4.613 125.550  0.00  0.00    +0.000 C 
ENDROOT
BRANCH   1   2
ATOM      2  C   UNL     1      -5.983   3.493 124.567  0.00  0.00    +0.000 C 
BRANCH   2   6
ATOM      3  N   UNL     1      -7.974   0.664 123.838  0.00  0.00    +0.000 N 
ATOM      4  C   UNL     1      -6.729   0.952 123.106  0.00  0.00    +0.000 C 
ATOM      5  C   UNL     1      -6.798   2.414 122.569  0.00  0.00    +0.000 C 
ATOM      6  N   UNL     1      -7.103   3.426 123.615  0.00  0.00    +0.000 NA
ATOM      7  C   UNL     1      -8.368   3.021 124.286  0.00  0.00    +0.000 C 
ATOM      8  C   UNL     1      -8.269   1.617 124.922  0.00  0.00    +0.000 C 
BRANCH   3  16
ATOM      9 CL   UNL     1      -8.243  -3.709 129.010  0.00  0.00    +0.000 Cl
ATOM     10  C   UNL     1      -8.334  -2.797 127.555  0.00  0.00    +0.000 A 
ATOM     11  C   UNL     1      -8.945  -3.330 126.420  0.00  0.00    +0.000 A 
ATOM     12  C   UNL     1      -9.020  -2.619 125.227  0.00  0.00    +0.000 A 
ATOM     13  C   UNL     1      -8.481  -1.317 125.175  0.00  0.00    +0.000 A 
ATOM     14  C   UNL     1      -7.916  -0.784 126.359  0.00  0.00    +0.000 A 
ATOM     15  C   UNL     1      -7.806  -1.521 127.529  0.00  0.00    +0.000 A 
ATOM     16  C   UNL     1      -8.546  -0.596 123.943  0.00  0.00    +0.000 A 
ATOM     17  C   UNL     1      -9.175  -1.202 122.860  0.00  0.00    +0.000 A 
ATOM     18  C   UNL     1      -9.671  -2.485 123.017  0.00  0.00    +0.000 A 
ATOM     19  N   UNL     1      -9.604  -3.194 124.164  0.00  0.00    +0.000 NA
ENDBRANCH   3  16
ENDBRANCH   2   6
ENDBRANCH   1   2
BRANCH   1  20
ATOM     20  C   UNL     1      -5.645   4.292 126.921  0.00  0.00    +0.000 C 
BRANCH  20  21
ATOM     21  N   UNL     1      -6.519   4.819 127.978  0.00  0.00    +0.000 NA
ATOM     22  C   UNL     1      -7.892   4.257 127.857  0.00  0.00    +0.000 C 
ATOM     23  C   UNL     1      -7.995   2.729 128.142  0.00  0.00    +0.000 C 
ATOM     24  N   UNL     1      -7.365   2.437 129.436  0.00  0.00    +0.000 N 
ATOM     25  C   UNL     1      -6.010   2.962 129.622  0.00  0.00    +0.000 C 
ATOM     26  C   UNL     1      -6.012   4.485 129.333  0.00  0.00    +0.000 C 
BRANCH  24  27
ATOM     27  C   UNL     1      -7.997   1.700 130.421  0.00  0.00    +0.000 A 
ATOM     28  C   UNL     1      -9.158   2.201 131.003  0.00  0.00    +0.000 A 
ATOM     29  C   UNL     1      -9.817   1.439 131.949  0.00  0.00    +0.000 A 
ATOM     30  N   UNL     1      -9.393   0.231 132.376  0.00  0.00    +0.000 NA
ATOM     31  C   UNL     1      -8.269  -0.265 131.848  0.00  0.00    +0.000 A 
ATOM     32  C   UNL     1      -7.526   0.429 130.861  0.00  0.00    +0.000 A 
ATOM     33  C   UNL     1      -6.338  -0.173 130.401  0.00  0.00    +0.000 A 
ATOM     34  C   UNL     1      -5.906  -1.419 130.829  0.00  0.00    +0.000 A 
ATOM     35  C   UNL     1      -6.654  -2.084 131.782  0.00  0.00    +0.000 A 
ATOM     36 CL   UNL     1      -6.126  -3.621 132.340  0.00  0.00    +0.000 Cl
ATOM     37  C   UNL     1      -7.814  -1.503 132.288  0.00  0.00    +0.000 A 
ENDBRANCH  24  27
ENDBRANCH  20  21
ENDBRANCH   1  20
TORSDOF 6
ENDMDL
