MODEL 1
REMARK VINA RESULT:      -7.5      0.000      0.000
REMARK  Name = Pipotiazine
REMARK  11 active torsions:
REMARK  status: ('A' for Active; 'I' for Inactive)
REMARK    1  A    between atoms: C_1  and  N_2
REMARK    2  A    between atoms: N_2  and  C_3
REMARK    3  A    between atoms: N_2  and  S_4
REMARK    4  A    between atoms: S_4  and  C_7
REMARK    5  A    between atoms: N_18  and  C_19
REMARK    6  A    between atoms: C_19  and  C_20
REMARK    7  A    between atoms: C_20  and  C_21
REMARK    8  A    between atoms: C_21  and  N_22
REMARK    9  A    between atoms: C_25  and  C_26
REMARK   10  A    between atoms: C_26  and  C_27
REMARK   11  A    between atoms: C_27  and  O_28
REMARK                            x       y       z     vdW  Elec       q    Type
REMARK                         _______ _______ _______ _____ _____    ______ ____
ROOT
ATOM      1  C   UNL     1      -9.299   5.950 130.447  0.00  0.00    +0.000 A 
ATOM      2  C   UNL     1      -8.787   4.828 129.810  0.00  0.00    +0.000 A 
ATOM      3  C   UNL     1      -7.414   4.591 129.733  0.00  0.00    +0.000 A 
ATOM      4  C   UNL     1      -6.545   5.446 130.428  0.00  0.00    +0.000 A 
ATOM      5  S   UNL     1      -4.785   5.152 130.412  0.00  0.00    +0.000 S 
ATOM      6  C   UNL     1      -4.640   4.480 128.761  0.00  0.00    +0.000 A 
ATOM      7  C   UNL     1      -3.452   4.706 128.053  0.00  0.00    +0.000 A 
ATOM      8  C   UNL     1      -3.296   4.225 126.753  0.00  0.00    +0.000 A 
ATOM      9  C   UNL     1      -4.336   3.547 126.141  0.00  0.00    +0.000 A 
ATOM     10  C   UNL     1      -5.540   3.386 126.822  0.00  0.00    +0.000 A 
ATOM     11  C   UNL     1      -5.705   3.779 128.164  0.00  0.00    +0.000 A 
ATOM     12  N   UNL     1      -6.935   3.603 128.837  0.00  0.00    +0.000 N 
ATOM     13  C   UNL     1      -7.060   6.526 131.154  0.00  0.00    +0.000 A 
ATOM     14  C   UNL     1      -8.432   6.793 131.146  0.00  0.00    +0.000 A 
ENDROOT
BRANCH   1  15
ATOM     15  S   UNL     1     -11.027   6.364 130.395  0.00  0.00    +0.000 S 
ATOM     16  O   UNL     1     -11.504   6.421 131.757  0.00  0.00    +0.000 OA
ATOM     17  O   UNL     1     -11.623   5.452 129.432  0.00  0.00    +0.000 OA
BRANCH  15  19
ATOM     18  C   UNL     1     -10.583   8.030 128.379  0.00  0.00    +0.000 C 
ATOM     19  N   UNL     1     -11.189   7.962 129.748  0.00  0.00    +0.000 NA
ATOM     20  C   UNL     1     -12.577   8.488 129.636  0.00  0.00    +0.000 C 
ENDBRANCH  15  19
ENDBRANCH   1  15
BRANCH  12  21
ATOM     21  C   UNL     1      -7.591   2.267 128.978  0.00  0.00    +0.000 C 
BRANCH  21  22
ATOM     22  C   UNL     1      -8.435   1.907 127.788  0.00  0.00    +0.000 C 
BRANCH  22  23
ATOM     23  C   UNL     1      -8.135   0.633 127.029  0.00  0.00    +0.000 C 
BRANCH  23  24
ATOM     24  N   UNL     1      -8.256   0.842 125.565  0.00  0.00    +0.000 NA
ATOM     25  C   UNL     1      -8.904   2.126 125.260  0.00  0.00    +0.000 C 
ATOM     26  C   UNL     1      -9.102   2.264 123.749  0.00  0.00    +0.000 C 
ATOM     27  C   UNL     1      -7.767   2.193 122.990  0.00  0.00    +0.000 C 
ATOM     28  C   UNL     1      -7.072   0.878 123.351  0.00  0.00    +0.000 C 
ATOM     29  C   UNL     1      -6.962   0.726 124.853  0.00  0.00    +0.000 C 
BRANCH  27  30
ATOM     30  C   UNL     1      -6.864   3.406 123.298  0.00  0.00    +0.000 C 
BRANCH  30  31
ATOM     31  C   UNL     1      -5.901   3.702 122.158  0.00  0.00    +0.000 C 
BRANCH  31  32
ATOM     32  O   UNL     1      -5.075   4.802 122.505  0.00  0.00    +0.000 OA
ATOM     33  H   UNL     1      -4.937   5.322 121.695  0.00  0.00    +0.000 HD
ENDBRANCH  31  32
ENDBRANCH  30  31
ENDBRANCH  27  30
ENDBRANCH  23  24
ENDBRANCH  22  23
ENDBRANCH  21  22
ENDBRANCH  12  21
TORSDOF 9
ENDMDL
MODEL 2
REMARK VINA RESULT:      -7.5      3.127      7.386
REMARK  Name = Pipotiazine
REMARK  11 active torsions:
REMARK  status: ('A' for Active; 'I' for Inactive)
REMARK    1  A    between atoms: C_1  and  N_2
REMARK    2  A    between atoms: N_2  and  C_3
REMARK    3  A    between atoms: N_2  and  S_4
REMARK    4  A    between atoms: S_4  and  C_7
REMARK    5  A    between atoms: N_18  and  C_19
REMARK    6  A    between atoms: C_19  and  C_20
REMARK    7  A    between atoms: C_20  and  C_21
REMARK    8  A    between atoms: C_21  and  N_22
REMARK    9  A    between atoms: C_25  and  C_26
REMARK   10  A    between atoms: C_26  and  C_27
REMARK   11  A    between atoms: C_27  and  O_28
REMARK                            x       y       z     vdW  Elec       q    Type
REMARK                         _______ _______ _______ _____ _____    ______ ____
ROOT
ATOM      1  C   UNL     1      -8.175   1.112 124.774  0.00  0.00    +0.000 A 
ATOM      2  C   UNL     1      -8.022   1.595 126.067  0.00  0.00    +0.000 A 
ATOM      3  C   UNL     1      -7.252   2.726 126.342  0.00  0.00    +0.000 A 
ATOM      4  C   UNL     1      -6.730   3.460 125.265  0.00  0.00    +0.000 A 
ATOM      5  S   UNL     1      -5.789   4.948 125.558  0.00  0.00    +0.000 S 
ATOM      6  C   UNL     1      -5.010   4.475 127.097  0.00  0.00    +0.000 A 
ATOM      7  C   UNL     1      -3.734   4.981 127.380  0.00  0.00    +0.000 A 
ATOM      8  C   UNL     1      -3.072   4.624 128.554  0.00  0.00    +0.000 A 
ATOM      9  C   UNL     1      -3.663   3.735 129.435  0.00  0.00    +0.000 A 
ATOM     10  C   UNL     1      -4.900   3.179 129.116  0.00  0.00    +0.000 A 
ATOM     11  C   UNL     1      -5.638   3.580 127.986  0.00  0.00    +0.000 A 
ATOM     12  N   UNL     1      -6.892   3.006 127.683  0.00  0.00    +0.000 N 
ATOM     13  C   UNL     1      -6.961   3.035 123.952  0.00  0.00    +0.000 A 
ATOM     14  C   UNL     1      -7.663   1.851 123.705  0.00  0.00    +0.000 A 
ENDROOT
BRANCH   1  15
ATOM     15  S   UNL     1      -8.995  -0.427 124.427  0.00  0.00    +0.000 S 
ATOM     16  O   UNL     1      -9.799  -0.236 123.244  0.00  0.00    +0.000 OA
ATOM     17  O   UNL     1      -9.599  -0.843 125.683  0.00  0.00    +0.000 OA
BRANCH  15  19
ATOM     18  C   UNL     1      -7.971  -2.834 124.869  0.00  0.00    +0.000 C 
ATOM     19  N   UNL     1      -7.795  -1.608 124.024  0.00  0.00    +0.000 NA
ATOM     20  C   UNL     1      -7.766  -2.058 122.606  0.00  0.00    +0.000 C 
ENDBRANCH  15  19
ENDBRANCH   1  15
BRANCH  12  21
ATOM     21  C   UNL     1      -8.040   3.028 128.641  0.00  0.00    +0.000 C 
BRANCH  21  22
ATOM     22  C   UNL     1      -8.422   4.421 129.055  0.00  0.00    +0.000 C 
BRANCH  22  23
ATOM     23  C   UNL     1      -9.042   4.642 130.417  0.00  0.00    +0.000 C 
BRANCH  23  24
ATOM     24  N   UNL     1      -9.915   5.843 130.419  0.00  0.00    +0.000 NA
ATOM     25  C   UNL     1      -9.912   6.507 129.107  0.00  0.00    +0.000 C 
ATOM     26  C   UNL     1     -10.739   7.792 129.172  0.00  0.00    +0.000 C 
ATOM     27  C   UNL     1     -12.196   7.513 129.582  0.00  0.00    +0.000 C 
ATOM     28  C   UNL     1     -12.190   6.776 130.923  0.00  0.00    +0.000 C 
ATOM     29  C   UNL     1     -11.299   5.554 130.857  0.00  0.00    +0.000 C 
BRANCH  27  30
ATOM     30  C   UNL     1     -12.953   6.709 128.503  0.00  0.00    +0.000 C 
BRANCH  30  31
ATOM     31  C   UNL     1     -12.870   7.373 127.137  0.00  0.00    +0.000 C 
BRANCH  31  32
ATOM     32  O   UNL     1     -12.168   6.529 126.238  0.00  0.00    +0.000 OA
ATOM     33  H   UNL     1     -11.532   7.088 125.760  0.00  0.00    +0.000 HD
ENDBRANCH  31  32
ENDBRANCH  30  31
ENDBRANCH  27  30
ENDBRANCH  23  24
ENDBRANCH  22  23
ENDBRANCH  21  22
ENDBRANCH  12  21
TORSDOF 9
ENDMDL
MODEL 3
REMARK VINA RESULT:      -7.5      1.251      1.608
REMARK  Name = Pipotiazine
REMARK  11 active torsions:
REMARK  status: ('A' for Active; 'I' for Inactive)
REMARK    1  A    between atoms: C_1  and  N_2
REMARK    2  A    between atoms: N_2  and  C_3
REMARK    3  A    between atoms: N_2  and  S_4
REMARK    4  A    between atoms: S_4  and  C_7
REMARK    5  A    between atoms: N_18  and  C_19
REMARK    6  A    between atoms: C_19  and  C_20
REMARK    7  A    between atoms: C_20  and  C_21
REMARK    8  A    between atoms: C_21  and  N_22
REMARK    9  A    between atoms: C_25  and  C_26
REMARK   10  A    between atoms: C_26  and  C_27
REMARK   11  A    between atoms: C_27  and  O_28
REMARK                            x       y       z     vdW  Elec       q    Type
REMARK                         _______ _______ _______ _____ _____    ______ ____
ROOT
ATOM      1  C   UNL     1      -9.294   5.377 130.675  0.00  0.00    +0.000 A 
ATOM      2  C   UNL     1      -8.434   4.416 130.160  0.00  0.00    +0.000 A 
ATOM      3  C   UNL     1      -7.049   4.524 130.295  0.00  0.00    +0.000 A 
ATOM      4  C   UNL     1      -6.530   5.565 131.082  0.00  0.00    +0.000 A 
ATOM      5  S   UNL     1      -4.770   5.713 131.337  0.00  0.00    +0.000 S 
ATOM      6  C   UNL     1      -4.216   5.102 129.750  0.00  0.00    +0.000 A 
ATOM      7  C   UNL     1      -3.026   5.616 129.218  0.00  0.00    +0.000 A 
ATOM      8  C   UNL     1      -2.562   5.191 127.973  0.00  0.00    +0.000 A 
ATOM      9  C   UNL     1      -3.300   4.280 127.238  0.00  0.00    +0.000 A 
ATOM     10  C   UNL     1      -4.517   3.826 127.738  0.00  0.00    +0.000 A 
ATOM     11  C   UNL     1      -4.976   4.162 129.026  0.00  0.00    +0.000 A 
ATOM     12  N   UNL     1      -6.213   3.687 129.515  0.00  0.00    +0.000 N 
ATOM     13  C   UNL     1      -7.396   6.484 131.686  0.00  0.00    +0.000 A 
ATOM     14  C   UNL     1      -8.775   6.404 131.465  0.00  0.00    +0.000 A 
ENDROOT
BRANCH   1  15
ATOM     15  S   UNL     1     -11.043   5.353 130.353  0.00  0.00    +0.000 S 
ATOM     16  O   UNL     1     -11.687   6.127 131.387  0.00  0.00    +0.000 OA
ATOM     17  O   UNL     1     -11.386   3.956 130.142  0.00  0.00    +0.000 OA
BRANCH  15  19
ATOM     18  C   UNL     1     -12.776   6.590 128.771  0.00  0.00    +0.000 C 
ATOM     19  N   UNL     1     -11.337   6.180 128.861  0.00  0.00    +0.000 NA
ATOM     20  C   UNL     1     -10.521   7.400 128.614  0.00  0.00    +0.000 C 
ENDBRANCH  15  19
ENDBRANCH   1  15
BRANCH  12  21
ATOM     21  C   UNL     1      -6.538   2.231 129.604  0.00  0.00    +0.000 C 
BRANCH  21  22
ATOM     22  C   UNL     1      -6.923   1.641 128.277  0.00  0.00    +0.000 C 
BRANCH  22  23
ATOM     23  C   UNL     1      -8.383   1.376 127.983  0.00  0.00    +0.000 C 
BRANCH  23  24
ATOM     24  N   UNL     1      -8.804   2.042 126.725  0.00  0.00    +0.000 NA
ATOM     25  C   UNL     1      -7.791   3.001 126.264  0.00  0.00    +0.000 C 
ATOM     26  C   UNL     1      -8.300   3.741 125.025  0.00  0.00    +0.000 C 
ATOM     27  C   UNL     1      -8.622   2.771 123.875  0.00  0.00    +0.000 C 
ATOM     28  C   UNL     1      -9.638   1.743 124.376  0.00  0.00    +0.000 C 
ATOM     29  C   UNL     1      -9.149   1.085 125.649  0.00  0.00    +0.000 C 
BRANCH  27  30
ATOM     30  C   UNL     1      -7.352   2.084 123.329  0.00  0.00    +0.000 C 
BRANCH  30  31
ATOM     31  C   UNL     1      -6.651   2.935 122.280  0.00  0.00    +0.000 C 
BRANCH  31  32
ATOM     32  O   UNL     1      -7.603   3.745 121.609  0.00  0.00    +0.000 OA
ATOM     33  H   UNL     1      -7.884   4.434 122.235  0.00  0.00    +0.000 HD
ENDBRANCH  31  32
ENDBRANCH  30  31
ENDBRANCH  27  30
ENDBRANCH  23  24
ENDBRANCH  22  23
ENDBRANCH  21  22
ENDBRANCH  12  21
TORSDOF 9
ENDMDL
MODEL 4
REMARK VINA RESULT:      -7.4      5.041      8.586
REMARK  Name = Pipotiazine
REMARK  11 active torsions:
REMARK  status: ('A' for Active; 'I' for Inactive)
REMARK    1  A    between atoms: C_1  and  N_2
REMARK    2  A    between atoms: N_2  and  C_3
REMARK    3  A    between atoms: N_2  and  S_4
REMARK    4  A    between atoms: S_4  and  C_7
REMARK    5  A    between atoms: N_18  and  C_19
REMARK    6  A    between atoms: C_19  and  C_20
REMARK    7  A    between atoms: C_20  and  C_21
REMARK    8  A    between atoms: C_21  and  N_22
REMARK    9  A    between atoms: C_25  and  C_26
REMARK   10  A    between atoms: C_26  and  C_27
REMARK   11  A    between atoms: C_27  and  O_28
REMARK                            x       y       z     vdW  Elec       q    Type
REMARK                         _______ _______ _______ _____ _____    ______ ____
ROOT
ATOM      1  C   UNL     1      -5.887  -3.139 129.326  0.00  0.00    +0.000 A 
ATOM      2  C   UNL     1      -5.615  -2.247 128.297  0.00  0.00    +0.000 A 
ATOM      3  C   UNL     1      -6.552  -1.971 127.299  0.00  0.00    +0.000 A 
ATOM      4  C   UNL     1      -7.840  -2.515 127.419  0.00  0.00    +0.000 A 
ATOM      5  S   UNL     1      -9.093  -2.145 126.203  0.00  0.00    +0.000 S 
ATOM      6  C   UNL     1      -8.040  -2.019 124.762  0.00  0.00    +0.000 A 
ATOM      7  C   UNL     1      -8.568  -2.391 123.518  0.00  0.00    +0.000 A 
ATOM      8  C   UNL     1      -7.783  -2.335 122.368  0.00  0.00    +0.000 A 
ATOM      9  C   UNL     1      -6.459  -1.942 122.456  0.00  0.00    +0.000 A 
ATOM     10  C   UNL     1      -5.918  -1.641 123.704  0.00  0.00    +0.000 A 
ATOM     11  C   UNL     1      -6.700  -1.601 124.874  0.00  0.00    +0.000 A 
ATOM     12  N   UNL     1      -6.132  -1.290 126.129  0.00  0.00    +0.000 N 
ATOM     13  C   UNL     1      -8.153  -3.338 128.506  0.00  0.00    +0.000 A 
ATOM     14  C   UNL     1      -7.173  -3.669 129.447  0.00  0.00    +0.000 A 
ENDROOT
BRANCH   1  15
ATOM     15  S   UNL     1      -4.647  -3.642 130.496  0.00  0.00    +0.000 S 
ATOM     16  O   UNL     1      -3.379  -3.667 129.805  0.00  0.00    +0.000 OA
ATOM     17  O   UNL     1      -5.172  -4.837 131.137  0.00  0.00    +0.000 OA
BRANCH  15  19
ATOM     18  C   UNL     1      -3.745  -1.249 131.200  0.00  0.00    +0.000 C 
ATOM     19  N   UNL     1      -4.519  -2.423 131.719  0.00  0.00    +0.000 NA
ATOM     20  C   UNL     1      -5.803  -1.895 132.256  0.00  0.00    +0.000 C 
ENDBRANCH  15  19
ENDBRANCH   1  15
BRANCH  12  21
ATOM     21  C   UNL     1      -5.393  -0.016 126.385  0.00  0.00    +0.000 C 
BRANCH  21  22
ATOM     22  C   UNL     1      -6.211   1.203 126.065  0.00  0.00    +0.000 C 
BRANCH  22  23
ATOM     23  C   UNL     1      -5.506   2.493 125.710  0.00  0.00    +0.000 C 
BRANCH  23  24
ATOM     24  N   UNL     1      -4.453   2.818 126.705  0.00  0.00    +0.000 NA
ATOM     25  C   UNL     1      -3.359   3.585 126.094  0.00  0.00    +0.000 C 
ATOM     26  C   UNL     1      -2.247   3.815 127.120  0.00  0.00    +0.000 C 
ATOM     27  C   UNL     1      -2.759   4.581 128.353  0.00  0.00    +0.000 C 
ATOM     28  C   UNL     1      -3.932   3.803 128.954  0.00  0.00    +0.000 C 
ATOM     29  C   UNL     1      -4.980   3.516 127.900  0.00  0.00    +0.000 C 
BRANCH  27  30
ATOM     30  C   UNL     1      -3.167   6.028 128.004  0.00  0.00    +0.000 C 
BRANCH  30  31
ATOM     31  C   UNL     1      -3.464   6.850 129.249  0.00  0.00    +0.000 C 
BRANCH  31  32
ATOM     32  O   UNL     1      -4.111   8.058 128.879  0.00  0.00    +0.000 OA
ATOM     33  H   UNL     1      -5.047   7.966 129.125  0.00  0.00    +0.000 HD
ENDBRANCH  31  32
ENDBRANCH  30  31
ENDBRANCH  27  30
ENDBRANCH  23  24
ENDBRANCH  22  23
ENDBRANCH  21  22
ENDBRANCH  12  21
TORSDOF 9
ENDMDL
MODEL 5
REMARK VINA RESULT:      -7.4      2.346      2.973
REMARK  Name = Pipotiazine
REMARK  11 active torsions:
REMARK  status: ('A' for Active; 'I' for Inactive)
REMARK    1  A    between atoms: C_1  and  N_2
REMARK    2  A    between atoms: N_2  and  C_3
REMARK    3  A    between atoms: N_2  and  S_4
REMARK    4  A    between atoms: S_4  and  C_7
REMARK    5  A    between atoms: N_18  and  C_19
REMARK    6  A    between atoms: C_19  and  C_20
REMARK    7  A    between atoms: C_20  and  C_21
REMARK    8  A    between atoms: C_21  and  N_22
REMARK    9  A    between atoms: C_25  and  C_26
REMARK   10  A    between atoms: C_26  and  C_27
REMARK   11  A    between atoms: C_27  and  O_28
REMARK                            x       y       z     vdW  Elec       q    Type
REMARK                         _______ _______ _______ _____ _____    ______ ____
ROOT
ATOM      1  C   UNL     1      -9.855   5.940 130.437  0.00  0.00    +0.000 A 
ATOM      2  C   UNL     1      -9.273   4.992 129.606  0.00  0.00    +0.000 A 
ATOM      3  C   UNL     1      -7.920   4.664 129.703  0.00  0.00    +0.000 A 
ATOM      4  C   UNL     1      -7.168   5.217 130.751  0.00  0.00    +0.000 A 
ATOM      5  S   UNL     1      -5.449   4.784 130.957  0.00  0.00    +0.000 S 
ATOM      6  C   UNL     1      -5.017   4.575 129.233  0.00  0.00    +0.000 A 
ATOM      7  C   UNL     1      -3.708   4.879 128.835  0.00  0.00    +0.000 A 
ATOM      8  C   UNL     1      -3.325   4.757 127.500  0.00  0.00    +0.000 A 
ATOM      9  C   UNL     1      -4.254   4.365 126.550  0.00  0.00    +0.000 A 
ATOM     10  C   UNL     1      -5.571   4.133 126.939  0.00  0.00    +0.000 A 
ATOM     11  C   UNL     1      -5.975   4.160 128.288  0.00  0.00    +0.000 A 
ATOM     12  N   UNL     1      -7.315   3.918 128.661  0.00  0.00    +0.000 N 
ATOM     13  C   UNL     1      -7.771   6.101 131.653  0.00  0.00    +0.000 A 
ATOM     14  C   UNL     1      -9.106   6.481 131.485  0.00  0.00    +0.000 A 
ENDROOT
BRANCH   1  15
ATOM     15  S   UNL     1     -11.525   6.505 130.207  0.00  0.00    +0.000 S 
ATOM     16  O   UNL     1     -12.173   6.489 131.497  0.00  0.00    +0.000 OA
ATOM     17  O   UNL     1     -12.053   5.730 129.095  0.00  0.00    +0.000 OA
BRANCH  15  19
ATOM     18  C   UNL     1     -10.736   8.281 128.401  0.00  0.00    +0.000 C 
ATOM     19  N   UNL     1     -11.480   8.159 129.697  0.00  0.00    +0.000 NA
ATOM     20  C   UNL     1     -12.797   8.824 129.508  0.00  0.00    +0.000 C 
ENDBRANCH  15  19
ENDBRANCH   1  15
BRANCH  12  21
ATOM     21  C   UNL     1      -8.036   2.658 128.302  0.00  0.00    +0.000 C 
BRANCH  21  22
ATOM     22  C   UNL     1      -7.203   1.428 128.534  0.00  0.00    +0.000 C 
BRANCH  22  23
ATOM     23  C   UNL     1      -7.703   0.093 128.030  0.00  0.00    +0.000 C 
BRANCH  23  24
ATOM     24  N   UNL     1      -7.076  -0.256 126.730  0.00  0.00    +0.000 NA
ATOM     25  C   UNL     1      -6.426  -1.573 126.787  0.00  0.00    +0.000 C 
ATOM     26  C   UNL     1      -5.705  -1.856 125.467  0.00  0.00    +0.000 C 
ATOM     27  C   UNL     1      -6.675  -1.835 124.273  0.00  0.00    +0.000 C 
ATOM     28  C   UNL     1      -7.387  -0.481 124.249  0.00  0.00    +0.000 C 
ATOM     29  C   UNL     1      -8.021  -0.187 125.592  0.00  0.00    +0.000 C 
BRANCH  27  30
ATOM     30  C   UNL     1      -7.687  -2.999 124.333  0.00  0.00    +0.000 C 
BRANCH  30  31
ATOM     31  C   UNL     1      -8.762  -2.874 123.263  0.00  0.00    +0.000 C 
BRANCH  31  32
ATOM     32  O   UNL     1     -10.010  -3.293 123.790  0.00  0.00    +0.000 OA
ATOM     33  H   UNL     1     -10.661  -2.610 123.558  0.00  0.00    +0.000 HD
ENDBRANCH  31  32
ENDBRANCH  30  31
ENDBRANCH  27  30
ENDBRANCH  23  24
ENDBRANCH  22  23
ENDBRANCH  21  22
ENDBRANCH  12  21
TORSDOF 9
ENDMDL
MODEL 6
REMARK VINA RESULT:      -7.4      3.152      4.398
REMARK  Name = Pipotiazine
REMARK  11 active torsions:
REMARK  status: ('A' for Active; 'I' for Inactive)
REMARK    1  A    between atoms: C_1  and  N_2
REMARK    2  A    between atoms: N_2  and  C_3
REMARK    3  A    between atoms: N_2  and  S_4
REMARK    4  A    between atoms: S_4  and  C_7
REMARK    5  A    between atoms: N_18  and  C_19
REMARK    6  A    between atoms: C_19  and  C_20
REMARK    7  A    between atoms: C_20  and  C_21
REMARK    8  A    between atoms: C_21  and  N_22
REMARK    9  A    between atoms: C_25  and  C_26
REMARK   10  A    between atoms: C_26  and  C_27
REMARK   11  A    between atoms: C_27  and  O_28
REMARK                            x       y       z     vdW  Elec       q    Type
REMARK                         _______ _______ _______ _____ _____    ______ ____
ROOT
ATOM      1  C   UNL     1      -9.664   6.052 130.265  0.00  0.00    +0.000 A 
ATOM      2  C   UNL     1      -9.185   4.942 129.583  0.00  0.00    +0.000 A 
ATOM      3  C   UNL     1      -7.831   4.604 129.590  0.00  0.00    +0.000 A 
ATOM      4  C   UNL     1      -6.961   5.336 130.413  0.00  0.00    +0.000 A 
ATOM      5  S   UNL     1      -5.231   4.907 130.505  0.00  0.00    +0.000 S 
ATOM      6  C   UNL     1      -5.003   4.345 128.822  0.00  0.00    +0.000 A 
ATOM      7  C   UNL     1      -3.749   4.528 128.224  0.00  0.00    +0.000 A 
ATOM      8  C   UNL     1      -3.524   4.131 126.907  0.00  0.00    +0.000 A 
ATOM      9  C   UNL     1      -4.559   3.582 126.168  0.00  0.00    +0.000 A 
ATOM     10  C   UNL     1      -5.822   3.467 126.743  0.00  0.00    +0.000 A 
ATOM     11  C   UNL     1      -6.065   3.775 128.095  0.00  0.00    +0.000 A 
ATOM     12  N   UNL     1      -7.354   3.648 128.659  0.00  0.00    +0.000 N 
ATOM     13  C   UNL     1      -7.452   6.398 131.180  0.00  0.00    +0.000 A 
ATOM     14  C   UNL     1      -8.796   6.772 131.090  0.00  0.00    +0.000 A 
ENDROOT
BRANCH   1  15
ATOM     15  S   UNL     1     -11.347   6.603 130.117  0.00  0.00    +0.000 S 
ATOM     16  O   UNL     1     -11.904   6.669 131.448  0.00  0.00    +0.000 OA
ATOM     17  O   UNL     1     -11.949   5.761 129.096  0.00  0.00    +0.000 OA
BRANCH  15  19
ATOM     18  C   UNL     1     -10.670   8.265 128.164  0.00  0.00    +0.000 C 
ATOM     19  N   UNL     1     -11.342   8.222 129.503  0.00  0.00    +0.000 NA
ATOM     20  C   UNL     1     -12.674   8.867 129.342  0.00  0.00    +0.000 C 
ENDBRANCH  15  19
ENDBRANCH   1  15
BRANCH  12  21
ATOM     21  C   UNL     1      -8.115   2.361 128.647  0.00  0.00    +0.000 C 
BRANCH  21  22
ATOM     22  C   UNL     1      -7.321   1.213 129.203  0.00  0.00    +0.000 C 
BRANCH  22  23
ATOM     23  C   UNL     1      -7.856   0.457 130.399  0.00  0.00    +0.000 C 
BRANCH  23  24
ATOM     24  N   UNL     1      -7.567  -0.995 130.286  0.00  0.00    +0.000 NA
ATOM     25  C   UNL     1      -7.431  -1.405 128.881  0.00  0.00    +0.000 C 
ATOM     26  C   UNL     1      -7.234  -2.920 128.797  0.00  0.00    +0.000 C 
ATOM     27  C   UNL     1      -5.982  -3.375 129.567  0.00  0.00    +0.000 C 
ATOM     28  C   UNL     1      -6.104  -2.901 131.016  0.00  0.00    +0.000 C 
ATOM     29  C   UNL     1      -6.383  -1.413 131.070  0.00  0.00    +0.000 C 
BRANCH  27  30
ATOM     30  C   UNL     1      -4.684  -2.854 128.914  0.00  0.00    +0.000 C 
BRANCH  30  31
ATOM     31  C   UNL     1      -3.445  -3.310 129.671  0.00  0.00    +0.000 C 
BRANCH  31  32
ATOM     32  O   UNL     1      -2.460  -2.289 129.632  0.00  0.00    +0.000 OA
ATOM     33  H   UNL     1      -2.757  -1.632 128.981  0.00  0.00    +0.000 HD
ENDBRANCH  31  32
ENDBRANCH  30  31
ENDBRANCH  27  30
ENDBRANCH  23  24
ENDBRANCH  22  23
ENDBRANCH  21  22
ENDBRANCH  12  21
TORSDOF 9
ENDMDL
MODEL 7
REMARK VINA RESULT:      -7.2      3.926      8.222
REMARK  Name = Pipotiazine
REMARK  11 active torsions:
REMARK  status: ('A' for Active; 'I' for Inactive)
REMARK    1  A    between atoms: C_1  and  N_2
REMARK    2  A    between atoms: N_2  and  C_3
REMARK    3  A    between atoms: N_2  and  S_4
REMARK    4  A    between atoms: S_4  and  C_7
REMARK    5  A    between atoms: N_18  and  C_19
REMARK    6  A    between atoms: C_19  and  C_20
REMARK    7  A    between atoms: C_20  and  C_21
REMARK    8  A    between atoms: C_21  and  N_22
REMARK    9  A    between atoms: C_25  and  C_26
REMARK   10  A    between atoms: C_26  and  C_27
REMARK   11  A    between atoms: C_27  and  O_28
REMARK                            x       y       z     vdW  Elec       q    Type
REMARK                         _______ _______ _______ _____ _____    ______ ____
ROOT
ATOM      1  C   UNL     1      -7.415  -0.693 124.784  0.00  0.00    +0.000 A 
ATOM      2  C   UNL     1      -6.774   0.536 124.705  0.00  0.00    +0.000 A 
ATOM      3  C   UNL     1      -7.250   1.561 123.886  0.00  0.00    +0.000 A 
ATOM      4  C   UNL     1      -8.477   1.379 123.228  0.00  0.00    +0.000 A 
ATOM      5  S   UNL     1      -9.160   2.681 122.216  0.00  0.00    +0.000 S 
ATOM      6  C   UNL     1      -7.630   3.373 121.600  0.00  0.00    +0.000 A 
ATOM      7  C   UNL     1      -7.626   3.945 120.320  0.00  0.00    +0.000 A 
ATOM      8  C   UNL     1      -6.455   4.477 119.783  0.00  0.00    +0.000 A 
ATOM      9  C   UNL     1      -5.275   4.411 120.503  0.00  0.00    +0.000 A 
ATOM     10  C   UNL     1      -5.268   3.779 121.744  0.00  0.00    +0.000 A 
ATOM     11  C   UNL     1      -6.445   3.309 122.358  0.00  0.00    +0.000 A 
ATOM     12  N   UNL     1      -6.415   2.674 123.619  0.00  0.00    +0.000 N 
ATOM     13  C   UNL     1      -9.179   0.178 123.378  0.00  0.00    +0.000 A 
ATOM     14  C   UNL     1      -8.640  -0.866 124.136  0.00  0.00    +0.000 A 
ENDROOT
BRANCH   1  15
ATOM     15  S   UNL     1      -6.724  -2.068 125.674  0.00  0.00    +0.000 S 
ATOM     16  O   UNL     1      -5.362  -1.730 126.012  0.00  0.00    +0.000 OA
ATOM     17  O   UNL     1      -7.025  -3.246 124.877  0.00  0.00    +0.000 OA
BRANCH  15  19
ATOM     18  C   UNL     1      -8.590  -3.337 127.069  0.00  0.00    +0.000 C 
ATOM     19  N   UNL     1      -7.578  -2.236 127.171  0.00  0.00    +0.000 NA
ATOM     20  C   UNL     1      -6.747  -2.520 128.372  0.00  0.00    +0.000 C 
ENDBRANCH  15  19
ENDBRANCH   1  15
BRANCH  12  21
ATOM     21  C   UNL     1      -5.849   3.330 124.838  0.00  0.00    +0.000 C 
BRANCH  21  22
ATOM     22  C   UNL     1      -6.700   4.465 125.333  0.00  0.00    +0.000 C 
BRANCH  22  23
ATOM     23  C   UNL     1      -7.896   4.164 126.208  0.00  0.00    +0.000 C 
BRANCH  23  24
ATOM     24  N   UNL     1      -7.514   3.306 127.358  0.00  0.00    +0.000 NA
ATOM     25  C   UNL     1      -7.411   4.090 128.597  0.00  0.00    +0.000 C 
ATOM     26  C   UNL     1      -6.919   3.197 129.738  0.00  0.00    +0.000 C 
ATOM     27  C   UNL     1      -7.867   2.010 129.982  0.00  0.00    +0.000 C 
ATOM     28  C   UNL     1      -8.012   1.228 128.675  0.00  0.00    +0.000 C 
ATOM     29  C   UNL     1      -8.418   2.148 127.544  0.00  0.00    +0.000 C 
BRANCH  27  30
ATOM     30  C   UNL     1      -9.240   2.470 130.515  0.00  0.00    +0.000 C 
BRANCH  30  31
ATOM     31  C   UNL     1      -9.656   1.696 131.758  0.00  0.00    +0.000 C 
BRANCH  31  32
ATOM     32  O   UNL     1      -9.944   2.603 132.810  0.00  0.00    +0.000 OA
ATOM     33  H   UNL     1      -9.804   3.499 132.460  0.00  0.00    +0.000 HD
ENDBRANCH  31  32
ENDBRANCH  30  31
ENDBRANCH  27  30
ENDBRANCH  23  24
ENDBRANCH  22  23
ENDBRANCH  21  22
ENDBRANCH  12  21
TORSDOF 9
ENDMDL
MODEL 8
REMARK VINA RESULT:      -7.1      3.493      7.279
REMARK  Name = Pipotiazine
REMARK  11 active torsions:
REMARK  status: ('A' for Active; 'I' for Inactive)
REMARK    1  A    between atoms: C_1  and  N_2
REMARK    2  A    between atoms: N_2  and  C_3
REMARK    3  A    between atoms: N_2  and  S_4
REMARK    4  A    between atoms: S_4  and  C_7
REMARK    5  A    between atoms: N_18  and  C_19
REMARK    6  A    between atoms: C_19  and  C_20
REMARK    7  A    between atoms: C_20  and  C_21
REMARK    8  A    between atoms: C_21  and  N_22
REMARK    9  A    between atoms: C_25  and  C_26
REMARK   10  A    between atoms: C_26  and  C_27
REMARK   11  A    between atoms: C_27  and  O_28
REMARK                            x       y       z     vdW  Elec       q    Type
REMARK                         _______ _______ _______ _____ _____    ______ ____
ROOT
ATOM      1  C   UNL     1      -7.893   2.794 125.942  0.00  0.00    +0.000 A 
ATOM      2  C   UNL     1      -7.204   1.807 126.634  0.00  0.00    +0.000 A 
ATOM      3  C   UNL     1      -7.407   0.451 126.373  0.00  0.00    +0.000 A 
ATOM      4  C   UNL     1      -8.233   0.090 125.298  0.00  0.00    +0.000 A 
ATOM      5  S   UNL     1      -8.478  -1.629 124.884  0.00  0.00    +0.000 S 
ATOM      6  C   UNL     1      -8.391  -2.317 126.532  0.00  0.00    +0.000 A 
ATOM      7  C   UNL     1      -9.147  -3.462 126.815  0.00  0.00    +0.000 A 
ATOM      8  C   UNL     1      -9.134  -4.026 128.091  0.00  0.00    +0.000 A 
ATOM      9  C   UNL     1      -8.395  -3.430 129.099  0.00  0.00    +0.000 A 
ATOM     10  C   UNL     1      -7.701  -2.253 128.831  0.00  0.00    +0.000 A 
ATOM     11  C   UNL     1      -7.619  -1.703 127.538  0.00  0.00    +0.000 A 
ATOM     12  N   UNL     1      -6.907  -0.509 127.288  0.00  0.00    +0.000 N 
ATOM     13  C   UNL     1      -8.857   1.082 124.532  0.00  0.00    +0.000 A 
ATOM     14  C   UNL     1      -8.707   2.431 124.866  0.00  0.00    +0.000 A 
ENDROOT
BRANCH   1  15
ATOM     15  S   UNL     1      -7.787   4.512 126.385  0.00  0.00    +0.000 S 
ATOM     16  O   UNL     1      -7.664   4.586 127.822  0.00  0.00    +0.000 OA
ATOM     17  O   UNL     1      -8.888   5.166 125.695  0.00  0.00    +0.000 OA
BRANCH  15  19
ATOM     18  C   UNL     1      -5.170   4.861 126.643  0.00  0.00    +0.000 C 
ATOM     19  N   UNL     1      -6.321   5.158 125.729  0.00  0.00    +0.000 NA
ATOM     20  C   UNL     1      -5.938   4.674 124.376  0.00  0.00    +0.000 C 
ENDBRANCH  15  19
ENDBRANCH   1  15
BRANCH  12  21
ATOM     21  C   UNL     1      -5.458  -0.351 127.623  0.00  0.00    +0.000 C 
BRANCH  21  22
ATOM     22  C   UNL     1      -5.205  -0.325 129.104  0.00  0.00    +0.000 C 
BRANCH  22  23
ATOM     23  C   UNL     1      -4.601   0.913 129.728  0.00  0.00    +0.000 C 
BRANCH  23  24
ATOM     24  N   UNL     1      -5.455   1.427 130.828  0.00  0.00    +0.000 NA
ATOM     25  C   UNL     1      -6.224   2.605 130.403  0.00  0.00    +0.000 C 
ATOM     26  C   UNL     1      -7.014   3.167 131.587  0.00  0.00    +0.000 C 
ATOM     27  C   UNL     1      -7.986   2.126 132.168  0.00  0.00    +0.000 C 
ATOM     28  C   UNL     1      -7.188   0.882 132.562  0.00  0.00    +0.000 C 
ATOM     29  C   UNL     1      -6.351   0.394 131.398  0.00  0.00    +0.000 C 
BRANCH  27  30
ATOM     30  C   UNL     1      -9.116   1.777 131.176  0.00  0.00    +0.000 C 
BRANCH  30  31
ATOM     31  C   UNL     1      -9.908   3.008 130.761  0.00  0.00    +0.000 C 
BRANCH  31  32
ATOM     32  O   UNL     1      -9.719   3.252 129.376  0.00  0.00    +0.000 OA
ATOM     33  H   UNL     1     -10.482   2.867 128.913  0.00  0.00    +0.000 HD
ENDBRANCH  31  32
ENDBRANCH  30  31
ENDBRANCH  27  30
ENDBRANCH  23  24
ENDBRANCH  22  23
ENDBRANCH  21  22
ENDBRANCH  12  21
TORSDOF 9
ENDMDL
MODEL 9
REMARK VINA RESULT:      -7.0      5.261      7.875
REMARK  Name = Pipotiazine
REMARK  11 active torsions:
REMARK  status: ('A' for Active; 'I' for Inactive)
REMARK    1  A    between atoms: C_1  and  N_2
REMARK    2  A    between atoms: N_2  and  C_3
REMARK    3  A    between atoms: N_2  and  S_4
REMARK    4  A    between atoms: S_4  and  C_7
REMARK    5  A    between atoms: N_18  and  C_19
REMARK    6  A    between atoms: C_19  and  C_20
REMARK    7  A    between atoms: C_20  and  C_21
REMARK    8  A    between atoms: C_21  and  N_22
REMARK    9  A    between atoms: C_25  and  C_26
REMARK   10  A    between atoms: C_26  and  C_27
REMARK   11  A    between atoms: C_27  and  O_28
REMARK                            x       y       z     vdW  Elec       q    Type
REMARK                         _______ _______ _______ _____ _____    ______ ____
ROOT
ATOM      1  C   UNL     1      -5.416  -2.954 129.911  0.00  0.00    +0.000 A 
ATOM      2  C   UNL     1      -5.447  -1.985 128.917  0.00  0.00    +0.000 A 
ATOM      3  C   UNL     1      -6.443  -1.969 127.939  0.00  0.00    +0.000 A 
ATOM      4  C   UNL     1      -7.505  -2.881 128.046  0.00  0.00    +0.000 A 
ATOM      5  S   UNL     1      -8.835  -2.863 126.856  0.00  0.00    +0.000 S 
ATOM      6  C   UNL     1      -7.898  -2.373 125.414  0.00  0.00    +0.000 A 
ATOM      7  C   UNL     1      -8.313  -2.841 124.160  0.00  0.00    +0.000 A 
ATOM      8  C   UNL     1      -7.605  -2.509 123.006  0.00  0.00    +0.000 A 
ATOM      9  C   UNL     1      -6.459  -1.737 123.100  0.00  0.00    +0.000 A 
ATOM     10  C   UNL     1      -6.010  -1.333 124.355  0.00  0.00    +0.000 A 
ATOM     11  C   UNL     1      -6.744  -1.573 125.532  0.00  0.00    +0.000 A 
ATOM     12  N   UNL     1      -6.272  -1.151 126.794  0.00  0.00    +0.000 N 
ATOM     13  C   UNL     1      -7.533  -3.800 129.101  0.00  0.00    +0.000 A 
ATOM     14  C   UNL     1      -6.480  -3.853 130.020  0.00  0.00    +0.000 A 
ENDROOT
BRANCH   1  15
ATOM     15  S   UNL     1      -4.059  -3.102 131.049  0.00  0.00    +0.000 S 
ATOM     16  O   UNL     1      -2.838  -2.956 130.294  0.00  0.00    +0.000 OA
ATOM     17  O   UNL     1      -4.322  -4.305 131.822  0.00  0.00    +0.000 OA
BRANCH  15  19
ATOM     18  C   UNL     1      -5.126  -2.034 133.231  0.00  0.00    +0.000 C 
ATOM     19  N   UNL     1      -4.121  -1.767 132.151  0.00  0.00    +0.000 NA
ATOM     20  C   UNL     1      -2.842  -1.413 132.825  0.00  0.00    +0.000 C 
ENDBRANCH  15  19
ENDBRANCH   1  15
BRANCH  12  21
ATOM     21  C   UNL     1      -5.947   0.277 127.096  0.00  0.00    +0.000 C 
BRANCH  21  22
ATOM     22  C   UNL     1      -7.098   1.013 127.722  0.00  0.00    +0.000 C 
BRANCH  22  23
ATOM     23  C   UNL     1      -8.498   0.776 127.199  0.00  0.00    +0.000 C 
BRANCH  23  24
ATOM     24  N   UNL     1      -8.817   1.705 126.086  0.00  0.00    +0.000 NA
ATOM     25  C   UNL     1      -7.736   2.679 125.878  0.00  0.00    +0.000 C 
ATOM     26  C   UNL     1      -8.141   3.681 124.794  0.00  0.00    +0.000 C 
ATOM     27  C   UNL     1      -8.442   2.983 123.456  0.00  0.00    +0.000 C 
ATOM     28  C   UNL     1      -9.531   1.934 123.690  0.00  0.00    +0.000 C 
ATOM     29  C   UNL     1      -9.144   1.006 124.823  0.00  0.00    +0.000 C 
BRANCH  27  30
ATOM     30  C   UNL     1      -7.176   2.350 122.840  0.00  0.00    +0.000 C 
BRANCH  30  31
ATOM     31  C   UNL     1      -6.400   3.344 121.989  0.00  0.00    +0.000 C 
BRANCH  31  32
ATOM     32  O   UNL     1      -7.284   3.995 121.090  0.00  0.00    +0.000 OA
ATOM     33  H   UNL     1      -6.785   4.716 120.671  0.00  0.00    +0.000 HD
ENDBRANCH  31  32
ENDBRANCH  30  31
ENDBRANCH  27  30
ENDBRANCH  23  24
ENDBRANCH  22  23
ENDBRANCH  21  22
ENDBRANCH  12  21
TORSDOF 9
ENDMDL
