MODEL 1
REMARK VINA RESULT:      -5.9      0.000      0.000
REMARK  Name = Pipobroman
REMARK  4 active torsions:
REMARK  status: ('A' for Active; 'I' for Inactive)
REMARK    1  A    between atoms: C_2  and  C_3
REMARK    2  A    between atoms: C_3  and  C_4
REMARK    3  A    between atoms: C_12  and  C_14
REMARK    4  A    between atoms: C_14  and  C_15
REMARK                            x       y       z     vdW  Elec       q    Type
REMARK                         _______ _______ _______ _____ _____    ______ ____
ROOT
ATOM      1  C   UNL     1      -9.079  -2.659 123.745  0.00  0.00    +0.000 C 
ATOM      2  O   UNL     1      -9.973  -3.350 123.257  0.00  0.00    +0.000 OA
ATOM      3  N   UNL     1      -8.786  -1.382 123.291  0.00  0.00    +0.000 N 
ATOM      4  C   UNL     1      -9.777  -0.514 122.624  0.00  0.00    +0.000 C 
ATOM      5  C   UNL     1      -9.686   0.919 123.217  0.00  0.00    +0.000 C 
ATOM      6  N   UNL     1      -8.291   1.422 123.203  0.00  0.00    +0.000 N 
ATOM      7  C   UNL     1      -7.324   0.510 123.827  0.00  0.00    +0.000 C 
ATOM      8  C   UNL     1      -7.420  -0.878 123.192  0.00  0.00    +0.000 C 
ATOM      9  C   UNL     1      -7.986   2.648 122.627  0.00  0.00    +0.000 C 
ATOM     10  O   UNL     1      -8.855   3.363 122.129  0.00  0.00    +0.000 OA
ENDROOT
BRANCH   1  11
ATOM     11  C   UNL     1      -8.319  -3.089 125.001  0.00  0.00    +0.000 C 
BRANCH  11  13
ATOM     12 BR   UNL     1      -8.858  -3.778 127.713  0.00  0.00    +0.000 Br
ATOM     13  C   UNL     1      -8.884  -2.465 126.263  0.00  0.00    +0.000 C 
ENDBRANCH  11  13
ENDBRANCH   1  11
BRANCH   9  14
ATOM     14  C   UNL     1      -6.523   3.080 122.612  0.00  0.00    +0.000 C 
BRANCH  14  15
ATOM     15  C   UNL     1      -5.908   2.896 121.234  0.00  0.00    +0.000 C 
ATOM     16 BR   UNL     1      -5.343   4.622 120.518  0.00  0.00    +0.000 Br
ENDBRANCH  14  15
ENDBRANCH   9  14
TORSDOF 4
ENDMDL
MODEL 2
REMARK VINA RESULT:      -5.7      2.035      2.206
REMARK  Name = Pipobroman
REMARK  4 active torsions:
REMARK  status: ('A' for Active; 'I' for Inactive)
REMARK    1  A    between atoms: C_2  and  C_3
REMARK    2  A    between atoms: C_3  and  C_4
REMARK    3  A    between atoms: C_12  and  C_14
REMARK    4  A    between atoms: C_14  and  C_15
REMARK                            x       y       z     vdW  Elec       q    Type
REMARK                         _______ _______ _______ _____ _____    ______ ____
ROOT
ATOM      1  C   UNL     1      -9.034  -2.425 124.960  0.00  0.00    +0.000 C 
ATOM      2  O   UNL     1      -9.911  -2.880 125.693  0.00  0.00    +0.000 OA
ATOM      3  N   UNL     1      -8.956  -1.081 124.628  0.00  0.00    +0.000 N 
ATOM      4  C   UNL     1      -9.498  -0.005 125.483  0.00  0.00    +0.000 C 
ATOM      5  C   UNL     1      -8.454   1.142 125.586  0.00  0.00    +0.000 C 
ATOM      6  N   UNL     1      -7.987   1.570 124.245  0.00  0.00    +0.000 N 
ATOM      7  C   UNL     1      -7.506   0.468 123.404  0.00  0.00    +0.000 C 
ATOM      8  C   UNL     1      -8.573  -0.622 123.297  0.00  0.00    +0.000 C 
ATOM      9  C   UNL     1      -8.036   2.907 123.872  0.00  0.00    +0.000 C 
ATOM     10  O   UNL     1      -8.447   3.778 124.639  0.00  0.00    +0.000 OA
ENDROOT
BRANCH   1  11
ATOM     11  C   UNL     1      -7.858  -3.279 124.481  0.00  0.00    +0.000 C 
BRANCH  11  13
ATOM     12 BR   UNL     1      -5.099  -3.208 123.774  0.00  0.00    +0.000 Br
ATOM     13  C   UNL     1      -6.532  -2.808 125.044  0.00  0.00    +0.000 C 
ENDBRANCH  11  13
ENDBRANCH   1  11
BRANCH   9  14
ATOM     14  C   UNL     1      -7.578   3.267 122.462  0.00  0.00    +0.000 C 
BRANCH  14  15
ATOM     15  C   UNL     1      -6.149   3.785 122.462  0.00  0.00    +0.000 C 
ATOM     16 BR   UNL     1      -5.547   4.089 120.631  0.00  0.00    +0.000 Br
ENDBRANCH  14  15
ENDBRANCH   9  14
TORSDOF 4
ENDMDL
MODEL 3
REMARK VINA RESULT:      -5.6      1.429      6.213
REMARK  Name = Pipobroman
REMARK  4 active torsions:
REMARK  status: ('A' for Active; 'I' for Inactive)
REMARK    1  A    between atoms: C_2  and  C_3
REMARK    2  A    between atoms: C_3  and  C_4
REMARK    3  A    between atoms: C_12  and  C_14
REMARK    4  A    between atoms: C_14  and  C_15
REMARK                            x       y       z     vdW  Elec       q    Type
REMARK                         _______ _______ _______ _____ _____    ______ ____
ROOT
ATOM      1  C   UNL     1      -7.853   3.372 124.650  0.00  0.00    +0.000 C 
ATOM      2  O   UNL     1      -8.654   4.205 125.070  0.00  0.00    +0.000 OA
ATOM      3  N   UNL     1      -8.169   2.028 124.515  0.00  0.00    +0.000 N 
ATOM      4  C   UNL     1      -9.548   1.540 124.311  0.00  0.00    +0.000 C 
ATOM      5  C   UNL     1      -9.552   0.472 123.182  0.00  0.00    +0.000 C 
ATOM      6  N   UNL     1      -8.537  -0.579 123.429  0.00  0.00    +0.000 N 
ATOM      7  C   UNL     1      -7.189  -0.056 123.681  0.00  0.00    +0.000 C 
ATOM      8  C   UNL     1      -7.220   0.963 124.821  0.00  0.00    +0.000 C 
ATOM      9  C   UNL     1      -8.891  -1.922 123.422  0.00  0.00    +0.000 C 
ATOM     10  O   UNL     1     -10.045  -2.285 123.194  0.00  0.00    +0.000 OA
ENDROOT
BRANCH   1  11
ATOM     11  C   UNL     1      -6.486   3.773 124.090  0.00  0.00    +0.000 C 
BRANCH  11  13
ATOM     12 BR   UNL     1      -4.862   4.545 121.880  0.00  0.00    +0.000 Br
ATOM     13  C   UNL     1      -6.383   3.544 122.594  0.00  0.00    +0.000 C 
ENDBRANCH  11  13
ENDBRANCH   1  11
BRANCH   9  14
ATOM     14  C   UNL     1      -7.801  -2.945 123.726  0.00  0.00    +0.000 C 
BRANCH  14  15
ATOM     15  C   UNL     1      -8.185  -3.826 124.904  0.00  0.00    +0.000 C 
ATOM     16 BR   UNL     1      -8.287  -2.755 126.533  0.00  0.00    +0.000 Br
ENDBRANCH  14  15
ENDBRANCH   9  14
TORSDOF 4
ENDMDL
MODEL 4
REMARK VINA RESULT:      -5.5      1.187      6.669
REMARK  Name = Pipobroman
REMARK  4 active torsions:
REMARK  status: ('A' for Active; 'I' for Inactive)
REMARK    1  A    between atoms: C_2  and  C_3
REMARK    2  A    between atoms: C_3  and  C_4
REMARK    3  A    between atoms: C_12  and  C_14
REMARK    4  A    between atoms: C_14  and  C_15
REMARK                            x       y       z     vdW  Elec       q    Type
REMARK                         _______ _______ _______ _____ _____    ______ ____
ROOT
ATOM      1  C   UNL     1      -8.058   2.904 122.523  0.00  0.00    +0.000 C 
ATOM      2  O   UNL     1      -8.864   3.467 121.783  0.00  0.00    +0.000 OA
ATOM      3  N   UNL     1      -8.403   1.828 123.327  0.00  0.00    +0.000 N 
ATOM      4  C   UNL     1      -9.517   0.909 123.014  0.00  0.00    +0.000 C 
ATOM      5  C   UNL     1      -9.049  -0.557 123.227  0.00  0.00    +0.000 C 
ATOM      6  N   UNL     1      -8.433  -0.738 124.564  0.00  0.00    +0.000 N 
ATOM      7  C   UNL     1      -7.366   0.225 124.863  0.00  0.00    +0.000 C 
ATOM      8  C   UNL     1      -7.875   1.655 124.676  0.00  0.00    +0.000 C 
ATOM      9  C   UNL     1      -8.876  -1.739 125.417  0.00  0.00    +0.000 C 
ATOM     10  O   UNL     1      -9.773  -2.517 125.091  0.00  0.00    +0.000 OA
ENDROOT
BRANCH   1  11
ATOM     11  C   UNL     1      -6.566   3.243 122.500  0.00  0.00    +0.000 C 
BRANCH  11  13
ATOM     12 BR   UNL     1      -5.481   4.716 120.317  0.00  0.00    +0.000 Br
ATOM     13  C   UNL     1      -5.938   3.002 121.141  0.00  0.00    +0.000 C 
ENDBRANCH  11  13
ENDBRANCH   1  11
BRANCH   9  14
ATOM     14  C   UNL     1      -8.224  -1.839 126.793  0.00  0.00    +0.000 C 
BRANCH  14  15
ATOM     15  C   UNL     1      -8.535  -3.172 127.455  0.00  0.00    +0.000 C 
ATOM     16 BR   UNL     1      -8.037  -3.114 129.341  0.00  0.00    +0.000 Br
ENDBRANCH  14  15
ENDBRANCH   9  14
TORSDOF 4
ENDMDL
MODEL 5
REMARK VINA RESULT:      -5.4      9.939     11.570
REMARK  Name = Pipobroman
REMARK  4 active torsions:
REMARK  status: ('A' for Active; 'I' for Inactive)
REMARK    1  A    between atoms: C_2  and  C_3
REMARK    2  A    between atoms: C_3  and  C_4
REMARK    3  A    between atoms: C_12  and  C_14
REMARK    4  A    between atoms: C_14  and  C_15
REMARK                            x       y       z     vdW  Elec       q    Type
REMARK                         _______ _______ _______ _____ _____    ______ ____
ROOT
ATOM      1  C   UNL     1     -11.688   6.374 129.570  0.00  0.00    +0.000 C 
ATOM      2  O   UNL     1     -12.572   5.949 128.828  0.00  0.00    +0.000 OA
ATOM      3  N   UNL     1     -11.129   5.611 130.584  0.00  0.00    +0.000 N 
ATOM      4  C   UNL     1     -11.089   4.135 130.556  0.00  0.00    +0.000 C 
ATOM      5  C   UNL     1      -9.674   3.652 130.980  0.00  0.00    +0.000 C 
ATOM      6  N   UNL     1      -9.251   4.274 132.257  0.00  0.00    +0.000 N 
ATOM      7  C   UNL     1      -9.354   5.738 132.268  0.00  0.00    +0.000 C 
ATOM      8  C   UNL     1     -10.769   6.173 131.882  0.00  0.00    +0.000 C 
ATOM      9  C   UNL     1      -8.816   3.490 133.317  0.00  0.00    +0.000 C 
ATOM     10  O   UNL     1      -8.749   2.264 133.229  0.00  0.00    +0.000 OA
ENDROOT
BRANCH   1  11
ATOM     11  C   UNL     1     -11.015   7.728 129.334  0.00  0.00    +0.000 C 
BRANCH  11  13
ATOM     12 BR   UNL     1     -13.099   9.672 129.326  0.00  0.00    +0.000 Br
ATOM     13  C   UNL     1     -11.785   8.595 128.356  0.00  0.00    +0.000 C 
ENDBRANCH  11  13
ENDBRANCH   1  11
BRANCH   9  14
ATOM     14  C   UNL     1      -8.437   4.197 134.615  0.00  0.00    +0.000 C 
BRANCH  14  15
ATOM     15  C   UNL     1      -6.931   4.379 134.722  0.00  0.00    +0.000 C 
ATOM     16 BR   UNL     1      -6.503   5.524 136.245  0.00  0.00    +0.000 Br
ENDBRANCH  14  15
ENDBRANCH   9  14
TORSDOF 4
ENDMDL
MODEL 6
REMARK VINA RESULT:      -5.3      1.908      2.012
REMARK  Name = Pipobroman
REMARK  4 active torsions:
REMARK  status: ('A' for Active; 'I' for Inactive)
REMARK    1  A    between atoms: C_2  and  C_3
REMARK    2  A    between atoms: C_3  and  C_4
REMARK    3  A    between atoms: C_12  and  C_14
REMARK    4  A    between atoms: C_14  and  C_15
REMARK                            x       y       z     vdW  Elec       q    Type
REMARK                         _______ _______ _______ _____ _____    ______ ____
ROOT
ATOM      1  C   UNL     1      -8.403  -1.062 124.918  0.00  0.00    +0.000 C 
ATOM      2  O   UNL     1      -9.332  -1.864 125.002  0.00  0.00    +0.000 OA
ATOM      3  N   UNL     1      -8.350  -0.072 123.948  0.00  0.00    +0.000 N 
ATOM      4  C   UNL     1      -9.554   0.492 123.303  0.00  0.00    +0.000 C 
ATOM      5  C   UNL     1      -9.430   2.040 123.251  0.00  0.00    +0.000 C 
ATOM      6  N   UNL     1      -8.137   2.459 122.659  0.00  0.00    +0.000 N 
ATOM      7  C   UNL     1      -6.966   1.838 123.289  0.00  0.00    +0.000 C 
ATOM      8  C   UNL     1      -7.108   0.316 123.288  0.00  0.00    +0.000 C 
ATOM      9  C   UNL     1      -8.102   3.352 121.597  0.00  0.00    +0.000 C 
ATOM     10  O   UNL     1      -9.130   3.839 121.126  0.00  0.00    +0.000 OA
ENDROOT
BRANCH   1  11
ATOM     11  C   UNL     1      -7.302  -0.986 125.979  0.00  0.00    +0.000 C 
BRANCH  11  13
ATOM     12 BR   UNL     1      -6.111  -3.059 124.429  0.00  0.00    +0.000 Br
ATOM     13  C   UNL     1      -6.591  -2.312 126.172  0.00  0.00    +0.000 C 
ENDBRANCH  11  13
ENDBRANCH   1  11
BRANCH   9  14
ATOM     14  C   UNL     1      -6.737   3.705 121.011  0.00  0.00    +0.000 C 
BRANCH  14  15
ATOM     15  C   UNL     1      -6.852   4.109 119.551  0.00  0.00    +0.000 C 
ATOM     16 BR   UNL     1      -5.616   5.568 119.161  0.00  0.00    +0.000 Br
ENDBRANCH  14  15
ENDBRANCH   9  14
TORSDOF 4
ENDMDL
MODEL 7
REMARK VINA RESULT:      -5.2      3.242      3.617
REMARK  Name = Pipobroman
REMARK  4 active torsions:
REMARK  status: ('A' for Active; 'I' for Inactive)
REMARK    1  A    between atoms: C_2  and  C_3
REMARK    2  A    between atoms: C_3  and  C_4
REMARK    3  A    between atoms: C_12  and  C_14
REMARK    4  A    between atoms: C_14  and  C_15
REMARK                            x       y       z     vdW  Elec       q    Type
REMARK                         _______ _______ _______ _____ _____    ______ ____
ROOT
ATOM      1  C   UNL     1      -9.149  -0.998 123.021  0.00  0.00    +0.000 C 
ATOM      2  O   UNL     1     -10.232  -0.703 122.518  0.00  0.00    +0.000 OA
ATOM      3  N   UNL     1      -8.384  -0.093 123.742  0.00  0.00    +0.000 N 
ATOM      4  C   UNL     1      -8.961   1.070 124.449  0.00  0.00    +0.000 C 
ATOM      5  C   UNL     1      -8.338   1.168 125.868  0.00  0.00    +0.000 C 
ATOM      6  N   UNL     1      -6.857   1.130 125.812  0.00  0.00    +0.000 N 
ATOM      7  C   UNL     1      -6.319  -0.008 125.057  0.00  0.00    +0.000 C 
ATOM      8  C   UNL     1      -6.928  -0.050 123.655  0.00  0.00    +0.000 C 
ATOM      9  C   UNL     1      -6.100   2.118 126.427  0.00  0.00    +0.000 C 
ATOM     10  O   UNL     1      -6.624   3.040 127.052  0.00  0.00    +0.000 OA
ENDROOT
BRANCH   1  11
ATOM     11  C   UNL     1      -8.626  -2.436 123.031  0.00  0.00    +0.000 C 
BRANCH  11  13
ATOM     12 BR   UNL     1      -9.252  -2.921 125.768  0.00  0.00    +0.000 Br
ATOM     13  C   UNL     1      -9.484  -3.359 123.876  0.00  0.00    +0.000 C 
ENDBRANCH  11  13
ENDBRANCH   1  11
BRANCH   9  14
ATOM     14  C   UNL     1      -4.582   2.037 126.291  0.00  0.00    +0.000 C 
BRANCH  14  15
ATOM     15  C   UNL     1      -3.919   3.330 126.738  0.00  0.00    +0.000 C 
ATOM     16 BR   UNL     1      -1.977   3.135 126.695  0.00  0.00    +0.000 Br
ENDBRANCH  14  15
ENDBRANCH   9  14
TORSDOF 4
ENDMDL
MODEL 8
REMARK VINA RESULT:      -5.2      3.221      5.953
REMARK  Name = Pipobroman
REMARK  4 active torsions:
REMARK  status: ('A' for Active; 'I' for Inactive)
REMARK    1  A    between atoms: C_2  and  C_3
REMARK    2  A    between atoms: C_3  and  C_4
REMARK    3  A    between atoms: C_12  and  C_14
REMARK    4  A    between atoms: C_14  and  C_15
REMARK                            x       y       z     vdW  Elec       q    Type
REMARK                         _______ _______ _______ _____ _____    ______ ____
ROOT
ATOM      1  C   UNL     1      -6.329   2.589 126.260  0.00  0.00    +0.000 C 
ATOM      2  O   UNL     1      -6.805   3.503 126.931  0.00  0.00    +0.000 OA
ATOM      3  N   UNL     1      -7.113   1.661 125.593  0.00  0.00    +0.000 N 
ATOM      4  C   UNL     1      -8.492   1.942 125.143  0.00  0.00    +0.000 C 
ATOM      5  C   UNL     1      -8.672   1.429 123.688  0.00  0.00    +0.000 C 
ATOM      6  N   UNL     1      -8.236   0.018 123.555  0.00  0.00    +0.000 N 
ATOM      7  C   UNL     1      -6.882  -0.237 124.060  0.00  0.00    +0.000 C 
ATOM      8  C   UNL     1      -6.756   0.248 125.505  0.00  0.00    +0.000 C 
ATOM      9  C   UNL     1      -9.083  -0.934 123.003  0.00  0.00    +0.000 C 
ATOM     10  O   UNL     1     -10.205  -0.642 122.592  0.00  0.00    +0.000 OA
ENDROOT
BRANCH   1  11
ATOM     11  C   UNL     1      -4.829   2.493 125.973  0.00  0.00    +0.000 C 
BRANCH  11  13
ATOM     12 BR   UNL     1      -2.181   3.221 126.734  0.00  0.00    +0.000 Br
ATOM     13  C   UNL     1      -3.987   2.652 127.225  0.00  0.00    +0.000 C 
ENDBRANCH  11  13
ENDBRANCH   1  11
BRANCH   9  14
ATOM     14  C   UNL     1      -8.582  -2.375 122.937  0.00  0.00    +0.000 C 
BRANCH  14  15
ATOM     15  C   UNL     1      -9.459  -3.301 123.765  0.00  0.00    +0.000 C 
ATOM     16 BR   UNL     1      -9.217  -2.929 125.666  0.00  0.00    +0.000 Br
ENDBRANCH  14  15
ENDBRANCH   9  14
TORSDOF 4
ENDMDL
MODEL 9
REMARK VINA RESULT:      -4.9      9.101     11.049
REMARK  Name = Pipobroman
REMARK  4 active torsions:
REMARK  status: ('A' for Active; 'I' for Inactive)
REMARK    1  A    between atoms: C_2  and  C_3
REMARK    2  A    between atoms: C_3  and  C_4
REMARK    3  A    between atoms: C_12  and  C_14
REMARK    4  A    between atoms: C_14  and  C_15
REMARK                            x       y       z     vdW  Elec       q    Type
REMARK                         _______ _______ _______ _____ _____    ______ ____
ROOT
ATOM      1  C   UNL     1     -10.280   7.340 129.057  0.00  0.00    +0.000 C 
ATOM      2  O   UNL     1      -9.675   8.374 128.775  0.00  0.00    +0.000 OA
ATOM      3  N   UNL     1      -9.800   6.417 129.974  0.00  0.00    +0.000 N 
ATOM      4  C   UNL     1      -8.884   6.774 131.076  0.00  0.00    +0.000 C 
ATOM      5  C   UNL     1      -9.374   6.102 132.389  0.00  0.00    +0.000 C 
ATOM      6  N   UNL     1      -9.604   4.650 132.199  0.00  0.00    +0.000 N 
ATOM      7  C   UNL     1     -10.475   4.329 131.062  0.00  0.00    +0.000 C 
ATOM      8  C   UNL     1      -9.941   4.977 129.785  0.00  0.00    +0.000 C 
ATOM      9  C   UNL     1      -9.010   3.723 133.046  0.00  0.00    +0.000 C 
ATOM     10  O   UNL     1      -8.296   4.070 133.986  0.00  0.00    +0.000 OA
ENDROOT
BRANCH   1  11
ATOM     11  C   UNL     1     -11.692   7.062 128.537  0.00  0.00    +0.000 C 
BRANCH  11  13
ATOM     12 BR   UNL     1     -12.871   7.477 131.098  0.00  0.00    +0.000 Br
ATOM     13  C   UNL     1     -12.737   7.938 129.201  0.00  0.00    +0.000 C 
ENDBRANCH  11  13
ENDBRANCH   1  11
BRANCH   9  14
ATOM     14  C   UNL     1      -9.258   2.244 132.764  0.00  0.00    +0.000 C 
BRANCH  14  15
ATOM     15  C   UNL     1      -8.047   1.597 132.111  0.00  0.00    +0.000 C 
ATOM     16 BR   UNL     1      -8.436  -0.265 131.675  0.00  0.00    +0.000 Br
ENDBRANCH  14  15
ENDBRANCH   9  14
TORSDOF 4
ENDMDL
