MODEL 1
REMARK VINA RESULT:      -7.0      0.000      0.000
REMARK  Name = Pipradrol
REMARK  4 active torsions:
REMARK  status: ('A' for Active; 'I' for Inactive)
REMARK    1  A    between atoms: C_7  and  C_8
REMARK    2  A    between atoms: C_8  and  O_9
REMARK    3  A    between atoms: C_8  and  C_10
REMARK    4  A    between atoms: C_8  and  C_16
REMARK                            x       y       z     vdW  Elec       q    Type
REMARK                         _______ _______ _______ _____ _____    ______ ____
ROOT
ATOM      1  C   UNL     1      -7.518   3.043 123.225  0.00  0.00    +0.000 C 
ENDROOT
BRANCH   1   8
ATOM      2  H   UNL     1      -6.585   5.664 123.571  0.00  0.00    +0.000 HD
ATOM      3  N   UNL     1      -6.265   5.071 124.339  0.00  0.00    +0.000 NA
ATOM      4  C   UNL     1      -7.139   5.231 125.497  0.00  0.00    +0.000 C 
ATOM      5  C   UNL     1      -6.779   4.296 126.656  0.00  0.00    +0.000 C 
ATOM      6  C   UNL     1      -6.464   2.864 126.245  0.00  0.00    +0.000 C 
ATOM      7  C   UNL     1      -5.538   2.877 125.035  0.00  0.00    +0.000 C 
ATOM      8  C   UNL     1      -6.168   3.659 123.870  0.00  0.00    +0.000 C 
ENDBRANCH   1   8
BRANCH   1   9
ATOM      9  C   UNL     1      -7.543   3.430 121.730  0.00  0.00    +0.000 A 
ATOM     10  C   UNL     1      -6.385   3.778 121.015  0.00  0.00    +0.000 A 
ATOM     11  C   UNL     1      -6.474   4.313 119.733  0.00  0.00    +0.000 A 
ATOM     12  C   UNL     1      -7.715   4.458 119.120  0.00  0.00    +0.000 A 
ATOM     13  C   UNL     1      -8.868   4.038 119.774  0.00  0.00    +0.000 A 
ATOM     14  C   UNL     1      -8.780   3.499 121.053  0.00  0.00    +0.000 A 
ENDBRANCH   1   9
BRANCH   1  15
ATOM     15  C   UNL     1      -7.666   1.536 123.489  0.00  0.00    +0.000 A 
ATOM     16  C   UNL     1      -6.803   0.556 122.979  0.00  0.00    +0.000 A 
ATOM     17  C   UNL     1      -7.035  -0.796 123.218  0.00  0.00    +0.000 A 
ATOM     18  C   UNL     1      -8.091  -1.208 124.026  0.00  0.00    +0.000 A 
ATOM     19  C   UNL     1      -8.979  -0.265 124.520  0.00  0.00    +0.000 A 
ATOM     20  C   UNL     1      -8.795   1.061 124.187  0.00  0.00    +0.000 A 
ENDBRANCH   1  15
BRANCH   1  21
ATOM     21  O   UNL     1      -8.709   3.522 123.872  0.00  0.00    +0.000 OA
ATOM     22  H   UNL     1      -9.482   3.159 123.435  0.00  0.00    +0.000 HD
ENDBRANCH   1  21
TORSDOF 4
ENDMDL
MODEL 2
REMARK VINA RESULT:      -7.0      4.559      7.613
REMARK  Name = Pipradrol
REMARK  4 active torsions:
REMARK  status: ('A' for Active; 'I' for Inactive)
REMARK    1  A    between atoms: C_7  and  C_8
REMARK    2  A    between atoms: C_8  and  O_9
REMARK    3  A    between atoms: C_8  and  C_10
REMARK    4  A    between atoms: C_8  and  C_16
REMARK                            x       y       z     vdW  Elec       q    Type
REMARK                         _______ _______ _______ _____ _____    ______ ____
ROOT
ATOM      1  C   UNL     1      -7.290  -2.129 125.633  0.00  0.00    +0.000 C 
ENDROOT
BRANCH   1   8
ATOM      2  H   UNL     1      -9.690  -0.797 126.203  0.00  0.00    +0.000 HD
ATOM      3  N   UNL     1      -9.684  -1.113 125.232  0.00  0.00    +0.000 NA
ATOM      4  C   UNL     1      -9.288  -0.019 124.350  0.00  0.00    +0.000 C 
ATOM      5  C   UNL     1      -9.159  -0.445 122.884  0.00  0.00    +0.000 C 
ATOM      6  C   UNL     1      -8.447  -1.774 122.667  0.00  0.00    +0.000 C 
ATOM      7  C   UNL     1      -8.982  -2.802 123.656  0.00  0.00    +0.000 C 
ATOM      8  C   UNL     1      -8.807  -2.313 125.104  0.00  0.00    +0.000 C 
ENDBRANCH   1   8
BRANCH   1   9
ATOM      9  C   UNL     1      -7.274  -2.463 127.141  0.00  0.00    +0.000 A 
ATOM     10  C   UNL     1      -6.156  -2.228 127.960  0.00  0.00    +0.000 A 
ATOM     11  C   UNL     1      -6.110  -2.726 129.259  0.00  0.00    +0.000 A 
ATOM     12  C   UNL     1      -7.199  -3.418 129.782  0.00  0.00    +0.000 A 
ATOM     13  C   UNL     1      -8.350  -3.585 129.021  0.00  0.00    +0.000 A 
ATOM     14  C   UNL     1      -8.400  -3.084 127.724  0.00  0.00    +0.000 A 
ENDBRANCH   1   9
BRANCH   1  15
ATOM     15  C   UNL     1      -6.273  -2.925 124.800  0.00  0.00    +0.000 A 
ATOM     16  C   UNL     1      -6.258  -4.323 124.694  0.00  0.00    +0.000 A 
ATOM     17  C   UNL     1      -5.269  -4.975 123.962  0.00  0.00    +0.000 A 
ATOM     18  C   UNL     1      -4.307  -4.255 123.260  0.00  0.00    +0.000 A 
ATOM     19  C   UNL     1      -4.277  -2.874 123.369  0.00  0.00    +0.000 A 
ATOM     20  C   UNL     1      -5.200  -2.249 124.183  0.00  0.00    +0.000 A 
ENDBRANCH   1  15
BRANCH   1  21
ATOM     21  O   UNL     1      -6.788  -0.798 125.424  0.00  0.00    +0.000 OA
ATOM     22  H   UNL     1      -7.156  -0.207 126.084  0.00  0.00    +0.000 HD
ENDBRANCH   1  21
TORSDOF 4
ENDMDL
MODEL 3
REMARK VINA RESULT:      -6.9      3.325      5.759
REMARK  Name = Pipradrol
REMARK  4 active torsions:
REMARK  status: ('A' for Active; 'I' for Inactive)
REMARK    1  A    between atoms: C_7  and  C_8
REMARK    2  A    between atoms: C_8  and  O_9
REMARK    3  A    between atoms: C_8  and  C_10
REMARK    4  A    between atoms: C_8  and  C_16
REMARK                            x       y       z     vdW  Elec       q    Type
REMARK                         _______ _______ _______ _____ _____    ______ ____
ROOT
ATOM      1  C   UNL     1      -8.096  -1.181 125.333  0.00  0.00    +0.000 C 
ENDROOT
BRANCH   1   8
ATOM      2  H   UNL     1      -6.277   0.683 124.297  0.00  0.00    +0.000 HD
ATOM      3  N   UNL     1      -7.164   1.139 124.514  0.00  0.00    +0.000 NA
ATOM      4  C   UNL     1      -7.976   1.262 123.308  0.00  0.00    +0.000 C 
ATOM      5  C   UNL     1      -9.366   1.848 123.574  0.00  0.00    +0.000 C 
ATOM      6  C   UNL     1     -10.070   1.286 124.803  0.00  0.00    +0.000 C 
ATOM      7  C   UNL     1      -9.089   1.234 125.967  0.00  0.00    +0.000 C 
ATOM      8  C   UNL     1      -7.852   0.394 125.608  0.00  0.00    +0.000 C 
ENDBRANCH   1   8
BRANCH   1   9
ATOM      9  C   UNL     1      -6.952  -1.682 124.425  0.00  0.00    +0.000 A 
ATOM     10  C   UNL     1      -7.084  -1.799 123.031  0.00  0.00    +0.000 A 
ATOM     11  C   UNL     1      -6.106  -2.442 122.275  0.00  0.00    +0.000 A 
ATOM     12  C   UNL     1      -4.956  -2.929 122.889  0.00  0.00    +0.000 A 
ATOM     13  C   UNL     1      -4.763  -2.745 124.253  0.00  0.00    +0.000 A 
ATOM     14  C   UNL     1      -5.736  -2.100 125.009  0.00  0.00    +0.000 A 
ENDBRANCH   1   9
BRANCH   1  15
ATOM     15  C   UNL     1      -8.270  -1.987 126.631  0.00  0.00    +0.000 A 
ATOM     16  C   UNL     1      -7.760  -1.599 127.878  0.00  0.00    +0.000 A 
ATOM     17  C   UNL     1      -7.913  -2.412 128.998  0.00  0.00    +0.000 A 
ATOM     18  C   UNL     1      -8.634  -3.600 128.926  0.00  0.00    +0.000 A 
ATOM     19  C   UNL     1      -9.125  -4.025 127.702  0.00  0.00    +0.000 A 
ATOM     20  C   UNL     1      -8.874  -3.260 126.581  0.00  0.00    +0.000 A 
ENDBRANCH   1  15
BRANCH   1  21
ATOM     21  O   UNL     1      -9.364  -1.445 124.710  0.00  0.00    +0.000 OA
ATOM     22  H   UNL     1     -10.038  -0.886 125.100  0.00  0.00    +0.000 HD
ENDBRANCH   1  21
TORSDOF 4
ENDMDL
MODEL 4
REMARK VINA RESULT:      -6.9      1.607      4.538
REMARK  Name = Pipradrol
REMARK  4 active torsions:
REMARK  status: ('A' for Active; 'I' for Inactive)
REMARK    1  A    between atoms: C_7  and  C_8
REMARK    2  A    between atoms: C_8  and  O_9
REMARK    3  A    between atoms: C_8  and  C_10
REMARK    4  A    between atoms: C_8  and  C_16
REMARK                            x       y       z     vdW  Elec       q    Type
REMARK                         _______ _______ _______ _____ _____    ______ ____
ROOT
ATOM      1  C   UNL     1      -7.534   2.134 123.692  0.00  0.00    +0.000 C 
ENDROOT
BRANCH   1   8
ATOM      2  H   UNL     1      -9.186   1.010 125.659  0.00  0.00    +0.000 HD
ATOM      3  N   UNL     1      -8.891   1.946 125.939  0.00  0.00    +0.000 NA
ATOM      4  C   UNL     1      -7.754   1.866 126.849  0.00  0.00    +0.000 C 
ATOM      5  C   UNL     1      -7.192   3.238 127.235  0.00  0.00    +0.000 C 
ATOM      6  C   UNL     1      -7.057   4.218 126.077  0.00  0.00    +0.000 C 
ATOM      7  C   UNL     1      -8.326   4.186 125.236  0.00  0.00    +0.000 C 
ATOM      8  C   UNL     1      -8.609   2.764 124.723  0.00  0.00    +0.000 C 
ENDBRANCH   1   8
BRANCH   1   9
ATOM      9  C   UNL     1      -7.832   0.623 123.568  0.00  0.00    +0.000 A 
ATOM     10  C   UNL     1      -6.859  -0.365 123.791  0.00  0.00    +0.000 A 
ATOM     11  C   UNL     1      -7.111  -1.697 123.474  0.00  0.00    +0.000 A 
ATOM     12  C   UNL     1      -8.357  -2.075 122.980  0.00  0.00    +0.000 A 
ATOM     13  C   UNL     1      -9.365  -1.128 122.835  0.00  0.00    +0.000 A 
ATOM     14  C   UNL     1      -9.116   0.202 123.156  0.00  0.00    +0.000 A 
ENDBRANCH   1   9
BRANCH   1  15
ATOM     15  C   UNL     1      -7.494   2.881 122.350  0.00  0.00    +0.000 A 
ATOM     16  C   UNL     1      -8.631   3.279 121.631  0.00  0.00    +0.000 A 
ATOM     17  C   UNL     1      -8.512   3.905 120.393  0.00  0.00    +0.000 A 
ATOM     18  C   UNL     1      -7.261   4.214 119.866  0.00  0.00    +0.000 A 
ATOM     19  C   UNL     1      -6.119   3.807 120.537  0.00  0.00    +0.000 A 
ATOM     20  C   UNL     1      -6.255   3.094 121.711  0.00  0.00    +0.000 A 
ENDBRANCH   1  15
BRANCH   1  21
ATOM     21  O   UNL     1      -6.176   2.327 124.121  0.00  0.00    +0.000 OA
ATOM     22  H   UNL     1      -5.586   1.816 123.564  0.00  0.00    +0.000 HD
ENDBRANCH   1  21
TORSDOF 4
ENDMDL
MODEL 5
REMARK VINA RESULT:      -6.8      3.684      6.198
REMARK  Name = Pipradrol
REMARK  4 active torsions:
REMARK  status: ('A' for Active; 'I' for Inactive)
REMARK    1  A    between atoms: C_7  and  C_8
REMARK    2  A    between atoms: C_8  and  O_9
REMARK    3  A    between atoms: C_8  and  C_10
REMARK    4  A    between atoms: C_8  and  C_16
REMARK                            x       y       z     vdW  Elec       q    Type
REMARK                         _______ _______ _______ _____ _____    ______ ____
ROOT
ATOM      1  C   UNL     1      -7.324  -1.526 125.634  0.00  0.00    +0.000 C 
ENDROOT
BRANCH   1   8
ATOM      2  H   UNL     1      -8.209  -1.084 123.011  0.00  0.00    +0.000 HD
ATOM      3  N   UNL     1      -7.627  -1.922 123.050  0.00  0.00    +0.000 NA
ATOM      4  C   UNL     1      -6.261  -1.607 122.642  0.00  0.00    +0.000 C 
ATOM      5  C   UNL     1      -5.304  -2.796 122.771  0.00  0.00    +0.000 C 
ATOM      6  C   UNL     1      -5.452  -3.595 124.059  0.00  0.00    +0.000 C 
ATOM      7  C   UNL     1      -6.930  -3.845 124.333  0.00  0.00    +0.000 C 
ATOM      8  C   UNL     1      -7.705  -2.519 124.414  0.00  0.00    +0.000 C 
ENDBRANCH   1   8
BRANCH   1   9
ATOM      9  C   UNL     1      -7.994  -0.162 125.356  0.00  0.00    +0.000 A 
ATOM     10  C   UNL     1      -9.389   0.004 125.307  0.00  0.00    +0.000 A 
ATOM     11  C   UNL     1      -9.948   1.197 124.857  0.00  0.00    +0.000 A 
ATOM     12  C   UNL     1      -9.126   2.263 124.500  0.00  0.00    +0.000 A 
ATOM     13  C   UNL     1      -7.746   2.152 124.625  0.00  0.00    +0.000 A 
ATOM     14  C   UNL     1      -7.186   0.962 125.080  0.00  0.00    +0.000 A 
ENDBRANCH   1   9
BRANCH   1  15
ATOM     15  C   UNL     1      -7.659  -2.125 127.009  0.00  0.00    +0.000 A 
ATOM     16  C   UNL     1      -8.508  -3.222 127.210  0.00  0.00    +0.000 A 
ATOM     17  C   UNL     1      -8.805  -3.672 128.493  0.00  0.00    +0.000 A 
ATOM     18  C   UNL     1      -8.216  -3.087 129.610  0.00  0.00    +0.000 A 
ATOM     19  C   UNL     1      -7.396  -1.981 129.447  0.00  0.00    +0.000 A 
ATOM     20  C   UNL     1      -7.195  -1.483 128.176  0.00  0.00    +0.000 A 
ENDBRANCH   1  15
BRANCH   1  21
ATOM     21  O   UNL     1      -5.906  -1.350 125.782  0.00  0.00    +0.000 OA
ATOM     22  H   UNL     1      -5.445  -1.875 125.125  0.00  0.00    +0.000 HD
ENDBRANCH   1  21
TORSDOF 4
ENDMDL
MODEL 6
REMARK VINA RESULT:      -6.5      4.198      6.729
REMARK  Name = Pipradrol
REMARK  4 active torsions:
REMARK  status: ('A' for Active; 'I' for Inactive)
REMARK    1  A    between atoms: C_7  and  C_8
REMARK    2  A    between atoms: C_8  and  O_9
REMARK    3  A    between atoms: C_8  and  C_10
REMARK    4  A    between atoms: C_8  and  C_16
REMARK                            x       y       z     vdW  Elec       q    Type
REMARK                         _______ _______ _______ _____ _____    ______ ____
ROOT
ATOM      1  C   UNL     1      -7.393  -1.495 126.371  0.00  0.00    +0.000 C 
ENDROOT
BRANCH   1   8
ATOM      2  H   UNL     1      -9.216   0.135 124.999  0.00  0.00    +0.000 HD
ATOM      3  N   UNL     1      -9.400  -0.849 124.797  0.00  0.00    +0.000 NA
ATOM      4  C   UNL     1      -8.785  -1.227 123.529  0.00  0.00    +0.000 C 
ATOM      5  C   UNL     1      -8.935  -2.718 123.207  0.00  0.00    +0.000 C 
ATOM      6  C   UNL     1      -8.679  -3.652 124.382  0.00  0.00    +0.000 C 
ATOM      7  C   UNL     1      -9.396  -3.120 125.617  0.00  0.00    +0.000 C 
ATOM      8  C   UNL     1      -8.940  -1.687 125.942  0.00  0.00    +0.000 C 
ENDBRANCH   1   8
BRANCH   1   9
ATOM      9  C   UNL     1      -7.099   0.022 126.400  0.00  0.00    +0.000 A 
ATOM     10  C   UNL     1      -6.180   0.635 125.532  0.00  0.00    +0.000 A 
ATOM     11  C   UNL     1      -5.796   1.960 125.724  0.00  0.00    +0.000 A 
ATOM     12  C   UNL     1      -6.362   2.711 126.750  0.00  0.00    +0.000 A 
ATOM     13  C   UNL     1      -7.340   2.151 127.566  0.00  0.00    +0.000 A 
ATOM     14  C   UNL     1      -7.728   0.830 127.372  0.00  0.00    +0.000 A 
ENDBRANCH   1   9
BRANCH   1  15
ATOM     15  C   UNL     1      -7.045  -2.230 127.675  0.00  0.00    +0.000 A 
ATOM     16  C   UNL     1      -7.993  -2.710 128.589  0.00  0.00    +0.000 A 
ATOM     17  C   UNL     1      -7.596  -3.319 129.777  0.00  0.00    +0.000 A 
ATOM     18  C   UNL     1      -6.249  -3.528 130.059  0.00  0.00    +0.000 A 
ATOM     19  C   UNL     1      -5.288  -3.037 129.189  0.00  0.00    +0.000 A 
ATOM     20  C   UNL     1      -5.696  -2.343 128.068  0.00  0.00    +0.000 A 
ENDBRANCH   1  15
BRANCH   1  21
ATOM     21  O   UNL     1      -6.483  -2.148 125.471  0.00  0.00    +0.000 OA
ATOM     22  H   UNL     1      -6.723  -3.073 125.384  0.00  0.00    +0.000 HD
ENDBRANCH   1  21
TORSDOF 4
ENDMDL
MODEL 7
REMARK VINA RESULT:      -6.5      1.222      2.155
REMARK  Name = Pipradrol
REMARK  4 active torsions:
REMARK  status: ('A' for Active; 'I' for Inactive)
REMARK    1  A    between atoms: C_7  and  C_8
REMARK    2  A    between atoms: C_8  and  O_9
REMARK    3  A    between atoms: C_8  and  C_10
REMARK    4  A    between atoms: C_8  and  C_16
REMARK                            x       y       z     vdW  Elec       q    Type
REMARK                         _______ _______ _______ _____ _____    ______ ____
ROOT
ATOM      1  C   UNL     1      -7.734   1.881 124.022  0.00  0.00    +0.000 C 
ENDROOT
BRANCH   1   8
ATOM      2  H   UNL     1      -6.632   4.316 124.868  0.00  0.00    +0.000 HD
ATOM      3  N   UNL     1      -6.552   3.616 125.608  0.00  0.00    +0.000 NA
ATOM      4  C   UNL     1      -7.637   3.773 126.571  0.00  0.00    +0.000 C 
ATOM      5  C   UNL     1      -7.640   2.693 127.657  0.00  0.00    +0.000 C 
ATOM      6  C   UNL     1      -7.392   1.279 127.150  0.00  0.00    +0.000 C 
ATOM      7  C   UNL     1      -6.228   1.290 126.168  0.00  0.00    +0.000 C 
ATOM      8  C   UNL     1      -6.502   2.254 125.002  0.00  0.00    +0.000 C 
ENDBRANCH   1   8
BRANCH   1   9
ATOM      9  C   UNL     1      -7.601   2.747 122.750  0.00  0.00    +0.000 A 
ATOM     10  C   UNL     1      -8.707   3.125 121.969  0.00  0.00    +0.000 A 
ATOM     11  C   UNL     1      -8.527   3.730 120.728  0.00  0.00    +0.000 A 
ATOM     12  C   UNL     1      -7.245   4.018 120.269  0.00  0.00    +0.000 A 
ATOM     13  C   UNL     1      -6.140   3.734 121.064  0.00  0.00    +0.000 A 
ATOM     14  C   UNL     1      -6.318   3.134 122.307  0.00  0.00    +0.000 A 
ENDBRANCH   1   9
BRANCH   1  15
ATOM     15  C   UNL     1      -7.836   0.371 123.750  0.00  0.00    +0.000 A 
ATOM     16  C   UNL     1      -8.889  -0.443 124.191  0.00  0.00    +0.000 A 
ATOM     17  C   UNL     1      -8.882  -1.814 123.950  0.00  0.00    +0.000 A 
ATOM     18  C   UNL     1      -7.864  -2.404 123.207  0.00  0.00    +0.000 A 
ATOM     19  C   UNL     1      -6.794  -1.632 122.783  0.00  0.00    +0.000 A 
ATOM     20  C   UNL     1      -6.764  -0.294 123.120  0.00  0.00    +0.000 A 
ENDBRANCH   1  15
BRANCH   1  21
ATOM     21  O   UNL     1      -9.015   2.107 124.633  0.00  0.00    +0.000 OA
ATOM     22  H   UNL     1      -9.712   1.904 124.005  0.00  0.00    +0.000 HD
ENDBRANCH   1  21
TORSDOF 4
ENDMDL
MODEL 8
REMARK VINA RESULT:      -6.4      6.638      8.606
REMARK  Name = Pipradrol
REMARK  4 active torsions:
REMARK  status: ('A' for Active; 'I' for Inactive)
REMARK    1  A    between atoms: C_7  and  C_8
REMARK    2  A    between atoms: C_8  and  O_9
REMARK    3  A    between atoms: C_8  and  C_10
REMARK    4  A    between atoms: C_8  and  C_16
REMARK                            x       y       z     vdW  Elec       q    Type
REMARK                         _______ _______ _______ _____ _____    ______ ____
ROOT
ATOM      1  C   UNL     1      -7.145  -1.581 129.969  0.00  0.00    +0.000 C 
ENDROOT
BRANCH   1   8
ATOM      2  H   UNL     1      -5.147  -0.253 131.420  0.00  0.00    +0.000 HD
ATOM      3  N   UNL     1      -4.740  -1.017 130.877  0.00  0.00    +0.000 NA
ATOM      4  C   UNL     1      -4.567  -2.197 131.720  0.00  0.00    +0.000 C 
ATOM      5  C   UNL     1      -4.054  -3.417 130.949  0.00  0.00    +0.000 C 
ATOM      6  C   UNL     1      -4.725  -3.648 129.601  0.00  0.00    +0.000 C 
ATOM      7  C   UNL     1      -4.818  -2.325 128.850  0.00  0.00    +0.000 C 
ATOM      8  C   UNL     1      -5.584  -1.278 129.675  0.00  0.00    +0.000 C 
ENDBRANCH   1   8
BRANCH   1   9
ATOM      9  C   UNL     1      -7.793  -0.268 130.464  0.00  0.00    +0.000 A 
ATOM     10  C   UNL     1      -8.671  -0.220 131.560  0.00  0.00    +0.000 A 
ATOM     11  C   UNL     1      -9.387   0.939 131.848  0.00  0.00    +0.000 A 
ATOM     12  C   UNL     1      -9.199   2.085 131.081  0.00  0.00    +0.000 A 
ATOM     13  C   UNL     1      -8.269   2.087 130.048  0.00  0.00    +0.000 A 
ATOM     14  C   UNL     1      -7.549   0.932 129.762  0.00  0.00    +0.000 A 
ENDBRANCH   1   9
BRANCH   1  15
ATOM     15  C   UNL     1      -7.859  -2.223 128.769  0.00  0.00    +0.000 A 
ATOM     16  C   UNL     1      -8.430  -3.503 128.781  0.00  0.00    +0.000 A 
ATOM     17  C   UNL     1      -9.012  -4.038 127.634  0.00  0.00    +0.000 A 
ATOM     18  C   UNL     1      -9.104  -3.289 126.465  0.00  0.00    +0.000 A 
ATOM     19  C   UNL     1      -8.523  -2.032 126.412  0.00  0.00    +0.000 A 
ATOM     20  C   UNL     1      -7.857  -1.560 127.525  0.00  0.00    +0.000 A 
ENDBRANCH   1  15
BRANCH   1  21
ATOM     21  O   UNL     1      -7.333  -2.616 130.949  0.00  0.00    +0.000 OA
ATOM     22  H   UNL     1      -6.575  -3.203 130.947  0.00  0.00    +0.000 HD
ENDBRANCH   1  21
TORSDOF 4
ENDMDL
MODEL 9
REMARK VINA RESULT:      -6.3      5.273      6.904
REMARK  Name = Pipradrol
REMARK  4 active torsions:
REMARK  status: ('A' for Active; 'I' for Inactive)
REMARK    1  A    between atoms: C_7  and  C_8
REMARK    2  A    between atoms: C_8  and  O_9
REMARK    3  A    between atoms: C_8  and  C_10
REMARK    4  A    between atoms: C_8  and  C_16
REMARK                            x       y       z     vdW  Elec       q    Type
REMARK                         _______ _______ _______ _____ _____    ______ ____
ROOT
ATOM      1  C   UNL     1      -7.116  -1.736 127.783  0.00  0.00    +0.000 C 
ENDROOT
BRANCH   1   8
ATOM      2  H   UNL     1      -7.368  -0.013 125.587  0.00  0.00    +0.000 HD
ATOM      3  N   UNL     1      -7.267   0.526 126.449  0.00  0.00    +0.000 NA
ATOM      4  C   UNL     1      -8.576   0.953 126.933  0.00  0.00    +0.000 C 
ATOM      5  C   UNL     1      -8.512   1.683 128.278  0.00  0.00    +0.000 C 
ATOM      6  C   UNL     1      -7.592   1.040 129.308  0.00  0.00    +0.000 C 
ATOM      7  C   UNL     1      -6.273   0.666 128.644  0.00  0.00    +0.000 C 
ATOM      8  C   UNL     1      -6.507  -0.275 127.451  0.00  0.00    +0.000 C 
ENDBRANCH   1   8
BRANCH   1   9
ATOM      9  C   UNL     1      -7.501  -2.401 126.443  0.00  0.00    +0.000 A 
ATOM     10  C   UNL     1      -6.571  -2.633 125.415  0.00  0.00    +0.000 A 
ATOM     11  C   UNL     1      -6.993  -3.046 124.154  0.00  0.00    +0.000 A 
ATOM     12  C   UNL     1      -8.343  -3.287 123.913  0.00  0.00    +0.000 A 
ATOM     13  C   UNL     1      -9.270  -3.151 124.940  0.00  0.00    +0.000 A 
ATOM     14  C   UNL     1      -8.849  -2.743 126.202  0.00  0.00    +0.000 A 
ENDBRANCH   1   9
BRANCH   1  15
ATOM     15  C   UNL     1      -6.179  -2.582 128.660  0.00  0.00    +0.000 A 
ATOM     16  C   UNL     1      -4.786  -2.630 128.512  0.00  0.00    +0.000 A 
ATOM     17  C   UNL     1      -4.009  -3.464 129.312  0.00  0.00    +0.000 A 
ATOM     18  C   UNL     1      -4.587  -4.223 130.326  0.00  0.00    +0.000 A 
ATOM     19  C   UNL     1      -5.964  -4.220 130.478  0.00  0.00    +0.000 A 
ATOM     20  C   UNL     1      -6.729  -3.469 129.609  0.00  0.00    +0.000 A 
ENDBRANCH   1  15
BRANCH   1  21
ATOM     21  O   UNL     1      -8.266  -1.675 128.643  0.00  0.00    +0.000 OA
ATOM     22  H   UNL     1      -8.726  -0.844 128.508  0.00  0.00    +0.000 HD
ENDBRANCH   1  21
TORSDOF 4
ENDMDL
