MODEL 1
REMARK VINA RESULT:      -5.0      0.000      0.000
REMARK  Name = Piracetam
REMARK  2 active torsions:
REMARK  status: ('A' for Active; 'I' for Inactive)
REMARK    1  A    between atoms: C_2  and  C_4
REMARK    2  A    between atoms: C_4  and  N_5
REMARK                            x       y       z     vdW  Elec       q    Type
REMARK                         _______ _______ _______ _____ _____    ______ ____
ROOT
ATOM      1  C   UNL     1     -10.691   8.342 127.733  0.00  0.00    +0.000 C 
ENDROOT
BRANCH   1   2
ATOM      2  N   UNL     1     -11.311   8.045 129.022  0.00  0.00    +0.000 N 
ATOM      3  C   UNL     1     -10.707   7.202 130.032  0.00  0.00    +0.000 C 
ATOM      4  C   UNL     1     -11.866   6.851 130.957  0.00  0.00    +0.000 C 
ATOM      5  C   UNL     1     -12.825   8.016 130.785  0.00  0.00    +0.000 C 
ATOM      6  C   UNL     1     -12.633   8.344 129.332  0.00  0.00    +0.000 C 
ATOM      7  O   UNL     1     -13.490   8.815 128.602  0.00  0.00    +0.000 OA
ENDBRANCH   1   2
BRANCH   1   9
ATOM      8  N   UNL     1     -12.171   7.047 126.215  0.00  0.00    +0.000 N 
ATOM      9  C   UNL     1     -10.902   7.219 126.689  0.00  0.00    +0.000 C 
ATOM     10  O   UNL     1     -10.037   6.446 126.285  0.00  0.00    +0.000 OA
ATOM     11  H   UNL     1     -12.270   6.308 125.529  0.00  0.00    +0.000 HD
ATOM     12  H   UNL     1     -13.000   7.468 126.605  0.00  0.00    +0.000 HD
ENDBRANCH   1   9
TORSDOF 2
ENDMDL
MODEL 2
REMARK VINA RESULT:      -4.9      1.549      1.975
REMARK  Name = Piracetam
REMARK  2 active torsions:
REMARK  status: ('A' for Active; 'I' for Inactive)
REMARK    1  A    between atoms: C_2  and  C_4
REMARK    2  A    between atoms: C_4  and  N_5
REMARK                            x       y       z     vdW  Elec       q    Type
REMARK                         _______ _______ _______ _____ _____    ______ ____
ROOT
ATOM      1  C   UNL     1     -11.169   8.274 127.847  0.00  0.00    +0.000 C 
ENDROOT
BRANCH   1   2
ATOM      2  N   UNL     1     -11.428   7.656 129.144  0.00  0.00    +0.000 N 
ATOM      3  C   UNL     1     -12.741   7.567 129.747  0.00  0.00    +0.000 C 
ATOM      4  C   UNL     1     -12.452   7.261 131.212  0.00  0.00    +0.000 C 
ATOM      5  C   UNL     1     -11.102   6.567 131.172  0.00  0.00    +0.000 C 
ATOM      6  C   UNL     1     -10.430   7.294 130.042  0.00  0.00    +0.000 C 
ATOM      7  O   UNL     1      -9.228   7.483 129.949  0.00  0.00    +0.000 OA
ENDBRANCH   1   2
BRANCH   1   9
ATOM      8  N   UNL     1     -12.403   6.975 126.126  0.00  0.00    +0.000 N 
ATOM      9  C   UNL     1     -11.188   7.258 126.679  0.00  0.00    +0.000 C 
ATOM     10  O   UNL     1     -10.211   6.657 126.239  0.00  0.00    +0.000 OA
ATOM     11  H   UNL     1     -12.376   6.311 125.361  0.00  0.00    +0.000 HD
ATOM     12  H   UNL     1     -13.296   7.236 126.516  0.00  0.00    +0.000 HD
ENDBRANCH   1   9
TORSDOF 2
ENDMDL
MODEL 3
REMARK VINA RESULT:      -4.8      2.610      4.223
REMARK  Name = Piracetam
REMARK  2 active torsions:
REMARK  status: ('A' for Active; 'I' for Inactive)
REMARK    1  A    between atoms: C_2  and  C_4
REMARK    2  A    between atoms: C_4  and  N_5
REMARK                            x       y       z     vdW  Elec       q    Type
REMARK                         _______ _______ _______ _____ _____    ______ ____
ROOT
ATOM      1  C   UNL     1     -11.133   5.842 130.606  0.00  0.00    +0.000 C 
ENDROOT
BRANCH   1   2
ATOM      2  N   UNL     1     -11.210   6.991 129.708  0.00  0.00    +0.000 N 
ATOM      3  C   UNL     1     -12.210   8.032 129.816  0.00  0.00    +0.000 C 
ATOM      4  C   UNL     1     -12.158   8.732 128.463  0.00  0.00    +0.000 C 
ATOM      5  C   UNL     1     -10.739   8.478 127.985  0.00  0.00    +0.000 C 
ATOM      6  C   UNL     1     -10.489   7.099 128.524  0.00  0.00    +0.000 C 
ATOM      7  O   UNL     1      -9.757   6.269 128.010  0.00  0.00    +0.000 OA
ENDBRANCH   1   2
BRANCH   1   9
ATOM      8  N   UNL     1     -10.418   5.436 132.950  0.00  0.00    +0.000 N 
ATOM      9  C   UNL     1     -10.127   6.047 131.765  0.00  0.00    +0.000 C 
ATOM     10  O   UNL     1      -9.117   6.744 131.720  0.00  0.00    +0.000 OA
ATOM     11  H   UNL     1      -9.735   5.587 133.684  0.00  0.00    +0.000 HD
ATOM     12  H   UNL     1     -11.301   5.009 133.184  0.00  0.00    +0.000 HD
ENDBRANCH   1   9
TORSDOF 2
ENDMDL
MODEL 4
REMARK VINA RESULT:      -4.6      2.748      3.871
REMARK  Name = Piracetam
REMARK  2 active torsions:
REMARK  status: ('A' for Active; 'I' for Inactive)
REMARK    1  A    between atoms: C_2  and  C_4
REMARK    2  A    between atoms: C_4  and  N_5
REMARK                            x       y       z     vdW  Elec       q    Type
REMARK                         _______ _______ _______ _____ _____    ______ ____
ROOT
ATOM      1  C   UNL     1     -10.778   5.588 130.420  0.00  0.00    +0.000 C 
ENDROOT
BRANCH   1   2
ATOM      2  N   UNL     1     -11.476   6.675 129.738  0.00  0.00    +0.000 N 
ATOM      3  C   UNL     1     -10.950   7.371 128.582  0.00  0.00    +0.000 C 
ATOM      4  C   UNL     1     -11.785   8.644 128.511  0.00  0.00    +0.000 C 
ATOM      5  C   UNL     1     -13.088   8.255 129.185  0.00  0.00    +0.000 C 
ATOM      6  C   UNL     1     -12.601   7.313 130.248  0.00  0.00    +0.000 C 
ATOM      7  O   UNL     1     -13.137   7.143 131.331  0.00  0.00    +0.000 OA
ENDBRANCH   1   2
BRANCH   1   9
ATOM      8  N   UNL     1     -10.557   5.735 132.889  0.00  0.00    +0.000 N 
ATOM      9  C   UNL     1     -10.013   6.059 131.680  0.00  0.00    +0.000 C 
ATOM     10  O   UNL     1      -8.986   6.732 131.684  0.00  0.00    +0.000 OA
ATOM     11  H   UNL     1     -10.027   6.053 133.692  0.00  0.00    +0.000 HD
ATOM     12  H   UNL     1     -11.486   5.369 133.031  0.00  0.00    +0.000 HD
ENDBRANCH   1   9
TORSDOF 2
ENDMDL
MODEL 5
REMARK VINA RESULT:      -4.5      2.724      4.135
REMARK  Name = Piracetam
REMARK  2 active torsions:
REMARK  status: ('A' for Active; 'I' for Inactive)
REMARK    1  A    between atoms: C_2  and  C_4
REMARK    2  A    between atoms: C_4  and  N_5
REMARK                            x       y       z     vdW  Elec       q    Type
REMARK                         _______ _______ _______ _____ _____    ______ ____
ROOT
ATOM      1  C   UNL     1     -11.662   6.148 130.154  0.00  0.00    +0.000 C 
ENDROOT
BRANCH   1   2
ATOM      2  N   UNL     1     -10.332   6.173 130.757  0.00  0.00    +0.000 N 
ATOM      3  C   UNL     1      -9.993   5.493 131.989  0.00  0.00    +0.000 C 
ATOM      4  C   UNL     1      -8.686   6.147 132.421  0.00  0.00    +0.000 C 
ATOM      5  C   UNL     1      -8.083   6.636 131.116  0.00  0.00    +0.000 C 
ATOM      6  C   UNL     1      -9.314   7.028 130.351  0.00  0.00    +0.000 C 
ATOM      7  O   UNL     1      -9.364   7.915 129.513  0.00  0.00    +0.000 OA
ENDBRANCH   1   2
BRANCH   1   9
ATOM      8  N   UNL     1     -12.541   8.464 129.969  0.00  0.00    +0.000 N 
ATOM      9  C   UNL     1     -12.578   7.288 130.662  0.00  0.00    +0.000 C 
ATOM     10  O   UNL     1     -13.298   7.238 131.655  0.00  0.00    +0.000 OA
ATOM     11  H   UNL     1     -13.157   9.185 130.326  0.00  0.00    +0.000 HD
ATOM     12  H   UNL     1     -11.856   8.707 129.270  0.00  0.00    +0.000 HD
ENDBRANCH   1   9
TORSDOF 2
ENDMDL
MODEL 6
REMARK VINA RESULT:      -4.5      2.038      2.564
REMARK  Name = Piracetam
REMARK  2 active torsions:
REMARK  status: ('A' for Active; 'I' for Inactive)
REMARK    1  A    between atoms: C_2  and  C_4
REMARK    2  A    between atoms: C_4  and  N_5
REMARK                            x       y       z     vdW  Elec       q    Type
REMARK                         _______ _______ _______ _____ _____    ______ ____
ROOT
ATOM      1  C   UNL     1     -12.414   6.954 128.773  0.00  0.00    +0.000 C 
ENDROOT
BRANCH   1   2
ATOM      2  N   UNL     1     -11.658   6.549 129.955  0.00  0.00    +0.000 N 
ATOM      3  C   UNL     1     -10.480   5.708 129.908  0.00  0.00    +0.000 C 
ATOM      4  C   UNL     1     -10.319   5.223 131.344  0.00  0.00    +0.000 C 
ATOM      5  C   UNL     1     -10.981   6.316 132.166  0.00  0.00    +0.000 C 
ATOM      6  C   UNL     1     -12.105   6.727 131.259  0.00  0.00    +0.000 C 
ATOM      7  O   UNL     1     -13.182   7.163 131.634  0.00  0.00    +0.000 OA
ENDBRANCH   1   2
BRANCH   1   9
ATOM      8  N   UNL     1     -12.608   9.424 128.596  0.00  0.00    +0.000 N 
ATOM      9  C   UNL     1     -11.940   8.306 128.187  0.00  0.00    +0.000 C 
ATOM     10  O   UNL     1     -11.047   8.452 127.357  0.00  0.00    +0.000 OA
ATOM     11  H   UNL     1     -12.267  10.291 128.197  0.00  0.00    +0.000 HD
ATOM     12  H   UNL     1     -13.478   9.429 129.106  0.00  0.00    +0.000 HD
ENDBRANCH   1   9
TORSDOF 2
ENDMDL
MODEL 7
REMARK VINA RESULT:      -4.2      2.559      3.551
REMARK  Name = Piracetam
REMARK  2 active torsions:
REMARK  status: ('A' for Active; 'I' for Inactive)
REMARK    1  A    between atoms: C_2  and  C_4
REMARK    2  A    between atoms: C_4  and  N_5
REMARK                            x       y       z     vdW  Elec       q    Type
REMARK                         _______ _______ _______ _____ _____    ______ ____
ROOT
ATOM      1  C   UNL     1      -9.742   5.931 131.069  0.00  0.00    +0.000 C 
ENDROOT
BRANCH   1   2
ATOM      2  N   UNL     1     -10.832   6.816 130.666  0.00  0.00    +0.000 N 
ATOM      3  C   UNL     1     -12.148   6.799 131.268  0.00  0.00    +0.000 C 
ATOM      4  C   UNL     1     -13.020   7.547 130.266  0.00  0.00    +0.000 C 
ATOM      5  C   UNL     1     -12.039   8.461 129.552  0.00  0.00    +0.000 C 
ATOM      6  C   UNL     1     -10.806   7.603 129.520  0.00  0.00    +0.000 C 
ATOM      7  O   UNL     1      -9.949   7.643 128.652  0.00  0.00    +0.000 OA
ENDBRANCH   1   2
BRANCH   1   9
ATOM      8  N   UNL     1     -10.473   3.561 131.206  0.00  0.00    +0.000 N 
ATOM      9  C   UNL     1      -9.853   4.516 130.453  0.00  0.00    +0.000 C 
ATOM     10  O   UNL     1      -9.395   4.171 129.367  0.00  0.00    +0.000 OA
ATOM     11  H   UNL     1     -10.533   2.649 130.769  0.00  0.00    +0.000 HD
ATOM     12  H   UNL     1     -10.710   3.652 132.182  0.00  0.00    +0.000 HD
ENDBRANCH   1   9
TORSDOF 2
ENDMDL
MODEL 8
REMARK VINA RESULT:      -4.1      8.365      9.620
REMARK  Name = Piracetam
REMARK  2 active torsions:
REMARK  status: ('A' for Active; 'I' for Inactive)
REMARK    1  A    between atoms: C_2  and  C_4
REMARK    2  A    between atoms: C_4  and  N_5
REMARK                            x       y       z     vdW  Elec       q    Type
REMARK                         _______ _______ _______ _____ _____    ______ ____
ROOT
ATOM      1  C   UNL     1      -8.923   2.268 123.592  0.00  0.00    +0.000 C 
ENDROOT
BRANCH   1   2
ATOM      2  N   UNL     1      -8.687   0.832 123.463  0.00  0.00    +0.000 N 
ATOM      3  C   UNL     1      -7.400   0.205 123.677  0.00  0.00    +0.000 C 
ATOM      4  C   UNL     1      -7.547  -1.165 123.025  0.00  0.00    +0.000 C 
ATOM      5  C   UNL     1      -9.040  -1.436 123.097  0.00  0.00    +0.000 C 
ATOM      6  C   UNL     1      -9.600  -0.056 122.904  0.00  0.00    +0.000 C 
ATOM      7  O   UNL     1     -10.673   0.197 122.381  0.00  0.00    +0.000 OA
ENDBRANCH   1   2
BRANCH   1   9
ATOM      8  N   UNL     1      -7.163   3.680 122.553  0.00  0.00    +0.000 N 
ATOM      9  C   UNL     1      -8.378   3.079 122.391  0.00  0.00    +0.000 C 
ATOM     10  O   UNL     1      -8.963   3.262 121.327  0.00  0.00    +0.000 OA
ATOM     11  H   UNL     1      -6.835   4.197 121.746  0.00  0.00    +0.000 HD
ATOM     12  H   UNL     1      -6.676   3.781 123.430  0.00  0.00    +0.000 HD
ENDBRANCH   1   9
TORSDOF 2
ENDMDL
MODEL 9
REMARK VINA RESULT:      -4.1      2.589      3.244
REMARK  Name = Piracetam
REMARK  2 active torsions:
REMARK  status: ('A' for Active; 'I' for Inactive)
REMARK    1  A    between atoms: C_2  and  C_4
REMARK    2  A    between atoms: C_4  and  N_5
REMARK                            x       y       z     vdW  Elec       q    Type
REMARK                         _______ _______ _______ _____ _____    ______ ____
ROOT
ATOM      1  C   UNL     1      -9.389   6.835 130.144  0.00  0.00    +0.000 C 
ENDROOT
BRANCH   1   2
ATOM      2  N   UNL     1     -10.809   7.174 130.200  0.00  0.00    +0.000 N 
ATOM      3  C   UNL     1     -11.424   8.203 129.389  0.00  0.00    +0.000 C 
ATOM      4  C   UNL     1     -12.752   8.475 130.087  0.00  0.00    +0.000 C 
ATOM      5  C   UNL     1     -13.055   7.168 130.798  0.00  0.00    +0.000 C 
ATOM      6  C   UNL     1     -11.676   6.716 131.185  0.00  0.00    +0.000 C 
ATOM      7  O   UNL     1     -11.411   6.045 132.170  0.00  0.00    +0.000 OA
ENDBRANCH   1   2
BRANCH   1   9
ATOM      8  N   UNL     1      -9.156   4.370 130.336  0.00  0.00    +0.000 N 
ATOM      9  C   UNL     1      -9.123   5.451 129.504  0.00  0.00    +0.000 C 
ATOM     10  O   UNL     1      -8.845   5.250 128.325  0.00  0.00    +0.000 OA
ATOM     11  H   UNL     1      -8.983   3.480 129.882  0.00  0.00    +0.000 HD
ATOM     12  H   UNL     1      -9.169   4.410 131.344  0.00  0.00    +0.000 HD
ENDBRANCH   1   9
TORSDOF 2
ENDMDL
