MODEL 1
REMARK VINA RESULT:      -5.8      0.000      0.000
REMARK  Name = Pirbuterol
REMARK  11 active torsions:
REMARK  status: ('A' for Active; 'I' for Inactive)
REMARK    1  A    between atoms: C_1  and  C_2
REMARK    2  A    between atoms: C_2  and  C_3
REMARK    3  A    between atoms: C_2  and  C_4
REMARK    4  A    between atoms: C_2  and  N_5
REMARK    5  A    between atoms: N_5  and  C_6
REMARK    6  A    between atoms: C_6  and  C_7
REMARK    7  A    between atoms: C_7  and  O_8
REMARK    8  A    between atoms: C_7  and  C_9
REMARK    9  A    between atoms: CA_11  and  C_12
REMARK   10  A    between atoms: C_12  and  O_13
REMARK   11  A    between atoms: C_14  and  O_15
REMARK                            x       y       z     vdW  Elec       q    Type
REMARK                         _______ _______ _______ _____ _____    ______ ____
ROOT
ATOM      1  C   UNL     1      -8.032   3.093 122.434  0.00  0.00    +0.000 A 
ATOM      2  N   UNL     1      -6.728   3.483 122.533  0.00  0.00    +0.000 NA
ATOM      3  CA  UNL     1      -6.147   4.084 121.455  0.00  0.00    +0.000 A 
ATOM      4  C   UNL     1      -6.851   4.298 120.269  0.00  0.00    +0.000 A 
ATOM      5  C   UNL     1      -8.186   3.937 120.195  0.00  0.00    +0.000 A 
ATOM      6  C   UNL     1      -8.789   3.351 121.295  0.00  0.00    +0.000 A 
ENDROOT
BRANCH   4   7
ATOM      7  O   UNL     1      -6.321   4.855 119.142  0.00  0.00    +0.000 OA
ATOM      8  H   UNL     1      -6.926   4.644 118.399  0.00  0.00    +0.000 HD
ENDBRANCH   4   7
BRANCH   1   9
ATOM      9  C   UNL     1      -8.663   2.401 123.639  0.00  0.00    +0.000 C 
BRANCH   9  10
ATOM     10  O   UNL     1      -9.054   3.348 124.651  0.00  0.00    +0.000 OA
ATOM     11  H   UNL     1      -8.331   3.989 124.737  0.00  0.00    +0.000 HD
ENDBRANCH   9  10
BRANCH   9  12
ATOM     12  C   UNL     1      -7.652   1.398 124.224  0.00  0.00    +0.000 C 
BRANCH  12  13
ATOM     13  N   UNL     1      -7.105   0.476 123.214  0.00  0.00    +0.000 NA
ATOM     14  H   UNL     1      -7.422   0.760 122.285  0.00  0.00    +0.000 HD
BRANCH  13  16
ATOM     15  C   UNL     1      -7.364  -1.174 124.987  0.00  0.00    +0.000 C 
ATOM     16  C   UNL     1      -7.400  -0.945 123.463  0.00  0.00    +0.000 C 
ATOM     17  C   UNL     1      -6.350  -1.864 122.813  0.00  0.00    +0.000 C 
ATOM     18  C   UNL     1      -8.810  -1.298 122.959  0.00  0.00    +0.000 C 
ENDBRANCH  13  16
ENDBRANCH  12  13
ENDBRANCH   9  12
ENDBRANCH   1   9
BRANCH   3  19
ATOM     19  C   UNL     1      -4.706   4.510 121.630  0.00  0.00    +0.000 C 
BRANCH  19  20
ATOM     20  O   UNL     1      -4.473   5.854 121.187  0.00  0.00    +0.000 OA
ATOM     21  H   UNL     1      -4.058   5.768 120.307  0.00  0.00    +0.000 HD
ENDBRANCH  19  20
ENDBRANCH   3  19
TORSDOF 8
ENDMDL
MODEL 2
REMARK VINA RESULT:      -5.7      7.735      9.259
REMARK  Name = Pirbuterol
REMARK  11 active torsions:
REMARK  status: ('A' for Active; 'I' for Inactive)
REMARK    1  A    between atoms: C_1  and  C_2
REMARK    2  A    between atoms: C_2  and  C_3
REMARK    3  A    between atoms: C_2  and  C_4
REMARK    4  A    between atoms: C_2  and  N_5
REMARK    5  A    between atoms: N_5  and  C_6
REMARK    6  A    between atoms: C_6  and  C_7
REMARK    7  A    between atoms: C_7  and  O_8
REMARK    8  A    between atoms: C_7  and  C_9
REMARK    9  A    between atoms: CA_11  and  C_12
REMARK   10  A    between atoms: C_12  and  O_13
REMARK   11  A    between atoms: C_14  and  O_15
REMARK                            x       y       z     vdW  Elec       q    Type
REMARK                         _______ _______ _______ _____ _____    ______ ____
ROOT
ATOM      1  C   UNL     1     -11.466   6.268 130.235  0.00  0.00    +0.000 A 
ATOM      2  N   UNL     1     -11.079   6.519 128.952  0.00  0.00    +0.000 NA
ATOM      3  CA  UNL     1     -11.539   7.651 128.344  0.00  0.00    +0.000 A 
ATOM      4  C   UNL     1     -12.393   8.538 129.001  0.00  0.00    +0.000 A 
ATOM      5  C   UNL     1     -12.746   8.294 130.318  0.00  0.00    +0.000 A 
ATOM      6  C   UNL     1     -12.259   7.163 130.949  0.00  0.00    +0.000 A 
ENDROOT
BRANCH   4   7
ATOM      7  O   UNL     1     -12.923   9.664 128.441  0.00  0.00    +0.000 OA
ATOM      8  H   UNL     1     -12.590   9.717 127.520  0.00  0.00    +0.000 HD
ENDBRANCH   4   7
BRANCH   1   9
ATOM      9  C   UNL     1     -10.962   4.988 130.894  0.00  0.00    +0.000 C 
BRANCH   9  10
ATOM     10  O   UNL     1     -10.653   5.193 132.285  0.00  0.00    +0.000 OA
ATOM     11  H   UNL     1      -9.782   4.796 132.446  0.00  0.00    +0.000 HD
ENDBRANCH   9  10
BRANCH   9  12
ATOM     12  C   UNL     1      -9.708   4.502 130.146  0.00  0.00    +0.000 C 
BRANCH  12  13
ATOM     13  N   UNL     1      -9.733   3.059 129.855  0.00  0.00    +0.000 NA
ATOM     14  H   UNL     1     -10.702   2.733 129.826  0.00  0.00    +0.000 HD
BRANCH  13  16
ATOM     15  C   UNL     1      -8.300   1.092 129.950  0.00  0.00    +0.000 C 
ATOM     16  C   UNL     1      -8.925   2.237 130.772  0.00  0.00    +0.000 C 
ATOM     17  C   UNL     1      -9.787   1.617 131.885  0.00  0.00    +0.000 C 
ATOM     18  C   UNL     1      -7.783   3.072 131.376  0.00  0.00    +0.000 C 
ENDBRANCH  13  16
ENDBRANCH  12  13
ENDBRANCH   9  12
ENDBRANCH   1   9
BRANCH   3  19
ATOM     19  C   UNL     1     -11.061   7.885 126.928  0.00  0.00    +0.000 C 
BRANCH  19  20
ATOM     20  O   UNL     1     -10.886   6.663 126.198  0.00  0.00    +0.000 OA
ATOM     21  H   UNL     1     -11.788   6.323 126.043  0.00  0.00    +0.000 HD
ENDBRANCH  19  20
ENDBRANCH   3  19
TORSDOF 8
ENDMDL
MODEL 3
REMARK VINA RESULT:      -5.6      1.522      2.663
REMARK  Name = Pirbuterol
REMARK  11 active torsions:
REMARK  status: ('A' for Active; 'I' for Inactive)
REMARK    1  A    between atoms: C_1  and  C_2
REMARK    2  A    between atoms: C_2  and  C_3
REMARK    3  A    between atoms: C_2  and  C_4
REMARK    4  A    between atoms: C_2  and  N_5
REMARK    5  A    between atoms: N_5  and  C_6
REMARK    6  A    between atoms: C_6  and  C_7
REMARK    7  A    between atoms: C_7  and  O_8
REMARK    8  A    between atoms: C_7  and  C_9
REMARK    9  A    between atoms: CA_11  and  C_12
REMARK   10  A    between atoms: C_12  and  O_13
REMARK   11  A    between atoms: C_14  and  O_15
REMARK                            x       y       z     vdW  Elec       q    Type
REMARK                         _______ _______ _______ _____ _____    ______ ____
ROOT
ATOM      1  C   UNL     1      -8.123   2.895 122.476  0.00  0.00    +0.000 A 
ATOM      2  N   UNL     1      -8.649   3.308 121.287  0.00  0.00    +0.000 NA
ATOM      3  CA  UNL     1      -7.823   3.919 120.390  0.00  0.00    +0.000 A 
ATOM      4  C   UNL     1      -6.471   4.131 120.666  0.00  0.00    +0.000 A 
ATOM      5  C   UNL     1      -5.940   3.670 121.858  0.00  0.00    +0.000 A 
ATOM      6  C   UNL     1      -6.767   3.024 122.761  0.00  0.00    +0.000 A 
ENDROOT
BRANCH   4   7
ATOM      7  O   UNL     1      -5.600   4.771 119.833  0.00  0.00    +0.000 OA
ATOM      8  H   UNL     1      -5.421   4.170 119.079  0.00  0.00    +0.000 HD
ENDBRANCH   4   7
BRANCH   1   9
ATOM      9  C   UNL     1      -9.063   2.233 123.480  0.00  0.00    +0.000 C 
BRANCH   9  10
ATOM     10  O   UNL     1      -9.325   3.090 124.607  0.00  0.00    +0.000 OA
ATOM     11  H   UNL     1     -10.288   3.148 124.704  0.00  0.00    +0.000 HD
ENDBRANCH   9  10
BRANCH   9  12
ATOM     12  C   UNL     1      -8.430   0.914 123.961  0.00  0.00    +0.000 C 
BRANCH  12  13
ATOM     13  N   UNL     1      -9.329  -0.243 123.813  0.00  0.00    +0.000 NA
ATOM     14  H   UNL     1     -10.207  -0.057 124.300  0.00  0.00    +0.000 HD
BRANCH  13  16
ATOM     15  C   UNL     1      -9.277  -2.621 123.295  0.00  0.00    +0.000 C 
ATOM     16  C   UNL     1      -8.746  -1.526 124.240  0.00  0.00    +0.000 C 
ATOM     17  C   UNL     1      -9.161  -1.886 125.677  0.00  0.00    +0.000 C 
ATOM     18  C   UNL     1      -7.213  -1.488 124.115  0.00  0.00    +0.000 C 
ENDBRANCH  13  16
ENDBRANCH  12  13
ENDBRANCH   9  12
ENDBRANCH   1   9
BRANCH   3  19
ATOM     19  C   UNL     1      -8.458   4.338 119.082  0.00  0.00    +0.000 C 
BRANCH  19  20
ATOM     20  O   UNL     1      -9.879   4.147 119.075  0.00  0.00    +0.000 OA
ATOM     21  H   UNL     1     -10.174   4.366 119.981  0.00  0.00    +0.000 HD
ENDBRANCH  19  20
ENDBRANCH   3  19
TORSDOF 8
ENDMDL
MODEL 4
REMARK VINA RESULT:      -5.6      7.702      9.344
REMARK  Name = Pirbuterol
REMARK  11 active torsions:
REMARK  status: ('A' for Active; 'I' for Inactive)
REMARK    1  A    between atoms: C_1  and  C_2
REMARK    2  A    between atoms: C_2  and  C_3
REMARK    3  A    between atoms: C_2  and  C_4
REMARK    4  A    between atoms: C_2  and  N_5
REMARK    5  A    between atoms: N_5  and  C_6
REMARK    6  A    between atoms: C_6  and  C_7
REMARK    7  A    between atoms: C_7  and  O_8
REMARK    8  A    between atoms: C_7  and  C_9
REMARK    9  A    between atoms: CA_11  and  C_12
REMARK   10  A    between atoms: C_12  and  O_13
REMARK   11  A    between atoms: C_14  and  O_15
REMARK                            x       y       z     vdW  Elec       q    Type
REMARK                         _______ _______ _______ _____ _____    ______ ____
ROOT
ATOM      1  C   UNL     1      -9.782   6.862 130.520  0.00  0.00    +0.000 A 
ATOM      2  N   UNL     1      -9.755   7.104 129.178  0.00  0.00    +0.000 NA
ATOM      3  CA  UNL     1     -10.942   7.189 128.510  0.00  0.00    +0.000 A 
ATOM      4  C   UNL     1     -12.163   7.030 129.166  0.00  0.00    +0.000 A 
ATOM      5  C   UNL     1     -12.179   6.827 130.535  0.00  0.00    +0.000 A 
ATOM      6  C   UNL     1     -10.980   6.767 131.223  0.00  0.00    +0.000 A 
ENDROOT
BRANCH   4   7
ATOM      7  O   UNL     1     -13.383   7.061 128.554  0.00  0.00    +0.000 OA
ATOM      8  H   UNL     1     -13.614   6.139 128.315  0.00  0.00    +0.000 HD
ENDBRANCH   4   7
BRANCH   1   9
ATOM      9  C   UNL     1      -8.447   6.747 131.250  0.00  0.00    +0.000 C 
BRANCH   9  10
ATOM     10  O   UNL     1      -7.389   7.406 130.531  0.00  0.00    +0.000 OA
ATOM     11  H   UNL     1      -7.426   7.090 129.614  0.00  0.00    +0.000 HD
ENDBRANCH   9  10
BRANCH   9  12
ATOM     12  C   UNL     1      -8.106   5.256 131.433  0.00  0.00    +0.000 C 
BRANCH  12  13
ATOM     13  N   UNL     1      -8.664   4.403 130.370  0.00  0.00    +0.000 NA
ATOM     14  H   UNL     1      -9.255   4.966 129.755  0.00  0.00    +0.000 HD
BRANCH  13  16
ATOM     15  C   UNL     1      -8.732   1.974 130.222  0.00  0.00    +0.000 C 
ATOM     16  C   UNL     1      -9.386   3.216 130.858  0.00  0.00    +0.000 C 
ATOM     17  C   UNL     1     -10.868   3.245 130.444  0.00  0.00    +0.000 C 
ATOM     18  C   UNL     1      -9.256   3.097 132.386  0.00  0.00    +0.000 C 
ENDBRANCH  13  16
ENDBRANCH  12  13
ENDBRANCH   9  12
ENDBRANCH   1   9
BRANCH   3  19
ATOM     19  C   UNL     1     -10.850   7.476 127.027  0.00  0.00    +0.000 C 
BRANCH  19  20
ATOM     20  O   UNL     1     -11.653   6.583 126.244  0.00  0.00    +0.000 OA
ATOM     21  H   UNL     1     -12.515   7.030 126.145  0.00  0.00    +0.000 HD
ENDBRANCH  19  20
ENDBRANCH   3  19
TORSDOF 8
ENDMDL
MODEL 5
REMARK VINA RESULT:      -5.6      8.762     10.293
REMARK  Name = Pirbuterol
REMARK  11 active torsions:
REMARK  status: ('A' for Active; 'I' for Inactive)
REMARK    1  A    between atoms: C_1  and  C_2
REMARK    2  A    between atoms: C_2  and  C_3
REMARK    3  A    between atoms: C_2  and  C_4
REMARK    4  A    between atoms: C_2  and  N_5
REMARK    5  A    between atoms: N_5  and  C_6
REMARK    6  A    between atoms: C_6  and  C_7
REMARK    7  A    between atoms: C_7  and  O_8
REMARK    8  A    between atoms: C_7  and  C_9
REMARK    9  A    between atoms: CA_11  and  C_12
REMARK   10  A    between atoms: C_12  and  O_13
REMARK   11  A    between atoms: C_14  and  O_15
REMARK                            x       y       z     vdW  Elec       q    Type
REMARK                         _______ _______ _______ _____ _____    ______ ____
ROOT
ATOM      1  C   UNL     1     -11.172   6.429 130.194  0.00  0.00    +0.000 A 
ATOM      2  N   UNL     1     -10.916   6.572 128.862  0.00  0.00    +0.000 NA
ATOM      3  CA  UNL     1     -11.540   7.579 128.185  0.00  0.00    +0.000 A 
ATOM      4  C   UNL     1     -12.427   8.448 128.822  0.00  0.00    +0.000 A 
ATOM      5  C   UNL     1     -12.647   8.320 130.183  0.00  0.00    +0.000 A 
ATOM      6  C   UNL     1     -11.996   7.318 130.880  0.00  0.00    +0.000 A 
ENDROOT
BRANCH   4   7
ATOM      7  O   UNL     1     -13.116   9.448 128.198  0.00  0.00    +0.000 OA
ATOM      8  H   UNL     1     -12.661   9.631 127.349  0.00  0.00    +0.000 HD
ENDBRANCH   4   7
BRANCH   1   9
ATOM      9  C   UNL     1     -10.485   5.285 130.934  0.00  0.00    +0.000 C 
BRANCH   9  10
ATOM     10  O   UNL     1     -11.171   4.036 130.734  0.00  0.00    +0.000 OA
ATOM     11  H   UNL     1     -10.558   3.444 130.271  0.00  0.00    +0.000 HD
ENDBRANCH   9  10
BRANCH   9  12
ATOM     12  C   UNL     1     -10.436   5.621 132.436  0.00  0.00    +0.000 C 
BRANCH  12  13
ATOM     13  N   UNL     1      -9.113   6.096 132.876  0.00  0.00    +0.000 NA
ATOM     14  H   UNL     1      -8.620   6.515 132.086  0.00  0.00    +0.000 HD
BRANCH  13  16
ATOM     15  C   UNL     1      -7.754   5.672 134.852  0.00  0.00    +0.000 C 
ATOM     16  C   UNL     1      -8.286   5.071 133.536  0.00  0.00    +0.000 C 
ATOM     17  C   UNL     1      -7.081   4.671 132.666  0.00  0.00    +0.000 C 
ATOM     18  C   UNL     1      -9.135   3.836 133.881  0.00  0.00    +0.000 C 
ENDBRANCH  13  16
ENDBRANCH  12  13
ENDBRANCH   9  12
ENDBRANCH   1   9
BRANCH   3  19
ATOM     19  C   UNL     1     -11.203   7.699 126.715  0.00  0.00    +0.000 C 
BRANCH  19  20
ATOM     20  O   UNL     1     -10.564   6.523 126.201  0.00  0.00    +0.000 OA
ATOM     21  H   UNL     1      -9.716   6.458 126.681  0.00  0.00    +0.000 HD
ENDBRANCH  19  20
ENDBRANCH   3  19
TORSDOF 8
ENDMDL
MODEL 6
REMARK VINA RESULT:      -5.4      8.169     10.051
REMARK  Name = Pirbuterol
REMARK  11 active torsions:
REMARK  status: ('A' for Active; 'I' for Inactive)
REMARK    1  A    between atoms: C_1  and  C_2
REMARK    2  A    between atoms: C_2  and  C_3
REMARK    3  A    between atoms: C_2  and  C_4
REMARK    4  A    between atoms: C_2  and  N_5
REMARK    5  A    between atoms: N_5  and  C_6
REMARK    6  A    between atoms: C_6  and  C_7
REMARK    7  A    between atoms: C_7  and  O_8
REMARK    8  A    between atoms: C_7  and  C_9
REMARK    9  A    between atoms: CA_11  and  C_12
REMARK   10  A    between atoms: C_12  and  O_13
REMARK   11  A    between atoms: C_14  and  O_15
REMARK                            x       y       z     vdW  Elec       q    Type
REMARK                         _______ _______ _______ _____ _____    ______ ____
ROOT
ATOM      1  C   UNL     1      -9.991   5.549 130.165  0.00  0.00    +0.000 A 
ATOM      2  N   UNL     1     -10.971   5.833 129.261  0.00  0.00    +0.000 NA
ATOM      3  CA  UNL     1     -12.112   6.434 129.707  0.00  0.00    +0.000 A 
ATOM      4  C   UNL     1     -12.291   6.753 131.054  0.00  0.00    +0.000 A 
ATOM      5  C   UNL     1     -11.272   6.498 131.956  0.00  0.00    +0.000 A 
ATOM      6  C   UNL     1     -10.102   5.913 131.504  0.00  0.00    +0.000 A 
ENDROOT
BRANCH   4   7
ATOM      7  O   UNL     1     -13.421   7.316 131.574  0.00  0.00    +0.000 OA
ATOM      8  H   UNL     1     -14.181   6.768 131.286  0.00  0.00    +0.000 HD
ENDBRANCH   4   7
BRANCH   1   9
ATOM      9  C   UNL     1      -8.731   4.855 129.656  0.00  0.00    +0.000 C 
BRANCH   9  10
ATOM     10  O   UNL     1      -8.634   4.915 128.221  0.00  0.00    +0.000 OA
ATOM     11  H   UNL     1      -8.254   4.073 127.925  0.00  0.00    +0.000 HD
ENDBRANCH   9  10
BRANCH   9  12
ATOM     12  C   UNL     1      -8.748   3.387 130.119  0.00  0.00    +0.000 C 
BRANCH  12  13
ATOM     13  N   UNL     1      -7.901   3.144 131.299  0.00  0.00    +0.000 NA
ATOM     14  H   UNL     1      -7.032   2.692 131.008  0.00  0.00    +0.000 HD
BRANCH  13  16
ATOM     15  C   UNL     1      -7.646   1.198 132.739  0.00  0.00    +0.000 C 
ATOM     16  C   UNL     1      -8.558   2.386 132.377  0.00  0.00    +0.000 C 
ATOM     17  C   UNL     1      -9.920   1.829 131.927  0.00  0.00    +0.000 C 
ATOM     18  C   UNL     1      -8.722   3.264 133.629  0.00  0.00    +0.000 C 
ENDBRANCH  13  16
ENDBRANCH  12  13
ENDBRANCH   9  12
ENDBRANCH   1   9
BRANCH   3  19
ATOM     19  C   UNL     1     -13.155   6.741 128.656  0.00  0.00    +0.000 C 
BRANCH  19  20
ATOM     20  O   UNL     1     -13.499   8.133 128.613  0.00  0.00    +0.000 OA
ATOM     21  H   UNL     1     -12.856   8.576 129.200  0.00  0.00    +0.000 HD
ENDBRANCH  19  20
ENDBRANCH   3  19
TORSDOF 8
ENDMDL
MODEL 7
REMARK VINA RESULT:      -5.4      8.219      9.954
REMARK  Name = Pirbuterol
REMARK  11 active torsions:
REMARK  status: ('A' for Active; 'I' for Inactive)
REMARK    1  A    between atoms: C_1  and  C_2
REMARK    2  A    between atoms: C_2  and  C_3
REMARK    3  A    between atoms: C_2  and  C_4
REMARK    4  A    between atoms: C_2  and  N_5
REMARK    5  A    between atoms: N_5  and  C_6
REMARK    6  A    between atoms: C_6  and  C_7
REMARK    7  A    between atoms: C_7  and  O_8
REMARK    8  A    between atoms: C_7  and  C_9
REMARK    9  A    between atoms: CA_11  and  C_12
REMARK   10  A    between atoms: C_12  and  O_13
REMARK   11  A    between atoms: C_14  and  O_15
REMARK                            x       y       z     vdW  Elec       q    Type
REMARK                         _______ _______ _______ _____ _____    ______ ____
ROOT
ATOM      1  C   UNL     1     -10.745   6.276 130.320  0.00  0.00    +0.000 A 
ATOM      2  N   UNL     1     -10.543   6.457 128.984  0.00  0.00    +0.000 NA
ATOM      3  CA  UNL     1     -11.471   7.165 128.277  0.00  0.00    +0.000 A 
ATOM      4  C   UNL     1     -12.610   7.693 128.888  0.00  0.00    +0.000 A 
ATOM      5  C   UNL     1     -12.783   7.539 130.253  0.00  0.00    +0.000 A 
ATOM      6  C   UNL     1     -11.831   6.846 130.981  0.00  0.00    +0.000 A 
ENDROOT
BRANCH   4   7
ATOM      7  O   UNL     1     -13.596   8.373 128.235  0.00  0.00    +0.000 OA
ATOM      8  H   UNL     1     -13.477   9.326 128.437  0.00  0.00    +0.000 HD
ENDBRANCH   4   7
BRANCH   1   9
ATOM      9  C   UNL     1      -9.712   5.464 131.094  0.00  0.00    +0.000 C 
BRANCH   9  10
ATOM     10  O   UNL     1     -10.322   4.684 132.139  0.00  0.00    +0.000 OA
ATOM     11  H   UNL     1     -11.080   4.224 131.746  0.00  0.00    +0.000 HD
ENDBRANCH   9  10
BRANCH   9  12
ATOM     12  C   UNL     1      -8.672   6.426 131.699  0.00  0.00    +0.000 C 
BRANCH  12  13
ATOM     13  N   UNL     1      -7.644   6.845 130.732  0.00  0.00    +0.000 NA
ATOM     14  H   UNL     1      -7.952   6.615 129.785  0.00  0.00    +0.000 HD
BRANCH  13  16
ATOM     15  C   UNL     1      -5.274   7.396 130.634  0.00  0.00    +0.000 C 
ATOM     16  C   UNL     1      -6.300   6.305 130.998  0.00  0.00    +0.000 C 
ATOM     17  C   UNL     1      -6.008   5.063 130.138  0.00  0.00    +0.000 C 
ATOM     18  C   UNL     1      -6.139   5.975 132.492  0.00  0.00    +0.000 C 
ENDBRANCH  13  16
ENDBRANCH  12  13
ENDBRANCH   9  12
ENDBRANCH   1   9
BRANCH   3  19
ATOM     19  C   UNL     1     -11.184   7.348 126.803  0.00  0.00    +0.000 C 
BRANCH  19  20
ATOM     20  O   UNL     1     -12.181   6.741 125.970  0.00  0.00    +0.000 OA
ATOM     21  H   UNL     1     -11.923   6.962 125.054  0.00  0.00    +0.000 HD
ENDBRANCH  19  20
ENDBRANCH   3  19
TORSDOF 8
ENDMDL
MODEL 8
REMARK VINA RESULT:      -5.4      1.309      2.247
REMARK  Name = Pirbuterol
REMARK  11 active torsions:
REMARK  status: ('A' for Active; 'I' for Inactive)
REMARK    1  A    between atoms: C_1  and  C_2
REMARK    2  A    between atoms: C_2  and  C_3
REMARK    3  A    between atoms: C_2  and  C_4
REMARK    4  A    between atoms: C_2  and  N_5
REMARK    5  A    between atoms: N_5  and  C_6
REMARK    6  A    between atoms: C_6  and  C_7
REMARK    7  A    between atoms: C_7  and  O_8
REMARK    8  A    between atoms: C_7  and  C_9
REMARK    9  A    between atoms: CA_11  and  C_12
REMARK   10  A    between atoms: C_12  and  O_13
REMARK   11  A    between atoms: C_14  and  O_15
REMARK                            x       y       z     vdW  Elec       q    Type
REMARK                         _______ _______ _______ _____ _____    ______ ____
ROOT
ATOM      1  C   UNL     1      -6.805   3.326 122.214  0.00  0.00    +0.000 A 
ATOM      2  N   UNL     1      -6.821   3.716 120.907  0.00  0.00    +0.000 NA
ATOM      3  CA  UNL     1      -5.877   4.605 120.484  0.00  0.00    +0.000 A 
ATOM      4  C   UNL     1      -4.914   5.119 121.354  0.00  0.00    +0.000 A 
ATOM      5  C   UNL     1      -4.881   4.682 122.668  0.00  0.00    +0.000 A 
ATOM      6  C   UNL     1      -5.820   3.760 123.096  0.00  0.00    +0.000 A 
ENDROOT
BRANCH   4   7
ATOM      7  O   UNL     1      -3.968   6.040 121.008  0.00  0.00    +0.000 OA
ATOM      8  H   UNL     1      -3.096   5.591 121.041  0.00  0.00    +0.000 HD
ENDBRANCH   4   7
BRANCH   1   9
ATOM      9  C   UNL     1      -7.881   2.349 122.679  0.00  0.00    +0.000 C 
BRANCH   9  10
ATOM     10  O   UNL     1      -8.886   3.004 123.474  0.00  0.00    +0.000 OA
ATOM     11  H   UNL     1      -8.805   3.957 123.309  0.00  0.00    +0.000 HD
ENDBRANCH   9  10
BRANCH   9  12
ATOM     12  C   UNL     1      -7.216   1.227 123.498  0.00  0.00    +0.000 C 
BRANCH  12  13
ATOM     13  N   UNL     1      -7.952  -0.046 123.435  0.00  0.00    +0.000 NA
ATOM     14  H   UNL     1      -8.782   0.009 124.028  0.00  0.00    +0.000 HD
BRANCH  13  16
ATOM     15  C   UNL     1      -8.104  -2.332 124.260  0.00  0.00    +0.000 C 
ATOM     16  C   UNL     1      -7.144  -1.234 123.761  0.00  0.00    +0.000 C 
ATOM     17  C   UNL     1      -6.128  -0.938 124.878  0.00  0.00    +0.000 C 
ATOM     18  C   UNL     1      -6.427  -1.758 122.505  0.00  0.00    +0.000 C 
ENDBRANCH  13  16
ENDBRANCH  12  13
ENDBRANCH   9  12
ENDBRANCH   1   9
BRANCH   3  19
ATOM     19  C   UNL     1      -5.933   4.987 119.021  0.00  0.00    +0.000 C 
BRANCH  19  20
ATOM     20  O   UNL     1      -5.506   6.337 118.789  0.00  0.00    +0.000 OA
ATOM     21  H   UNL     1      -6.310   6.817 118.511  0.00  0.00    +0.000 HD
ENDBRANCH  19  20
ENDBRANCH   3  19
TORSDOF 8
ENDMDL
MODEL 9
REMARK VINA RESULT:      -5.3      3.375      5.414
REMARK  Name = Pirbuterol
REMARK  11 active torsions:
REMARK  status: ('A' for Active; 'I' for Inactive)
REMARK    1  A    between atoms: C_1  and  C_2
REMARK    2  A    between atoms: C_2  and  C_3
REMARK    3  A    between atoms: C_2  and  C_4
REMARK    4  A    between atoms: C_2  and  N_5
REMARK    5  A    between atoms: N_5  and  C_6
REMARK    6  A    between atoms: C_6  and  C_7
REMARK    7  A    between atoms: C_7  and  O_8
REMARK    8  A    between atoms: C_7  and  C_9
REMARK    9  A    between atoms: CA_11  and  C_12
REMARK   10  A    between atoms: C_12  and  O_13
REMARK   11  A    between atoms: C_14  and  O_15
REMARK                            x       y       z     vdW  Elec       q    Type
REMARK                         _______ _______ _______ _____ _____    ______ ____
ROOT
ATOM      1  C   UNL     1      -8.474  -1.741 123.985  0.00  0.00    +0.000 A 
ATOM      2  N   UNL     1      -9.353  -0.701 124.064  0.00  0.00    +0.000 NA
ATOM      3  CA  UNL     1      -8.911   0.549 123.742  0.00  0.00    +0.000 A 
ATOM      4  C   UNL     1      -7.592   0.779 123.346  0.00  0.00    +0.000 A 
ATOM      5  C   UNL     1      -6.721  -0.291 123.228  0.00  0.00    +0.000 A 
ATOM      6  C   UNL     1      -7.171  -1.565 123.526  0.00  0.00    +0.000 A 
ENDROOT
BRANCH   4   7
ATOM      7  O   UNL     1      -7.074   2.006 123.050  0.00  0.00    +0.000 OA
ATOM      8  H   UNL     1      -7.695   2.679 123.401  0.00  0.00    +0.000 HD
ENDBRANCH   4   7
BRANCH   1   9
ATOM      9  C   UNL     1      -8.976  -3.129 124.369  0.00  0.00    +0.000 C 
BRANCH   9  10
ATOM     10  O   UNL     1     -10.166  -3.484 123.641  0.00  0.00    +0.000 OA
ATOM     11  H   UNL     1     -10.878  -2.905 123.957  0.00  0.00    +0.000 HD
ENDBRANCH   9  10
BRANCH   9  12
ATOM     12  C   UNL     1      -9.260  -3.156 125.882  0.00  0.00    +0.000 C 
BRANCH  12  13
ATOM     13  N   UNL     1      -8.738  -1.973 126.587  0.00  0.00    +0.000 NA
ATOM     14  H   UNL     1      -8.301  -1.340 125.914  0.00  0.00    +0.000 HD
BRANCH  13  16
ATOM     15  C   UNL     1      -6.411  -2.466 127.108  0.00  0.00    +0.000 C 
ATOM     16  C   UNL     1      -7.823  -2.280 127.699  0.00  0.00    +0.000 C 
ATOM     17  C   UNL     1      -8.220  -3.582 128.416  0.00  0.00    +0.000 C 
ATOM     18  C   UNL     1      -7.775  -1.109 128.695  0.00  0.00    +0.000 C 
ENDBRANCH  13  16
ENDBRANCH  12  13
ENDBRANCH   9  12
ENDBRANCH   1   9
BRANCH   3  19
ATOM     19  C   UNL     1      -9.935   1.659 123.831  0.00  0.00    +0.000 C 
BRANCH  19  20
ATOM     20  O   UNL     1      -9.513   2.728 124.689  0.00  0.00    +0.000 OA
ATOM     21  H   UNL     1      -9.981   2.581 125.534  0.00  0.00    +0.000 HD
ENDBRANCH  19  20
ENDBRANCH   3  19
TORSDOF 8
ENDMDL
