MODEL 1
REMARK VINA RESULT:      -6.9      0.000      0.000
REMARK  Name = Piretanide
REMARK  7 active torsions:
REMARK  status: ('A' for Active; 'I' for Inactive)
REMARK    1  A    between atoms: N_1  and  S_2
REMARK    2  A    between atoms: S_2  and  C_5
REMARK    3  A    between atoms: C_7  and  C_23
REMARK    4  A    between atoms: C_9  and  N_10
REMARK    5  A    between atoms: C_15  and  O_16
REMARK    6  A    between atoms: O_16  and  C_17
REMARK    7  A    between atoms: C_23  and  O_24
REMARK                            x       y       z     vdW  Elec       q    Type
REMARK                         _______ _______ _______ _____ _____    ______ ____
ROOT
ATOM      1  C   UNL     1      -7.251   2.848 123.750  0.00  0.00    +0.000 A 
ATOM      2  C   UNL     1      -6.770   3.525 122.615  0.00  0.00    +0.000 A 
ATOM      3  C   UNL     1      -5.570   4.226 122.642  0.00  0.00    +0.000 A 
ATOM      4  C   UNL     1      -4.903   4.373 123.867  0.00  0.00    +0.000 A 
ATOM      5  C   UNL     1      -5.316   3.693 125.034  0.00  0.00    +0.000 A 
ATOM      6  C   UNL     1      -6.512   2.884 124.968  0.00  0.00    +0.000 A 
ENDROOT
BRANCH   5   7
ATOM      7  N   UNL     1      -4.507   3.799 126.155  0.00  0.00    +0.000 N 
ATOM      8  C   UNL     1      -4.644   4.829 127.175  0.00  0.00    +0.000 C 
ATOM      9  C   UNL     1      -3.194   5.138 127.522  0.00  0.00    +0.000 C 
ATOM     10  C   UNL     1      -2.537   3.762 127.490  0.00  0.00    +0.000 C 
ATOM     11  C   UNL     1      -3.328   2.970 126.425  0.00  0.00    +0.000 C 
ENDBRANCH   5   7
BRANCH   1  12
ATOM     12  S   UNL     1      -8.674   1.838 123.407  0.00  0.00    +0.000 S 
ATOM     13  O   UNL     1      -8.377   0.438 123.605  0.00  0.00    +0.000 OA
ATOM     14  O   UNL     1      -9.363   2.403 122.273  0.00  0.00    +0.000 OA
BRANCH  12  15
ATOM     15  N   UNL     1      -9.813   2.029 124.627  0.00  0.00    +0.000 NA
ATOM     16  H   UNL     1      -9.208   2.382 125.386  0.00  0.00    +0.000 HD
ATOM     17  H   UNL     1     -10.188   1.133 124.920  0.00  0.00    +0.000 HD
ENDBRANCH  12  15
ENDBRANCH   1  12
BRANCH   3  18
ATOM     18  C   UNL     1      -4.910   4.744 121.402  0.00  0.00    +0.000 C 
ATOM     19  O   UNL     1      -5.078   4.217 120.314  0.00  0.00    +0.000 OA
BRANCH  18  20
ATOM     20  O   UNL     1      -4.167   5.864 121.525  0.00  0.00    +0.000 OA
ATOM     21  H   UNL     1      -3.871   6.160 122.398  0.00  0.00    +0.000 HD
ENDBRANCH  18  20
ENDBRANCH   3  18
BRANCH   6  22
ATOM     22  O   UNL     1      -6.819   2.288 126.190  0.00  0.00    +0.000 OA
BRANCH  22  23
ATOM     23  C   UNL     1      -6.696   0.943 126.420  0.00  0.00    +0.000 A 
ATOM     24  C   UNL     1      -7.720   0.299 127.125  0.00  0.00    +0.000 A 
ATOM     25  C   UNL     1      -7.693  -1.092 127.286  0.00  0.00    +0.000 A 
ATOM     26  C   UNL     1      -6.705  -1.846 126.652  0.00  0.00    +0.000 A 
ATOM     27  C   UNL     1      -5.671  -1.201 125.975  0.00  0.00    +0.000 A 
ATOM     28  C   UNL     1      -5.613   0.201 125.943  0.00  0.00    +0.000 A 
ENDBRANCH  22  23
ENDBRANCH   6  22
TORSDOF 7
ENDMDL
MODEL 2
REMARK VINA RESULT:      -6.8      2.988      6.439
REMARK  Name = Piretanide
REMARK  7 active torsions:
REMARK  status: ('A' for Active; 'I' for Inactive)
REMARK    1  A    between atoms: N_1  and  S_2
REMARK    2  A    between atoms: S_2  and  C_5
REMARK    3  A    between atoms: C_7  and  C_23
REMARK    4  A    between atoms: C_9  and  N_10
REMARK    5  A    between atoms: C_15  and  O_16
REMARK    6  A    between atoms: O_16  and  C_17
REMARK    7  A    between atoms: C_23  and  O_24
REMARK                            x       y       z     vdW  Elec       q    Type
REMARK                         _______ _______ _______ _____ _____    ______ ____
ROOT
ATOM      1  C   UNL     1      -7.536   2.700 126.328  0.00  0.00    +0.000 A 
ATOM      2  C   UNL     1      -6.859   2.093 127.402  0.00  0.00    +0.000 A 
ATOM      3  C   UNL     1      -6.479   0.756 127.358  0.00  0.00    +0.000 A 
ATOM      4  C   UNL     1      -6.906  -0.031 126.278  0.00  0.00    +0.000 A 
ATOM      5  C   UNL     1      -7.559   0.524 125.156  0.00  0.00    +0.000 A 
ATOM      6  C   UNL     1      -7.861   1.938 125.168  0.00  0.00    +0.000 A 
ENDROOT
BRANCH   5   7
ATOM      7  N   UNL     1      -7.814  -0.318 124.085  0.00  0.00    +0.000 N 
ATOM      8  C   UNL     1      -9.116  -0.896 123.783  0.00  0.00    +0.000 C 
ATOM      9  C   UNL     1      -8.749  -2.296 123.307  0.00  0.00    +0.000 C 
ATOM     10  C   UNL     1      -7.484  -2.054 122.490  0.00  0.00    +0.000 C 
ATOM     11  C   UNL     1      -6.799  -0.847 123.167  0.00  0.00    +0.000 C 
ENDBRANCH   5   7
BRANCH   1  12
ATOM     12  S   UNL     1      -7.706   4.459 126.518  0.00  0.00    +0.000 S 
ATOM     13  O   UNL     1      -6.594   5.156 125.913  0.00  0.00    +0.000 OA
ATOM     14  O   UNL     1      -8.256   4.719 127.825  0.00  0.00    +0.000 OA
BRANCH  12  15
ATOM     15  N   UNL     1      -8.931   5.022 125.516  0.00  0.00    +0.000 NA
ATOM     16  H   UNL     1      -9.511   5.528 126.206  0.00  0.00    +0.000 HD
ATOM     17  H   UNL     1      -9.484   4.256 125.147  0.00  0.00    +0.000 HD
ENDBRANCH  12  15
ENDBRANCH   1  12
BRANCH   3  18
ATOM     18  C   UNL     1      -5.551   0.148 128.363  0.00  0.00    +0.000 C 
ATOM     19  O   UNL     1      -5.818  -0.895 128.939  0.00  0.00    +0.000 OA
BRANCH  18  20
ATOM     20  O   UNL     1      -4.370   0.770 128.562  0.00  0.00    +0.000 OA
ATOM     21  H   UNL     1      -4.340   1.730 128.688  0.00  0.00    +0.000 HD
ENDBRANCH  18  20
ENDBRANCH   3  18
BRANCH   6  22
ATOM     22  O   UNL     1      -8.524   2.350 124.013  0.00  0.00    +0.000 OA
BRANCH  22  23
ATOM     23  C   UNL     1      -7.872   2.803 122.897  0.00  0.00    +0.000 A 
ATOM     24  C   UNL     1      -8.645   3.180 121.791  0.00  0.00    +0.000 A 
ATOM     25  C   UNL     1      -8.032   3.753 120.670  0.00  0.00    +0.000 A 
ATOM     26  C   UNL     1      -6.668   4.048 120.698  0.00  0.00    +0.000 A 
ATOM     27  C   UNL     1      -5.896   3.646 121.787  0.00  0.00    +0.000 A 
ATOM     28  C   UNL     1      -6.483   2.934 122.845  0.00  0.00    +0.000 A 
ENDBRANCH  22  23
ENDBRANCH   6  22
TORSDOF 7
ENDMDL
MODEL 3
REMARK VINA RESULT:      -6.8      2.710      4.632
REMARK  Name = Piretanide
REMARK  7 active torsions:
REMARK  status: ('A' for Active; 'I' for Inactive)
REMARK    1  A    between atoms: N_1  and  S_2
REMARK    2  A    between atoms: S_2  and  C_5
REMARK    3  A    between atoms: C_7  and  C_23
REMARK    4  A    between atoms: C_9  and  N_10
REMARK    5  A    between atoms: C_15  and  O_16
REMARK    6  A    between atoms: O_16  and  C_17
REMARK    7  A    between atoms: C_23  and  O_24
REMARK                            x       y       z     vdW  Elec       q    Type
REMARK                         _______ _______ _______ _____ _____    ______ ____
ROOT
ATOM      1  C   UNL     1      -5.826   2.819 125.168  0.00  0.00    +0.000 A 
ATOM      2  C   UNL     1      -4.616   3.371 125.628  0.00  0.00    +0.000 A 
ATOM      3  C   UNL     1      -3.917   2.806 126.689  0.00  0.00    +0.000 A 
ATOM      4  C   UNL     1      -4.508   1.750 127.399  0.00  0.00    +0.000 A 
ATOM      5  C   UNL     1      -5.703   1.131 126.970  0.00  0.00    +0.000 A 
ATOM      6  C   UNL     1      -6.369   1.664 125.802  0.00  0.00    +0.000 A 
ENDROOT
BRANCH   5   7
ATOM      7  N   UNL     1      -6.126   0.009 127.664  0.00  0.00    +0.000 N 
ATOM      8  C   UNL     1      -5.549  -1.320 127.512  0.00  0.00    +0.000 C 
ATOM      9  C   UNL     1      -6.774  -2.219 127.607  0.00  0.00    +0.000 C 
ATOM     10  C   UNL     1      -7.606  -1.546 128.693  0.00  0.00    +0.000 C 
ATOM     11  C   UNL     1      -7.284  -0.041 128.563  0.00  0.00    +0.000 C 
ENDBRANCH   5   7
BRANCH   1  12
ATOM     12  S   UNL     1      -6.405   3.569 123.664  0.00  0.00    +0.000 S 
ATOM     13  O   UNL     1      -6.441   2.609 122.585  0.00  0.00    +0.000 OA
ATOM     14  O   UNL     1      -5.865   4.904 123.590  0.00  0.00    +0.000 OA
BRANCH  12  15
ATOM     15  N   UNL     1      -8.053   3.877 123.782  0.00  0.00    +0.000 NA
ATOM     16  H   UNL     1      -8.041   4.909 123.833  0.00  0.00    +0.000 HD
ATOM     17  H   UNL     1      -8.428   3.526 124.657  0.00  0.00    +0.000 HD
ENDBRANCH  12  15
ENDBRANCH   1  12
BRANCH   3  18
ATOM     18  C   UNL     1      -2.521   3.212 127.042  0.00  0.00    +0.000 C 
ATOM     19  O   UNL     1      -2.290   4.177 127.754  0.00  0.00    +0.000 OA
BRANCH  18  20
ATOM     20  O   UNL     1      -1.521   2.425 126.592  0.00  0.00    +0.000 OA
ATOM     21  H   UNL     1      -1.313   2.394 125.647  0.00  0.00    +0.000 HD
ENDBRANCH  18  20
ENDBRANCH   3  18
BRANCH   6  22
ATOM     22  O   UNL     1      -7.544   0.977 125.501  0.00  0.00    +0.000 OA
BRANCH  22  23
ATOM     23  C   UNL     1      -7.579  -0.126 124.691  0.00  0.00    +0.000 A 
ATOM     24  C   UNL     1      -8.764  -0.872 124.646  0.00  0.00    +0.000 A 
ATOM     25  C   UNL     1      -8.886  -1.941 123.749  0.00  0.00    +0.000 A 
ATOM     26  C   UNL     1      -7.871  -2.194 122.827  0.00  0.00    +0.000 A 
ATOM     27  C   UNL     1      -6.681  -1.469 122.892  0.00  0.00    +0.000 A 
ATOM     28  C   UNL     1      -6.499  -0.500 123.890  0.00  0.00    +0.000 A 
ENDBRANCH  22  23
ENDBRANCH   6  22
TORSDOF 7
ENDMDL
MODEL 4
REMARK VINA RESULT:      -6.6      2.904      5.271
REMARK  Name = Piretanide
REMARK  7 active torsions:
REMARK  status: ('A' for Active; 'I' for Inactive)
REMARK    1  A    between atoms: N_1  and  S_2
REMARK    2  A    between atoms: S_2  and  C_5
REMARK    3  A    between atoms: C_7  and  C_23
REMARK    4  A    between atoms: C_9  and  N_10
REMARK    5  A    between atoms: C_15  and  O_16
REMARK    6  A    between atoms: O_16  and  C_17
REMARK    7  A    between atoms: C_23  and  O_24
REMARK                            x       y       z     vdW  Elec       q    Type
REMARK                         _______ _______ _______ _____ _____    ______ ____
ROOT
ATOM      1  C   UNL     1      -7.944   3.015 125.776  0.00  0.00    +0.000 A 
ATOM      2  C   UNL     1      -8.841   2.745 124.726  0.00  0.00    +0.000 A 
ATOM      3  C   UNL     1      -9.160   1.442 124.360  0.00  0.00    +0.000 A 
ATOM      4  C   UNL     1      -8.463   0.383 124.962  0.00  0.00    +0.000 A 
ATOM      5  C   UNL     1      -7.575   0.585 126.041  0.00  0.00    +0.000 A 
ATOM      6  C   UNL     1      -7.327   1.941 126.481  0.00  0.00    +0.000 A 
ENDROOT
BRANCH   5   7
ATOM      7  N   UNL     1      -7.045  -0.541 126.652  0.00  0.00    +0.000 N 
ATOM      8  C   UNL     1      -7.643  -1.217 127.795  0.00  0.00    +0.000 C 
ATOM      9  C   UNL     1      -6.423  -1.614 128.614  0.00  0.00    +0.000 C 
ATOM     10  C   UNL     1      -5.419  -2.032 127.545  0.00  0.00    +0.000 C 
ATOM     11  C   UNL     1      -5.753  -1.151 126.321  0.00  0.00    +0.000 C 
ENDBRANCH   5   7
BRANCH   1  12
ATOM     12  S   UNL     1      -7.876   4.738 126.207  0.00  0.00    +0.000 S 
ATOM     13  O   UNL     1      -9.129   5.396 125.914  0.00  0.00    +0.000 OA
ATOM     14  O   UNL     1      -6.564   5.234 125.874  0.00  0.00    +0.000 OA
BRANCH  12  15
ATOM     15  N   UNL     1      -7.889   4.906 127.878  0.00  0.00    +0.000 NA
ATOM     16  H   UNL     1      -7.245   5.707 127.985  0.00  0.00    +0.000 HD
ATOM     17  H   UNL     1      -7.464   4.103 128.330  0.00  0.00    +0.000 HD
ENDBRANCH  12  15
ENDBRANCH   1  12
BRANCH   3  18
ATOM     18  C   UNL     1     -10.284   1.118 123.427  0.00  0.00    +0.000 C 
ATOM     19  O   UNL     1     -10.087   0.624 122.328  0.00  0.00    +0.000 OA
BRANCH  18  20
ATOM     20  O   UNL     1     -11.537   1.336 123.877  0.00  0.00    +0.000 OA
ATOM     21  H   UNL     1     -11.987   0.664 124.411  0.00  0.00    +0.000 HD
ENDBRANCH  18  20
ENDBRANCH   3  18
BRANCH   6  22
ATOM     22  O   UNL     1      -6.418   2.000 127.535  0.00  0.00    +0.000 OA
BRANCH  22  23
ATOM     23  C   UNL     1      -5.169   2.550 127.417  0.00  0.00    +0.000 A 
ATOM     24  C   UNL     1      -4.682   3.312 128.487  0.00  0.00    +0.000 A 
ATOM     25  C   UNL     1      -3.370   3.800 128.459  0.00  0.00    +0.000 A 
ATOM     26  C   UNL     1      -2.514   3.437 127.419  0.00  0.00    +0.000 A 
ATOM     27  C   UNL     1      -3.010   2.702 126.342  0.00  0.00    +0.000 A 
ATOM     28  C   UNL     1      -4.365   2.343 126.295  0.00  0.00    +0.000 A 
ENDBRANCH  22  23
ENDBRANCH   6  22
TORSDOF 7
ENDMDL
MODEL 5
REMARK VINA RESULT:      -6.6      2.665      4.520
REMARK  Name = Piretanide
REMARK  7 active torsions:
REMARK  status: ('A' for Active; 'I' for Inactive)
REMARK    1  A    between atoms: N_1  and  S_2
REMARK    2  A    between atoms: S_2  and  C_5
REMARK    3  A    between atoms: C_7  and  C_23
REMARK    4  A    between atoms: C_9  and  N_10
REMARK    5  A    between atoms: C_15  and  O_16
REMARK    6  A    between atoms: O_16  and  C_17
REMARK    7  A    between atoms: C_23  and  O_24
REMARK                            x       y       z     vdW  Elec       q    Type
REMARK                         _______ _______ _______ _____ _____    ______ ____
ROOT
ATOM      1  C   UNL     1      -7.201   2.293 125.759  0.00  0.00    +0.000 A 
ATOM      2  C   UNL     1      -6.000   3.015 125.888  0.00  0.00    +0.000 A 
ATOM      3  C   UNL     1      -4.916   2.502 126.592  0.00  0.00    +0.000 A 
ATOM      4  C   UNL     1      -5.080   1.303 127.301  0.00  0.00    +0.000 A 
ATOM      5  C   UNL     1      -6.247   0.516 127.188  0.00  0.00    +0.000 A 
ATOM      6  C   UNL     1      -7.332   1.012 126.370  0.00  0.00    +0.000 A 
ENDROOT
BRANCH   5   7
ATOM      7  N   UNL     1      -6.250  -0.717 127.822  0.00  0.00    +0.000 N 
ATOM      8  C   UNL     1      -6.915  -0.990 129.088  0.00  0.00    +0.000 C 
ATOM      9  C   UNL     1      -5.936  -1.932 129.774  0.00  0.00    +0.000 C 
ATOM     10  C   UNL     1      -5.448  -2.809 128.626  0.00  0.00    +0.000 C 
ATOM     11  C   UNL     1      -5.493  -1.894 127.382  0.00  0.00    +0.000 C 
ENDBRANCH   5   7
BRANCH   1  12
ATOM     12  S   UNL     1      -8.347   3.045 124.628  0.00  0.00    +0.000 S 
ATOM     13  O   UNL     1      -7.967   2.790 123.257  0.00  0.00    +0.000 OA
ATOM     14  O   UNL     1      -8.743   4.320 125.170  0.00  0.00    +0.000 OA
BRANCH  12  15
ATOM     15  N   UNL     1      -9.800   2.202 124.647  0.00  0.00    +0.000 NA
ATOM     16  H   UNL     1     -10.431   2.937 125.004  0.00  0.00    +0.000 HD
ATOM     17  H   UNL     1      -9.778   1.452 125.329  0.00  0.00    +0.000 HD
ENDBRANCH  12  15
ENDBRANCH   1  12
BRANCH   3  18
ATOM     18  C   UNL     1      -3.555   3.123 126.541  0.00  0.00    +0.000 C 
ATOM     19  O   UNL     1      -3.395   4.332 126.607  0.00  0.00    +0.000 OA
BRANCH  18  20
ATOM     20  O   UNL     1      -2.500   2.284 126.484  0.00  0.00    +0.000 OA
ATOM     21  H   UNL     1      -1.776   2.367 127.122  0.00  0.00    +0.000 HD
ENDBRANCH  18  20
ENDBRANCH   3  18
BRANCH   6  22
ATOM     22  O   UNL     1      -8.428   0.151 126.362  0.00  0.00    +0.000 OA
BRANCH  22  23
ATOM     23  C   UNL     1      -8.505  -0.956 125.559  0.00  0.00    +0.000 A 
ATOM     24  C   UNL     1      -7.980  -0.866 124.263  0.00  0.00    +0.000 A 
ATOM     25  C   UNL     1      -7.934  -2.002 123.446  0.00  0.00    +0.000 A 
ATOM     26  C   UNL     1      -8.310  -3.244 123.959  0.00  0.00    +0.000 A 
ATOM     27  C   UNL     1      -8.858  -3.325 125.238  0.00  0.00    +0.000 A 
ATOM     28  C   UNL     1      -9.046  -2.163 126.002  0.00  0.00    +0.000 A 
ENDBRANCH  22  23
ENDBRANCH   6  22
TORSDOF 7
ENDMDL
MODEL 6
REMARK VINA RESULT:      -6.5      4.014      6.032
REMARK  Name = Piretanide
REMARK  7 active torsions:
REMARK  status: ('A' for Active; 'I' for Inactive)
REMARK    1  A    between atoms: N_1  and  S_2
REMARK    2  A    between atoms: S_2  and  C_5
REMARK    3  A    between atoms: C_7  and  C_23
REMARK    4  A    between atoms: C_9  and  N_10
REMARK    5  A    between atoms: C_15  and  O_16
REMARK    6  A    between atoms: O_16  and  C_17
REMARK    7  A    between atoms: C_23  and  O_24
REMARK                            x       y       z     vdW  Elec       q    Type
REMARK                         _______ _______ _______ _____ _____    ______ ____
ROOT
ATOM      1  C   UNL     1      -8.155   1.031 126.376  0.00  0.00    +0.000 A 
ATOM      2  C   UNL     1      -8.646   1.822 127.430  0.00  0.00    +0.000 A 
ATOM      3  C   UNL     1      -8.407   1.491 128.760  0.00  0.00    +0.000 A 
ATOM      4  C   UNL     1      -7.784   0.268 129.047  0.00  0.00    +0.000 A 
ATOM      5  C   UNL     1      -7.240  -0.555 128.037  0.00  0.00    +0.000 A 
ATOM      6  C   UNL     1      -7.407  -0.149 126.659  0.00  0.00    +0.000 A 
ENDROOT
BRANCH   5   7
ATOM      7  N   UNL     1      -6.525  -1.672 128.439  0.00  0.00    +0.000 N 
ATOM      8  C   UNL     1      -7.126  -2.947 128.806  0.00  0.00    +0.000 C 
ATOM      9  C   UNL     1      -6.253  -3.396 129.969  0.00  0.00    +0.000 C 
ATOM     10  C   UNL     1      -4.855  -2.974 129.527  0.00  0.00    +0.000 C 
ATOM     11  C   UNL     1      -5.077  -1.709 128.668  0.00  0.00    +0.000 C 
ENDBRANCH   5   7
BRANCH   1  12
ATOM     12  S   UNL     1      -8.386   1.778 124.780  0.00  0.00    +0.000 S 
ATOM     13  O   UNL     1      -9.493   1.169 124.078  0.00  0.00    +0.000 OA
ATOM     14  O   UNL     1      -7.087   2.061 124.223  0.00  0.00    +0.000 OA
BRANCH  12  15
ATOM     15  N   UNL     1      -9.022   3.321 124.962  0.00  0.00    +0.000 NA
ATOM     16  H   UNL     1      -9.783   3.288 124.263  0.00  0.00    +0.000 HD
ATOM     17  H   UNL     1      -8.358   4.028 124.664  0.00  0.00    +0.000 HD
ENDBRANCH  12  15
ENDBRANCH   1  12
BRANCH   3  18
ATOM     18  C   UNL     1      -8.696   2.429 129.889  0.00  0.00    +0.000 C 
ATOM     19  O   UNL     1      -8.013   2.450 130.901  0.00  0.00    +0.000 OA
BRANCH  18  20
ATOM     20  O   UNL     1      -9.711   3.302 129.718  0.00  0.00    +0.000 OA
ATOM     21  H   UNL     1     -10.628   2.991 129.722  0.00  0.00    +0.000 HD
ENDBRANCH  18  20
ENDBRANCH   3  18
BRANCH   6  22
ATOM     22  O   UNL     1      -6.844  -1.058 125.765  0.00  0.00    +0.000 OA
BRANCH  22  23
ATOM     23  C   UNL     1      -7.587  -1.799 124.884  0.00  0.00    +0.000 A 
ATOM     24  C   UNL     1      -8.541  -2.681 125.408  0.00  0.00    +0.000 A 
ATOM     25  C   UNL     1      -9.400  -3.375 124.547  0.00  0.00    +0.000 A 
ATOM     26  C   UNL     1      -9.379  -3.108 123.178  0.00  0.00    +0.000 A 
ATOM     27  C   UNL     1      -8.410  -2.251 122.657  0.00  0.00    +0.000 A 
ATOM     28  C   UNL     1      -7.450  -1.672 123.501  0.00  0.00    +0.000 A 
ENDBRANCH  22  23
ENDBRANCH   6  22
TORSDOF 7
ENDMDL
MODEL 7
REMARK VINA RESULT:      -6.5      3.329      5.508
REMARK  Name = Piretanide
REMARK  7 active torsions:
REMARK  status: ('A' for Active; 'I' for Inactive)
REMARK    1  A    between atoms: N_1  and  S_2
REMARK    2  A    between atoms: S_2  and  C_5
REMARK    3  A    between atoms: C_7  and  C_23
REMARK    4  A    between atoms: C_9  and  N_10
REMARK    5  A    between atoms: C_15  and  O_16
REMARK    6  A    between atoms: O_16  and  C_17
REMARK    7  A    between atoms: C_23  and  O_24
REMARK                            x       y       z     vdW  Elec       q    Type
REMARK                         _______ _______ _______ _____ _____    ______ ____
ROOT
ATOM      1  C   UNL     1      -6.101   1.409 126.947  0.00  0.00    +0.000 A 
ATOM      2  C   UNL     1      -6.788   2.420 126.250  0.00  0.00    +0.000 A 
ATOM      3  C   UNL     1      -7.418   2.167 125.036  0.00  0.00    +0.000 A 
ATOM      4  C   UNL     1      -7.243   0.911 124.436  0.00  0.00    +0.000 A 
ATOM      5  C   UNL     1      -6.593  -0.154 125.097  0.00  0.00    +0.000 A 
ATOM      6  C   UNL     1      -6.027   0.093 126.404  0.00  0.00    +0.000 A 
ENDROOT
BRANCH   5   7
ATOM      7  N   UNL     1      -6.596  -1.391 124.470  0.00  0.00    +0.000 N 
ATOM      8  C   UNL     1      -7.789  -2.188 124.225  0.00  0.00    +0.000 C 
ATOM      9  C   UNL     1      -7.292  -3.605 124.476  0.00  0.00    +0.000 C 
ATOM     10  C   UNL     1      -5.892  -3.585 123.871  0.00  0.00    +0.000 C 
ATOM     11  C   UNL     1      -5.397  -2.134 124.066  0.00  0.00    +0.000 C 
ENDBRANCH   5   7
BRANCH   1  12
ATOM     12  S   UNL     1      -5.583   1.913 128.571  0.00  0.00    +0.000 S 
ATOM     13  O   UNL     1      -6.407   1.305 129.590  0.00  0.00    +0.000 OA
ATOM     14  O   UNL     1      -5.201   3.302 128.511  0.00  0.00    +0.000 OA
BRANCH  12  15
ATOM     15  N   UNL     1      -4.123   1.176 128.955  0.00  0.00    +0.000 NA
ATOM     16  H   UNL     1      -4.467   0.360 129.487  0.00  0.00    +0.000 HD
ATOM     17  H   UNL     1      -3.578   1.752 129.587  0.00  0.00    +0.000 HD
ENDBRANCH  12  15
ENDBRANCH   1  12
BRANCH   3  18
ATOM     18  C   UNL     1      -8.357   3.141 124.396  0.00  0.00    +0.000 C 
ATOM     19  O   UNL     1      -8.580   3.127 123.196  0.00  0.00    +0.000 OA
BRANCH  18  20
ATOM     20  O   UNL     1      -9.000   4.001 125.213  0.00  0.00    +0.000 OA
ATOM     21  H   UNL     1      -8.502   4.675 125.700  0.00  0.00    +0.000 HD
ENDBRANCH  18  20
ENDBRANCH   3  18
BRANCH   6  22
ATOM     22  O   UNL     1      -5.398  -1.032 126.933  0.00  0.00    +0.000 OA
BRANCH  22  23
ATOM     23  C   UNL     1      -5.943  -1.794 127.932  0.00  0.00    +0.000 A 
ATOM     24  C   UNL     1      -7.334  -1.963 127.947  0.00  0.00    +0.000 A 
ATOM     25  C   UNL     1      -7.925  -2.823 128.881  0.00  0.00    +0.000 A 
ATOM     26  C   UNL     1      -7.123  -3.594 129.723  0.00  0.00    +0.000 A 
ATOM     27  C   UNL     1      -5.741  -3.403 129.725  0.00  0.00    +0.000 A 
ATOM     28  C   UNL     1      -5.161  -2.430 128.897  0.00  0.00    +0.000 A 
ENDBRANCH  22  23
ENDBRANCH   6  22
TORSDOF 7
ENDMDL
MODEL 8
REMARK VINA RESULT:      -6.4      2.891      4.921
REMARK  Name = Piretanide
REMARK  7 active torsions:
REMARK  status: ('A' for Active; 'I' for Inactive)
REMARK    1  A    between atoms: N_1  and  S_2
REMARK    2  A    between atoms: S_2  and  C_5
REMARK    3  A    between atoms: C_7  and  C_23
REMARK    4  A    between atoms: C_9  and  N_10
REMARK    5  A    between atoms: C_15  and  O_16
REMARK    6  A    between atoms: O_16  and  C_17
REMARK    7  A    between atoms: C_23  and  O_24
REMARK                            x       y       z     vdW  Elec       q    Type
REMARK                         _______ _______ _______ _____ _____    ______ ____
ROOT
ATOM      1  C   UNL     1      -7.344   1.967 126.316  0.00  0.00    +0.000 A 
ATOM      2  C   UNL     1      -6.864   2.825 125.311  0.00  0.00    +0.000 A 
ATOM      3  C   UNL     1      -6.703   2.390 124.000  0.00  0.00    +0.000 A 
ATOM      4  C   UNL     1      -6.892   1.030 123.713  0.00  0.00    +0.000 A 
ATOM      5  C   UNL     1      -7.403   0.125 124.669  0.00  0.00    +0.000 A 
ATOM      6  C   UNL     1      -7.663   0.613 126.005  0.00  0.00    +0.000 A 
ENDROOT
BRANCH   5   7
ATOM      7  N   UNL     1      -7.682  -1.164 124.242  0.00  0.00    +0.000 N 
ATOM      8  C   UNL     1      -8.975  -1.603 123.735  0.00  0.00    +0.000 C 
ATOM      9  C   UNL     1      -9.094  -3.005 124.316  0.00  0.00    +0.000 C 
ATOM     10  C   UNL     1      -7.673  -3.544 124.194  0.00  0.00    +0.000 C 
ATOM     11  C   UNL     1      -6.765  -2.304 124.345  0.00  0.00    +0.000 C 
ENDBRANCH   5   7
BRANCH   1  12
ATOM     12  S   UNL     1      -7.683   2.807 127.845  0.00  0.00    +0.000 S 
ATOM     13  O   UNL     1      -8.231   4.123 127.604  0.00  0.00    +0.000 OA
ATOM     14  O   UNL     1      -6.630   2.490 128.777  0.00  0.00    +0.000 OA
BRANCH  12  15
ATOM     15  N   UNL     1      -9.018   2.112 128.591  0.00  0.00    +0.000 NA
ATOM     16  H   UNL     1      -8.547   1.564 129.331  0.00  0.00    +0.000 HD
ATOM     17  H   UNL     1      -9.485   1.459 127.971  0.00  0.00    +0.000 HD
ENDBRANCH  12  15
ENDBRANCH   1  12
BRANCH   3  18
ATOM     18  C   UNL     1      -6.435   3.329 122.865  0.00  0.00    +0.000 C 
ATOM     19  O   UNL     1      -6.614   3.003 121.702  0.00  0.00    +0.000 OA
BRANCH  18  20
ATOM     20  O   UNL     1      -6.045   4.581 123.184  0.00  0.00    +0.000 OA
ATOM     21  H   UNL     1      -5.103   4.790 123.273  0.00  0.00    +0.000 HD
ENDBRANCH  18  20
ENDBRANCH   3  18
BRANCH   6  22
ATOM     22  O   UNL     1      -8.143  -0.385 126.852  0.00  0.00    +0.000 OA
BRANCH  22  23
ATOM     23  C   UNL     1      -7.331  -1.128 127.667  0.00  0.00    +0.000 A 
ATOM     24  C   UNL     1      -7.918  -2.152 128.423  0.00  0.00    +0.000 A 
ATOM     25  C   UNL     1      -7.114  -3.010 129.184  0.00  0.00    +0.000 A 
ATOM     26  C   UNL     1      -5.724  -2.914 129.104  0.00  0.00    +0.000 A 
ATOM     27  C   UNL     1      -5.144  -1.877 128.374  0.00  0.00    +0.000 A 
ATOM     28  C   UNL     1      -5.952  -0.924 127.735  0.00  0.00    +0.000 A 
ENDBRANCH  22  23
ENDBRANCH   6  22
TORSDOF 7
ENDMDL
MODEL 9
REMARK VINA RESULT:      -6.3      3.024      4.246
REMARK  Name = Piretanide
REMARK  7 active torsions:
REMARK  status: ('A' for Active; 'I' for Inactive)
REMARK    1  A    between atoms: N_1  and  S_2
REMARK    2  A    between atoms: S_2  and  C_5
REMARK    3  A    between atoms: C_7  and  C_23
REMARK    4  A    between atoms: C_9  and  N_10
REMARK    5  A    between atoms: C_15  and  O_16
REMARK    6  A    between atoms: O_16  and  C_17
REMARK    7  A    between atoms: C_23  and  O_24
REMARK                            x       y       z     vdW  Elec       q    Type
REMARK                         _______ _______ _______ _____ _____    ______ ____
ROOT
ATOM      1  C   UNL     1      -6.905  -0.746 124.461  0.00  0.00    +0.000 A 
ATOM      2  C   UNL     1      -7.644   0.205 123.734  0.00  0.00    +0.000 A 
ATOM      3  C   UNL     1      -7.882   1.480 124.237  0.00  0.00    +0.000 A 
ATOM      4  C   UNL     1      -7.494   1.767 125.554  0.00  0.00    +0.000 A 
ATOM      5  C   UNL     1      -6.723   0.869 126.324  0.00  0.00    +0.000 A 
ATOM      6  C   UNL     1      -6.394  -0.417 125.751  0.00  0.00    +0.000 A 
ENDROOT
BRANCH   5   7
ATOM      7  N   UNL     1      -6.277   1.308 127.561  0.00  0.00    +0.000 N 
ATOM      8  C   UNL     1      -4.938   1.819 127.820  0.00  0.00    +0.000 C 
ATOM      9  C   UNL     1      -4.634   1.252 129.200  0.00  0.00    +0.000 C 
ATOM     10  C   UNL     1      -5.972   1.380 129.920  0.00  0.00    +0.000 C 
ATOM     11  C   UNL     1      -7.036   1.218 128.812  0.00  0.00    +0.000 C 
ENDBRANCH   5   7
BRANCH   1  12
ATOM     12  S   UNL     1      -6.537  -2.208 123.521  0.00  0.00    +0.000 S 
ATOM     13  O   UNL     1      -6.145  -1.872 122.171  0.00  0.00    +0.000 OA
ATOM     14  O   UNL     1      -7.478  -3.234 123.896  0.00  0.00    +0.000 OA
BRANCH  12  15
ATOM     15  N   UNL     1      -5.085  -2.871 124.046  0.00  0.00    +0.000 NA
ATOM     16  H   UNL     1      -4.603  -2.993 123.140  0.00  0.00    +0.000 HD
ATOM     17  H   UNL     1      -5.228  -3.791 124.448  0.00  0.00    +0.000 HD
ENDBRANCH  12  15
ENDBRANCH   1  12
BRANCH   3  18
ATOM     18  C   UNL     1      -8.443   2.585 123.399  0.00  0.00    +0.000 C 
ATOM     19  O   UNL     1      -9.178   2.365 122.450  0.00  0.00    +0.000 OA
BRANCH  18  20
ATOM     20  O   UNL     1      -8.154   3.848 123.776  0.00  0.00    +0.000 OA
ATOM     21  H   UNL     1      -7.874   4.502 123.118  0.00  0.00    +0.000 HD
ENDBRANCH  18  20
ENDBRANCH   3  18
BRANCH   6  22
ATOM     22  O   UNL     1      -5.650  -1.212 126.621  0.00  0.00    +0.000 OA
BRANCH  22  23
ATOM     23  C   UNL     1      -6.221  -2.065 127.529  0.00  0.00    +0.000 A 
ATOM     24  C   UNL     1      -5.465  -2.436 128.648  0.00  0.00    +0.000 A 
ATOM     25  C   UNL     1      -6.044  -3.214 129.658  0.00  0.00    +0.000 A 
ATOM     26  C   UNL     1      -7.403  -3.527 129.602  0.00  0.00    +0.000 A 
ATOM     27  C   UNL     1      -8.146  -3.181 128.474  0.00  0.00    +0.000 A 
ATOM     28  C   UNL     1      -7.528  -2.534 127.392  0.00  0.00    +0.000 A 
ENDBRANCH  22  23
ENDBRANCH   6  22
TORSDOF 7
ENDMDL
