MODEL 1
REMARK VINA RESULT:      -8.0      0.000      0.000
REMARK  Name = Pirenzepine
REMARK  3 active torsions:
REMARK  status: ('A' for Active; 'I' for Inactive)
REMARK    1  A    between atoms: C_1  and  N_2
REMARK    2  A    between atoms: N_5  and  C_6
REMARK    3  A    between atoms: C_6  and  C_7
REMARK                            x       y       z     vdW  Elec       q    Type
REMARK                         _______ _______ _______ _____ _____    ______ ____
ROOT
ATOM      1  C   UNL     1      -6.212   4.481 125.654  0.00  0.00    +0.000 C 
ATOM      2  O   UNL     1      -6.978   5.394 125.324  0.00  0.00    +0.000 OA
ATOM      3  N   UNL     1      -5.898   3.469 124.741  0.00  0.00    +0.000 N 
ATOM      4  C   UNL     1      -5.854   3.814 123.368  0.00  0.00    +0.000 A 
ATOM      5  C   UNL     1      -4.732   4.509 122.897  0.00  0.00    +0.000 A 
ATOM      6  C   UNL     1      -4.588   4.792 121.532  0.00  0.00    +0.000 A 
ATOM      7  C   UNL     1      -5.581   4.419 120.628  0.00  0.00    +0.000 A 
ATOM      8  C   UNL     1      -6.717   3.762 121.089  0.00  0.00    +0.000 A 
ATOM      9  C   UNL     1      -6.837   3.469 122.455  0.00  0.00    +0.000 A 
ATOM     10  C   UNL     1      -7.967   2.668 122.894  0.00  0.00    +0.000 C 
ATOM     11  O   UNL     1      -9.125   3.026 122.715  0.00  0.00    +0.000 OA
ATOM     12  N   UNL     1      -7.603   1.407 123.273  0.00  0.00    +0.000 N 
ATOM     13  C   UNL     1      -6.744   1.138 124.362  0.00  0.00    +0.000 A 
ATOM     14  C   UNL     1      -6.015   2.097 125.105  0.00  0.00    +0.000 A 
ATOM     15  N   UNL     1      -5.318   1.736 126.213  0.00  0.00    +0.000 NA
ATOM     16  C   UNL     1      -5.309   0.439 126.586  0.00  0.00    +0.000 A 
ATOM     17  C   UNL     1      -5.998  -0.552 125.921  0.00  0.00    +0.000 A 
ATOM     18  C   UNL     1      -6.733  -0.192 124.800  0.00  0.00    +0.000 A 
ATOM     19  H   UNL     1      -8.223   0.674 122.952  0.00  0.00    +0.000 HD
ENDROOT
BRANCH   1  20
ATOM     20  C   UNL     1      -5.455   4.460 127.004  0.00  0.00    +0.000 C 
BRANCH  20  25
ATOM     21  C   UNL     1      -2.732   4.964 131.049  0.00  0.00    +0.000 C 
ATOM     22  N   UNL     1      -2.817   5.147 129.610  0.00  0.00    +0.000 NA
ATOM     23  C   UNL     1      -3.901   6.075 129.240  0.00  0.00    +0.000 C 
ATOM     24  C   UNL     1      -3.975   6.272 127.704  0.00  0.00    +0.000 C 
ATOM     25  N   UNL     1      -4.075   5.012 126.920  0.00  0.00    +0.000 NA
ATOM     26  C   UNL     1      -3.047   4.065 127.412  0.00  0.00    +0.000 C 
ATOM     27  C   UNL     1      -3.049   3.864 128.935  0.00  0.00    +0.000 C 
ENDBRANCH  20  25
ENDBRANCH   1  20
TORSDOF 2
ENDMDL
MODEL 2
REMARK VINA RESULT:      -7.7      3.340      5.344
REMARK  Name = Pirenzepine
REMARK  3 active torsions:
REMARK  status: ('A' for Active; 'I' for Inactive)
REMARK    1  A    between atoms: C_1  and  N_2
REMARK    2  A    between atoms: N_5  and  C_6
REMARK    3  A    between atoms: C_6  and  C_7
REMARK                            x       y       z     vdW  Elec       q    Type
REMARK                         _______ _______ _______ _____ _____    ______ ____
ROOT
ATOM      1  C   UNL     1      -7.385   0.535 126.436  0.00  0.00    +0.000 C 
ATOM      2  O   UNL     1      -8.049   0.718 125.409  0.00  0.00    +0.000 OA
ATOM      3  N   UNL     1      -7.007  -0.761 126.800  0.00  0.00    +0.000 N 
ATOM      4  C   UNL     1      -6.761  -1.691 125.761  0.00  0.00    +0.000 A 
ATOM      5  C   UNL     1      -5.549  -1.596 125.062  0.00  0.00    +0.000 A 
ATOM      6  C   UNL     1      -5.210  -2.546 124.090  0.00  0.00    +0.000 A 
ATOM      7  C   UNL     1      -6.092  -3.580 123.777  0.00  0.00    +0.000 A 
ATOM      8  C   UNL     1      -7.313  -3.661 124.437  0.00  0.00    +0.000 A 
ATOM      9  C   UNL     1      -7.630  -2.715 125.421  0.00  0.00    +0.000 A 
ATOM     10  C   UNL     1      -8.851  -2.897 126.188  0.00  0.00    +0.000 C 
ATOM     11  O   UNL     1      -9.953  -2.934 125.655  0.00  0.00    +0.000 OA
ATOM     12  N   UNL     1      -8.611  -3.267 127.481  0.00  0.00    +0.000 N 
ATOM     13  C   UNL     1      -7.920  -2.456 128.409  0.00  0.00    +0.000 A 
ATOM     14  C   UNL     1      -7.246  -1.246 128.119  0.00  0.00    +0.000 A 
ATOM     15  N   UNL     1      -6.724  -0.483 129.113  0.00  0.00    +0.000 NA
ATOM     16  C   UNL     1      -6.836  -0.909 130.390  0.00  0.00    +0.000 A 
ATOM     17  C   UNL     1      -7.482  -2.069 130.754  0.00  0.00    +0.000 A 
ATOM     18  C   UNL     1      -8.040  -2.846 129.748  0.00  0.00    +0.000 A 
ATOM     19  H   UNL     1      -9.221  -3.995 127.832  0.00  0.00    +0.000 HD
ENDROOT
BRANCH   1  20
ATOM     20  C   UNL     1      -6.817   1.693 127.292  0.00  0.00    +0.000 C 
BRANCH  20  25
ATOM     21  C   UNL     1      -2.628   4.176 127.860  0.00  0.00    +0.000 C 
ATOM     22  N   UNL     1      -3.918   4.104 127.196  0.00  0.00    +0.000 NA
ATOM     23  C   UNL     1      -5.033   4.161 128.158  0.00  0.00    +0.000 C 
ATOM     24  C   UNL     1      -6.405   4.096 127.437  0.00  0.00    +0.000 C 
ATOM     25  N   UNL     1      -6.568   2.939 126.517  0.00  0.00    +0.000 NA
ATOM     26  C   UNL     1      -5.367   2.847 125.653  0.00  0.00    +0.000 C 
ATOM     27  C   UNL     1      -4.035   2.863 126.418  0.00  0.00    +0.000 C 
ENDBRANCH  20  25
ENDBRANCH   1  20
TORSDOF 2
ENDMDL
MODEL 3
REMARK VINA RESULT:      -7.6      4.417      5.762
REMARK  Name = Pirenzepine
REMARK  3 active torsions:
REMARK  status: ('A' for Active; 'I' for Inactive)
REMARK    1  A    between atoms: C_1  and  N_2
REMARK    2  A    between atoms: N_5  and  C_6
REMARK    3  A    between atoms: C_6  and  C_7
REMARK                            x       y       z     vdW  Elec       q    Type
REMARK                         _______ _______ _______ _____ _____    ______ ____
ROOT
ATOM      1  C   UNL     1      -7.706   0.539 126.765  0.00  0.00    +0.000 C 
ATOM      2  O   UNL     1      -8.393   0.745 125.758  0.00  0.00    +0.000 OA
ATOM      3  N   UNL     1      -7.221  -0.746 127.028  0.00  0.00    +0.000 N 
ATOM      4  C   UNL     1      -6.914  -1.572 125.919  0.00  0.00    +0.000 A 
ATOM      5  C   UNL     1      -5.721  -1.327 125.223  0.00  0.00    +0.000 A 
ATOM      6  C   UNL     1      -5.318  -2.170 124.180  0.00  0.00    +0.000 A 
ATOM      7  C   UNL     1      -6.118  -3.245 123.793  0.00  0.00    +0.000 A 
ATOM      8  C   UNL     1      -7.321  -3.474 124.451  0.00  0.00    +0.000 A 
ATOM      9  C   UNL     1      -7.702  -2.634 125.506  0.00  0.00    +0.000 A 
ATOM     10  C   UNL     1      -8.895  -2.971 126.264  0.00  0.00    +0.000 C 
ATOM     11  O   UNL     1      -9.997  -3.056 125.735  0.00  0.00    +0.000 OA
ATOM     12  N   UNL     1      -8.612  -3.418 127.523  0.00  0.00    +0.000 N 
ATOM     13  C   UNL     1      -7.978  -2.626 128.506  0.00  0.00    +0.000 A 
ATOM     14  C   UNL     1      -7.406  -1.348 128.306  0.00  0.00    +0.000 A 
ATOM     15  N   UNL     1      -6.935  -0.622 129.354  0.00  0.00    +0.000 NA
ATOM     16  C   UNL     1      -6.998  -1.151 130.594  0.00  0.00    +0.000 A 
ATOM     17  C   UNL     1      -7.546  -2.384 130.873  0.00  0.00    +0.000 A 
ATOM     18  C   UNL     1      -8.051  -3.125 129.813  0.00  0.00    +0.000 A 
ATOM     19  H   UNL     1      -9.158  -4.217 127.820  0.00  0.00    +0.000 HD
ENDROOT
BRANCH   1  20
ATOM     20  C   UNL     1      -7.222   1.670 127.704  0.00  0.00    +0.000 C 
BRANCH  20  25
ATOM     21  C   UNL     1      -6.815   4.563 131.641  0.00  0.00    +0.000 C 
ATOM     22  N   UNL     1      -7.614   4.185 130.488  0.00  0.00    +0.000 NA
ATOM     23  C   UNL     1      -8.039   2.775 130.557  0.00  0.00    +0.000 C 
ATOM     24  C   UNL     1      -8.901   2.385 129.328  0.00  0.00    +0.000 C 
ATOM     25  N   UNL     1      -8.274   2.678 128.012  0.00  0.00    +0.000 NA
ATOM     26  C   UNL     1      -7.751   4.065 128.034  0.00  0.00    +0.000 C 
ATOM     27  C   UNL     1      -6.860   4.385 129.244  0.00  0.00    +0.000 C 
ENDBRANCH  20  25
ENDBRANCH   1  20
TORSDOF 2
ENDMDL
MODEL 4
REMARK VINA RESULT:      -7.5      5.260      7.190
REMARK  Name = Pirenzepine
REMARK  3 active torsions:
REMARK  status: ('A' for Active; 'I' for Inactive)
REMARK    1  A    between atoms: C_1  and  N_2
REMARK    2  A    between atoms: N_5  and  C_6
REMARK    3  A    between atoms: C_6  and  C_7
REMARK                            x       y       z     vdW  Elec       q    Type
REMARK                         _______ _______ _______ _____ _____    ______ ____
ROOT
ATOM      1  C   UNL     1      -7.019   5.288 130.019  0.00  0.00    +0.000 C 
ATOM      2  O   UNL     1      -6.728   6.420 130.422  0.00  0.00    +0.000 OA
ATOM      3  N   UNL     1      -8.325   4.810 130.163  0.00  0.00    +0.000 N 
ATOM      4  C   UNL     1      -9.381   5.752 130.100  0.00  0.00    +0.000 A 
ATOM      5  C   UNL     1      -9.759   6.237 128.840  0.00  0.00    +0.000 A 
ATOM      6  C   UNL     1     -10.857   7.096 128.706  0.00  0.00    +0.000 A 
ATOM      7  C   UNL     1     -11.567   7.512 129.831  0.00  0.00    +0.000 A 
ATOM      8  C   UNL     1     -11.177   7.067 131.090  0.00  0.00    +0.000 A 
ATOM      9  C   UNL     1     -10.088   6.192 131.206  0.00  0.00    +0.000 A 
ATOM     10  C   UNL     1      -9.782   5.638 132.514  0.00  0.00    +0.000 C 
ATOM     11  O   UNL     1      -9.505   6.350 133.472  0.00  0.00    +0.000 OA
ATOM     12  N   UNL     1     -10.084   4.310 132.607  0.00  0.00    +0.000 N 
ATOM     13  C   UNL     1      -9.460   3.312 131.825  0.00  0.00    +0.000 A 
ATOM     14  C   UNL     1      -8.574   3.533 130.745  0.00  0.00    +0.000 A 
ATOM     15  N   UNL     1      -7.933   2.496 130.145  0.00  0.00    +0.000 NA
ATOM     16  C   UNL     1      -8.171   1.241 130.581  0.00  0.00    +0.000 A 
ATOM     17  C   UNL     1      -9.013   0.944 131.631  0.00  0.00    +0.000 A 
ATOM     18  C   UNL     1      -9.656   1.997 132.266  0.00  0.00    +0.000 A 
ATOM     19  H   UNL     1     -10.532   4.037 133.473  0.00  0.00    +0.000 HD
ENDROOT
BRANCH   1  20
ATOM     20  C   UNL     1      -6.036   4.396 129.222  0.00  0.00    +0.000 C 
BRANCH  20  25
ATOM     21  C   UNL     1      -2.061   3.254 126.589  0.00  0.00    +0.000 C 
ATOM     22  N   UNL     1      -2.610   3.527 127.906  0.00  0.00    +0.000 NA
ATOM     23  C   UNL     1      -3.645   2.546 128.282  0.00  0.00    +0.000 C 
ATOM     24  C   UNL     1      -4.214   2.840 129.694  0.00  0.00    +0.000 C 
ATOM     25  N   UNL     1      -4.714   4.227 129.886  0.00  0.00    +0.000 NA
ATOM     26  C   UNL     1      -3.693   5.174 129.380  0.00  0.00    +0.000 C 
ATOM     27  C   UNL     1      -3.199   4.871 127.957  0.00  0.00    +0.000 C 
ENDBRANCH  20  25
ENDBRANCH   1  20
TORSDOF 2
ENDMDL
MODEL 5
REMARK VINA RESULT:      -7.4      3.659      4.514
REMARK  Name = Pirenzepine
REMARK  3 active torsions:
REMARK  status: ('A' for Active; 'I' for Inactive)
REMARK    1  A    between atoms: C_1  and  N_2
REMARK    2  A    between atoms: N_5  and  C_6
REMARK    3  A    between atoms: C_6  and  C_7
REMARK                            x       y       z     vdW  Elec       q    Type
REMARK                         _______ _______ _______ _____ _____    ______ ____
ROOT
ATOM      1  C   UNL     1      -7.975   1.091 126.257  0.00  0.00    +0.000 C 
ATOM      2  O   UNL     1      -8.751   2.029 126.475  0.00  0.00    +0.000 OA
ATOM      3  N   UNL     1      -7.765   0.650 124.947  0.00  0.00    +0.000 N 
ATOM      4  C   UNL     1      -7.841   1.611 123.909  0.00  0.00    +0.000 A 
ATOM      5  C   UNL     1      -6.754   2.478 123.730  0.00  0.00    +0.000 A 
ATOM      6  C   UNL     1      -6.731   3.383 122.662  0.00  0.00    +0.000 A 
ATOM      7  C   UNL     1      -7.810   3.461 121.782  0.00  0.00    +0.000 A 
ATOM      8  C   UNL     1      -8.911   2.633 121.972  0.00  0.00    +0.000 A 
ATOM      9  C   UNL     1      -8.910   1.718 123.034  0.00  0.00    +0.000 A 
ATOM     10  C   UNL     1     -10.010   0.773 123.135  0.00  0.00    +0.000 C 
ATOM     11  O   UNL     1     -11.172   1.141 123.254  0.00  0.00    +0.000 OA
ATOM     12  N   UNL     1      -9.636  -0.504 122.829  0.00  0.00    +0.000 N 
ATOM     13  C   UNL     1      -8.685  -1.238 123.574  0.00  0.00    +0.000 A 
ATOM     14  C   UNL     1      -7.874  -0.732 124.617  0.00  0.00    +0.000 A 
ATOM     15  N   UNL     1      -7.085  -1.560 125.350  0.00  0.00    +0.000 NA
ATOM     16  C   UNL     1      -7.066  -2.876 125.052  0.00  0.00    +0.000 A 
ATOM     17  C   UNL     1      -7.831  -3.447 124.058  0.00  0.00    +0.000 A 
ATOM     18  C   UNL     1      -8.659  -2.614 123.318  0.00  0.00    +0.000 A 
ATOM     19  H   UNL     1     -10.297  -1.011 122.253  0.00  0.00    +0.000 HD
ENDROOT
BRANCH   1  20
ATOM     20  C   UNL     1      -7.098   0.447 127.357  0.00  0.00    +0.000 C 
BRANCH  20  25
ATOM     21  C   UNL     1      -4.837  -0.595 131.580  0.00  0.00    +0.000 C 
ATOM     22  N   UNL     1      -6.093  -0.555 130.852  0.00  0.00    +0.000 NA
ATOM     23  C   UNL     1      -6.074  -1.447 129.678  0.00  0.00    +0.000 C 
ATOM     24  C   UNL     1      -7.423  -1.405 128.916  0.00  0.00    +0.000 C 
ATOM     25  N   UNL     1      -7.876  -0.042 128.529  0.00  0.00    +0.000 NA
ATOM     26  C   UNL     1      -7.760   0.849 129.707  0.00  0.00    +0.000 C 
ATOM     27  C   UNL     1      -6.387   0.810 130.396  0.00  0.00    +0.000 C 
ENDBRANCH  20  25
ENDBRANCH   1  20
TORSDOF 2
ENDMDL
MODEL 6
REMARK VINA RESULT:      -7.4      3.041      5.598
REMARK  Name = Pirenzepine
REMARK  3 active torsions:
REMARK  status: ('A' for Active; 'I' for Inactive)
REMARK    1  A    between atoms: C_1  and  N_2
REMARK    2  A    between atoms: N_5  and  C_6
REMARK    3  A    between atoms: C_6  and  C_7
REMARK                            x       y       z     vdW  Elec       q    Type
REMARK                         _______ _______ _______ _____ _____    ______ ____
ROOT
ATOM      1  C   UNL     1      -5.856   0.210 125.901  0.00  0.00    +0.000 C 
ATOM      2  O   UNL     1      -5.010  -0.689 125.963  0.00  0.00    +0.000 OA
ATOM      3  N   UNL     1      -7.216  -0.111 125.880  0.00  0.00    +0.000 N 
ATOM      4  C   UNL     1      -7.630  -1.267 126.586  0.00  0.00    +0.000 A 
ATOM      5  C   UNL     1      -7.729  -1.189 127.982  0.00  0.00    +0.000 A 
ATOM      6  C   UNL     1      -8.224  -2.269 128.724  0.00  0.00    +0.000 A 
ATOM      7  C   UNL     1      -8.590  -3.453 128.086  0.00  0.00    +0.000 A 
ATOM      8  C   UNL     1      -8.459  -3.556 126.705  0.00  0.00    +0.000 A 
ATOM      9  C   UNL     1      -7.981  -2.460 125.974  0.00  0.00    +0.000 A 
ATOM     10  C   UNL     1      -7.978  -2.543 124.524  0.00  0.00    +0.000 C 
ATOM     11  O   UNL     1      -7.350  -3.408 123.925  0.00  0.00    +0.000 OA
ATOM     12  N   UNL     1      -8.924  -1.744 123.948  0.00  0.00    +0.000 N 
ATOM     13  C   UNL     1      -8.927  -0.336 124.058  0.00  0.00    +0.000 A 
ATOM     14  C   UNL     1      -8.079   0.437 124.887  0.00  0.00    +0.000 A 
ATOM     15  N   UNL     1      -8.084   1.793 124.818  0.00  0.00    +0.000 NA
ATOM     16  C   UNL     1      -8.930   2.400 123.959  0.00  0.00    +0.000 A 
ATOM     17  C   UNL     1      -9.779   1.720 123.114  0.00  0.00    +0.000 A 
ATOM     18  C   UNL     1      -9.767   0.332 123.159  0.00  0.00    +0.000 A 
ATOM     19  H   UNL     1      -9.428  -2.172 123.181  0.00  0.00    +0.000 HD
ENDROOT
BRANCH   1  20
ATOM     20  C   UNL     1      -5.497   1.714 125.986  0.00  0.00    +0.000 C 
BRANCH  20  25
ATOM     21  C   UNL     1      -2.639   5.198 127.914  0.00  0.00    +0.000 C 
ATOM     22  N   UNL     1      -3.827   4.377 128.069  0.00  0.00    +0.000 NA
ATOM     23  C   UNL     1      -3.498   2.941 128.112  0.00  0.00    +0.000 C 
ATOM     24  C   UNL     1      -4.772   2.075 128.290  0.00  0.00    +0.000 C 
ATOM     25  N   UNL     1      -5.844   2.336 127.293  0.00  0.00    +0.000 NA
ATOM     26  C   UNL     1      -6.054   3.800 127.194  0.00  0.00    +0.000 C 
ATOM     27  C   UNL     1      -4.768   4.609 126.965  0.00  0.00    +0.000 C 
ENDBRANCH  20  25
ENDBRANCH   1  20
TORSDOF 2
ENDMDL
MODEL 7
REMARK VINA RESULT:      -7.3      2.640      3.060
REMARK  Name = Pirenzepine
REMARK  3 active torsions:
REMARK  status: ('A' for Active; 'I' for Inactive)
REMARK    1  A    between atoms: C_1  and  N_2
REMARK    2  A    between atoms: N_5  and  C_6
REMARK    3  A    between atoms: C_6  and  C_7
REMARK                            x       y       z     vdW  Elec       q    Type
REMARK                         _______ _______ _______ _____ _____    ______ ____
ROOT
ATOM      1  C   UNL     1      -7.785   3.853 126.132  0.00  0.00    +0.000 C 
ATOM      2  O   UNL     1      -8.555   4.641 125.570  0.00  0.00    +0.000 OA
ATOM      3  N   UNL     1      -7.040   2.945 125.372  0.00  0.00    +0.000 N 
ATOM      4  C   UNL     1      -6.636   3.349 124.076  0.00  0.00    +0.000 A 
ATOM      5  C   UNL     1      -5.556   4.238 123.968  0.00  0.00    +0.000 A 
ATOM      6  C   UNL     1      -5.051   4.596 122.712  0.00  0.00    +0.000 A 
ATOM      7  C   UNL     1      -5.640   4.103 121.549  0.00  0.00    +0.000 A 
ATOM      8  C   UNL     1      -6.735   3.251 121.644  0.00  0.00    +0.000 A 
ATOM      9  C   UNL     1      -7.218   2.886 122.908  0.00  0.00    +0.000 A 
ATOM     10  C   UNL     1      -8.276   1.893 122.984  0.00  0.00    +0.000 C 
ATOM     11  O   UNL     1      -9.366   2.064 122.452  0.00  0.00    +0.000 OA
ATOM     12  N   UNL     1      -7.840   0.695 123.472  0.00  0.00    +0.000 N 
ATOM     13  C   UNL     1      -7.324   0.525 124.776  0.00  0.00    +0.000 A 
ATOM     14  C   UNL     1      -7.031   1.558 125.697  0.00  0.00    +0.000 A 
ATOM     15  N   UNL     1      -6.657   1.271 126.972  0.00  0.00    +0.000 NA
ATOM     16  C   UNL     1      -6.545  -0.022 127.343  0.00  0.00    +0.000 A 
ATOM     17  C   UNL     1      -6.819  -1.083 126.509  0.00  0.00    +0.000 A 
ATOM     18  C   UNL     1      -7.224  -0.803 125.211  0.00  0.00    +0.000 A 
ATOM     19  H   UNL     1      -8.198  -0.116 122.983  0.00  0.00    +0.000 HD
ENDROOT
BRANCH   1  20
ATOM     20  C   UNL     1      -7.487   3.900 127.650  0.00  0.00    +0.000 C 
BRANCH  20  25
ATOM     21  C   UNL     1      -7.127   3.822 132.538  0.00  0.00    +0.000 C 
ATOM     22  N   UNL     1      -8.009   3.847 131.384  0.00  0.00    +0.000 NA
ATOM     23  C   UNL     1      -7.837   2.652 130.538  0.00  0.00    +0.000 C 
ATOM     24  C   UNL     1      -8.792   2.683 129.317  0.00  0.00    +0.000 C 
ATOM     25  N   UNL     1      -8.711   3.921 128.497  0.00  0.00    +0.000 NA
ATOM     26  C   UNL     1      -8.763   5.094 129.401  0.00  0.00    +0.000 C 
ATOM     27  C   UNL     1      -7.762   5.040 130.565  0.00  0.00    +0.000 C 
ENDBRANCH  20  25
ENDBRANCH   1  20
TORSDOF 2
ENDMDL
MODEL 8
REMARK VINA RESULT:      -7.3      4.026      7.411
REMARK  Name = Pirenzepine
REMARK  3 active torsions:
REMARK  status: ('A' for Active; 'I' for Inactive)
REMARK    1  A    between atoms: C_1  and  N_2
REMARK    2  A    between atoms: N_5  and  C_6
REMARK    3  A    between atoms: C_6  and  C_7
REMARK                            x       y       z     vdW  Elec       q    Type
REMARK                         _______ _______ _______ _____ _____    ______ ____
ROOT
ATOM      1  C   UNL     1      -5.384   4.479 130.509  0.00  0.00    +0.000 C 
ATOM      2  O   UNL     1      -5.700   5.550 131.041  0.00  0.00    +0.000 OA
ATOM      3  N   UNL     1      -4.065   4.267 130.097  0.00  0.00    +0.000 N 
ATOM      4  C   UNL     1      -3.035   4.883 130.849  0.00  0.00    +0.000 A 
ATOM      5  C   UNL     1      -2.682   4.311 132.079  0.00  0.00    +0.000 A 
ATOM      6  C   UNL     1      -1.607   4.818 132.820  0.00  0.00    +0.000 A 
ATOM      7  C   UNL     1      -0.896   5.926 132.361  0.00  0.00    +0.000 A 
ATOM      8  C   UNL     1      -1.262   6.525 131.160  0.00  0.00    +0.000 A 
ATOM      9  C   UNL     1      -2.327   5.994 130.420  0.00  0.00    +0.000 A 
ATOM     10  C   UNL     1      -2.606   6.553 129.109  0.00  0.00    +0.000 C 
ATOM     11  O   UNL     1      -2.891   7.735 128.954  0.00  0.00    +0.000 OA
ATOM     12  N   UNL     1      -2.270   5.706 128.092  0.00  0.00    +0.000 N 
ATOM     13  C   UNL     1      -2.876   4.445 127.896  0.00  0.00    +0.000 A 
ATOM     14  C   UNL     1      -3.778   3.807 128.779  0.00  0.00    +0.000 A 
ATOM     15  N   UNL     1      -4.399   2.651 128.428  0.00  0.00    +0.000 NA
ATOM     16  C   UNL     1      -4.124   2.102 127.226  0.00  0.00    +0.000 A 
ATOM     17  C   UNL     1      -3.265   2.664 126.308  0.00  0.00    +0.000 A 
ATOM     18  C   UNL     1      -2.642   3.857 126.646  0.00  0.00    +0.000 A 
ATOM     19  H   UNL     1      -1.806   6.148 127.308  0.00  0.00    +0.000 HD
ENDROOT
BRANCH   1  20
ATOM     20  C   UNL     1      -6.353   3.277 130.391  0.00  0.00    +0.000 C 
BRANCH  20  25
ATOM     21  C   UNL     1      -8.670   1.221 126.592  0.00  0.00    +0.000 C 
ATOM     22  N   UNL     1      -8.735   2.181 127.680  0.00  0.00    +0.000 NA
ATOM     23  C   UNL     1      -7.722   3.241 127.536  0.00  0.00    +0.000 C 
ATOM     24  C   UNL     1      -7.808   4.266 128.697  0.00  0.00    +0.000 C 
ATOM     25  N   UNL     1      -7.750   3.669 130.058  0.00  0.00    +0.000 NA
ATOM     26  C   UNL     1      -8.695   2.529 130.117  0.00  0.00    +0.000 C 
ATOM     27  C   UNL     1      -8.534   1.515 128.974  0.00  0.00    +0.000 C 
ENDBRANCH  20  25
ENDBRANCH   1  20
TORSDOF 2
ENDMDL
MODEL 9
REMARK VINA RESULT:      -7.2      5.998      8.025
REMARK  Name = Pirenzepine
REMARK  3 active torsions:
REMARK  status: ('A' for Active; 'I' for Inactive)
REMARK    1  A    between atoms: C_1  and  N_2
REMARK    2  A    between atoms: N_5  and  C_6
REMARK    3  A    between atoms: C_6  and  C_7
REMARK                            x       y       z     vdW  Elec       q    Type
REMARK                         _______ _______ _______ _____ _____    ______ ____
ROOT
ATOM      1  C   UNL     1      -7.517   4.826 130.044  0.00  0.00    +0.000 C 
ATOM      2  O   UNL     1      -7.284   4.926 128.834  0.00  0.00    +0.000 OA
ATOM      3  N   UNL     1      -6.458   4.767 130.956  0.00  0.00    +0.000 N 
ATOM      4  C   UNL     1      -5.274   5.476 130.635  0.00  0.00    +0.000 A 
ATOM      5  C   UNL     1      -5.269   6.867 130.807  0.00  0.00    +0.000 A 
ATOM      6  C   UNL     1      -4.099   7.608 130.599  0.00  0.00    +0.000 A 
ATOM      7  C   UNL     1      -2.930   6.975 130.178  0.00  0.00    +0.000 A 
ATOM      8  C   UNL     1      -2.934   5.600 129.967  0.00  0.00    +0.000 A 
ATOM      9  C   UNL     1      -4.107   4.870 130.199  0.00  0.00    +0.000 A 
ATOM     10  C   UNL     1      -4.052   3.421 130.100  0.00  0.00    +0.000 C 
ATOM     11  O   UNL     1      -3.724   2.854 129.064  0.00  0.00    +0.000 OA
ATOM     12  N   UNL     1      -4.147   2.806 131.315  0.00  0.00    +0.000 N 
ATOM     13  C   UNL     1      -5.285   2.897 132.147  0.00  0.00    +0.000 A 
ATOM     14  C   UNL     1      -6.402   3.741 131.943  0.00  0.00    +0.000 A 
ATOM     15  N   UNL     1      -7.498   3.653 132.740  0.00  0.00    +0.000 NA
ATOM     16  C   UNL     1      -7.499   2.760 133.752  0.00  0.00    +0.000 A 
ATOM     17  C   UNL     1      -6.455   1.899 134.012  0.00  0.00    +0.000 A 
ATOM     18  C   UNL     1      -5.339   1.963 133.190  0.00  0.00    +0.000 A 
ATOM     19  H   UNL     1      -3.511   2.029 131.447  0.00  0.00    +0.000 HD
ENDROOT
BRANCH   1  20
ATOM     20  C   UNL     1      -8.944   4.901 130.639  0.00  0.00    +0.000 C 
BRANCH  20  25
ATOM     21  C   UNL     1     -12.980   7.427 129.474  0.00  0.00    +0.000 C 
ATOM     22  N   UNL     1     -11.772   7.370 130.278  0.00  0.00    +0.000 NA
ATOM     23  C   UNL     1     -10.559   7.347 129.441  0.00  0.00    +0.000 C 
ATOM     24  C   UNL     1      -9.275   7.299 130.310  0.00  0.00    +0.000 C 
ATOM     25  N   UNL     1      -9.242   6.198 131.309  0.00  0.00    +0.000 NA
ATOM     26  C   UNL     1     -10.531   6.182 132.040  0.00  0.00    +0.000 C 
ATOM     27  C   UNL     1     -11.772   6.177 131.135  0.00  0.00    +0.000 C 
ENDBRANCH  20  25
ENDBRANCH   1  20
TORSDOF 2
ENDMDL
