MODEL 1
REMARK VINA RESULT:      -7.0      0.000      0.000
REMARK  Name = Pirfenidone
REMARK  2 active torsions:
REMARK  status: ('A' for Active; 'I' for Inactive)
REMARK    1  A    between atoms: C_1  and  C_2
REMARK    2  A    between atoms: N_4  and  C_9
REMARK                            x       y       z     vdW  Elec       q    Type
REMARK                         _______ _______ _______ _____ _____    ______ ____
ROOT
ATOM      1  C   UNL     1      -7.130   7.020 130.911  0.00  0.00    +0.000 C 
ATOM      2  C   UNL     1      -8.597   6.760 131.081  0.00  0.00    +0.000 A 
ATOM      3  C   UNL     1      -9.515   7.017 130.134  0.00  0.00    +0.000 A 
ATOM      4  N   UNL     1     -10.885   6.933 130.391  0.00  0.00    +0.000 N 
ATOM      5  C   UNL     1     -11.363   6.485 131.627  0.00  0.00    +0.000 A 
ATOM      6  O   UNL     1     -12.547   6.429 131.975  0.00  0.00    +0.000 OA
ATOM      7  C   UNL     1     -10.334   6.004 132.586  0.00  0.00    +0.000 A 
ATOM      8  C   UNL     1      -9.034   6.209 132.346  0.00  0.00    +0.000 A 
ENDROOT
BRANCH   4   9
ATOM      9  C   UNL     1     -11.817   7.472 129.453  0.00  0.00    +0.000 A 
ATOM     10  C   UNL     1     -12.135   8.833 129.485  0.00  0.00    +0.000 A 
ATOM     11  C   UNL     1     -13.160   9.333 128.681  0.00  0.00    +0.000 A 
ATOM     12  C   UNL     1     -13.826   8.491 127.791  0.00  0.00    +0.000 A 
ATOM     13  C   UNL     1     -13.447   7.154 127.682  0.00  0.00    +0.000 A 
ATOM     14  C   UNL     1     -12.469   6.637 128.534  0.00  0.00    +0.000 A 
ENDBRANCH   4   9
TORSDOF 1
ENDMDL
MODEL 2
REMARK VINA RESULT:      -6.9      1.431      5.121
REMARK  Name = Pirfenidone
REMARK  2 active torsions:
REMARK  status: ('A' for Active; 'I' for Inactive)
REMARK    1  A    between atoms: C_1  and  C_2
REMARK    2  A    between atoms: N_4  and  C_9
REMARK                            x       y       z     vdW  Elec       q    Type
REMARK                         _______ _______ _______ _____ _____    ______ ____
ROOT
ATOM      1  C   UNL     1     -13.743  11.278 129.632  0.00  0.00    +0.000 C 
ATOM      2  C   UNL     1     -13.369   9.859 129.321  0.00  0.00    +0.000 A 
ATOM      3  C   UNL     1     -12.581   9.106 130.108  0.00  0.00    +0.000 A 
ATOM      4  N   UNL     1     -12.109   7.858 129.700  0.00  0.00    +0.000 N 
ATOM      5  C   UNL     1     -12.513   7.292 128.486  0.00  0.00    +0.000 A 
ATOM      6  O   UNL     1     -12.112   6.226 128.008  0.00  0.00    +0.000 OA
ATOM      7  C   UNL     1     -13.549   8.044 127.732  0.00  0.00    +0.000 A 
ATOM      8  C   UNL     1     -13.887   9.286 128.098  0.00  0.00    +0.000 A 
ENDROOT
BRANCH   4   9
ATOM      9  C   UNL     1     -11.066   7.218 130.437  0.00  0.00    +0.000 A 
ATOM     10  C   UNL     1     -11.374   6.461 131.572  0.00  0.00    +0.000 A 
ATOM     11  C   UNL     1     -10.352   5.968 132.384  0.00  0.00    +0.000 A 
ATOM     12  C   UNL     1      -9.017   6.169 132.031  0.00  0.00    +0.000 A 
ATOM     13  C   UNL     1      -8.705   6.836 130.848  0.00  0.00    +0.000 A 
ATOM     14  C   UNL     1      -9.724   7.389 130.070  0.00  0.00    +0.000 A 
ENDBRANCH   4   9
TORSDOF 1
ENDMDL
MODEL 3
REMARK VINA RESULT:      -6.6     10.993     12.006
REMARK  Name = Pirfenidone
REMARK  2 active torsions:
REMARK  status: ('A' for Active; 'I' for Inactive)
REMARK    1  A    between atoms: C_1  and  C_2
REMARK    2  A    between atoms: N_4  and  C_9
REMARK                            x       y       z     vdW  Elec       q    Type
REMARK                         _______ _______ _______ _____ _____    ______ ____
ROOT
ATOM      1  C   UNL     1      -4.343  -3.393 123.224  0.00  0.00    +0.000 C 
ATOM      2  C   UNL     1      -5.592  -2.716 123.704  0.00  0.00    +0.000 A 
ATOM      3  C   UNL     1      -6.015  -2.750 124.980  0.00  0.00    +0.000 A 
ATOM      4  N   UNL     1      -7.269  -2.264 125.354  0.00  0.00    +0.000 N 
ATOM      5  C   UNL     1      -8.107  -1.634 124.428  0.00  0.00    +0.000 A 
ATOM      6  O   UNL     1      -9.252  -1.223 124.642  0.00  0.00    +0.000 OA
ATOM      7  C   UNL     1      -7.533  -1.416 123.075  0.00  0.00    +0.000 A 
ATOM      8  C   UNL     1      -6.379  -1.997 122.726  0.00  0.00    +0.000 A 
ENDROOT
BRANCH   4   9
ATOM      9  C   UNL     1      -7.788  -2.563 126.651  0.00  0.00    +0.000 A 
ATOM     10  C   UNL     1      -7.396  -1.801 127.755  0.00  0.00    +0.000 A 
ATOM     11  C   UNL     1      -7.772  -2.185 129.042  0.00  0.00    +0.000 A 
ATOM     12  C   UNL     1      -8.599  -3.293 129.229  0.00  0.00    +0.000 A 
ATOM     13  C   UNL     1      -9.075  -3.998 128.125  0.00  0.00    +0.000 A 
ATOM     14  C   UNL     1      -8.645  -3.656 126.842  0.00  0.00    +0.000 A 
ENDBRANCH   4   9
TORSDOF 1
ENDMDL
MODEL 4
REMARK VINA RESULT:      -6.3      1.748      5.215
REMARK  Name = Pirfenidone
REMARK  2 active torsions:
REMARK  status: ('A' for Active; 'I' for Inactive)
REMARK    1  A    between atoms: C_1  and  C_2
REMARK    2  A    between atoms: N_4  and  C_9
REMARK                            x       y       z     vdW  Elec       q    Type
REMARK                         _______ _______ _______ _____ _____    ______ ____
ROOT
ATOM      1  C   UNL     1     -13.451   9.784 128.863  0.00  0.00    +0.000 C 
ATOM      2  C   UNL     1     -12.451   8.678 128.703  0.00  0.00    +0.000 A 
ATOM      3  C   UNL     1     -11.785   8.120 129.728  0.00  0.00    +0.000 A 
ATOM      4  N   UNL     1     -10.735   7.223 129.525  0.00  0.00    +0.000 N 
ATOM      5  C   UNL     1     -10.389   6.793 128.239  0.00  0.00    +0.000 A 
ATOM      6  O   UNL     1      -9.445   6.051 127.947  0.00  0.00    +0.000 OA
ATOM      7  C   UNL     1     -11.274   7.256 127.139  0.00  0.00    +0.000 A 
ATOM      8  C   UNL     1     -12.194   8.202 127.361  0.00  0.00    +0.000 A 
ENDROOT
BRANCH   4   9
ATOM      9  C   UNL     1      -9.884   6.868 130.615  0.00  0.00    +0.000 A 
ATOM     10  C   UNL     1      -8.509   7.111 130.538  0.00  0.00    +0.000 A 
ATOM     11  C   UNL     1      -7.654   6.623 131.527  0.00  0.00    +0.000 A 
ATOM     12  C   UNL     1      -8.174   5.951 132.633  0.00  0.00    +0.000 A 
ATOM     13  C   UNL     1      -9.553   5.793 132.766  0.00  0.00    +0.000 A 
ATOM     14  C   UNL     1     -10.403   6.220 131.745  0.00  0.00    +0.000 A 
ENDBRANCH   4   9
TORSDOF 1
ENDMDL
MODEL 5
REMARK VINA RESULT:      -6.3      2.184      3.075
REMARK  Name = Pirfenidone
REMARK  2 active torsions:
REMARK  status: ('A' for Active; 'I' for Inactive)
REMARK    1  A    between atoms: C_1  and  C_2
REMARK    2  A    between atoms: N_4  and  C_9
REMARK                            x       y       z     vdW  Elec       q    Type
REMARK                         _______ _______ _______ _____ _____    ______ ____
ROOT
ATOM      1  C   UNL     1      -8.244   4.562 134.795  0.00  0.00    +0.000 C 
ATOM      2  C   UNL     1      -8.891   4.414 133.451  0.00  0.00    +0.000 A 
ATOM      3  C   UNL     1      -9.365   5.447 132.733  0.00  0.00    +0.000 A 
ATOM      4  N   UNL     1     -10.119   5.257 131.574  0.00  0.00    +0.000 N 
ATOM      5  C   UNL     1     -10.338   3.976 131.056  0.00  0.00    +0.000 A 
ATOM      6  O   UNL     1     -11.035   3.694 130.076  0.00  0.00    +0.000 OA
ATOM      7  C   UNL     1      -9.628   2.866 131.744  0.00  0.00    +0.000 A 
ATOM      8  C   UNL     1      -9.012   3.077 132.913  0.00  0.00    +0.000 A 
ENDROOT
BRANCH   4   9
ATOM      9  C   UNL     1     -10.828   6.355 131.000  0.00  0.00    +0.000 A 
ATOM     10  C   UNL     1     -12.084   6.715 131.497  0.00  0.00    +0.000 A 
ATOM     11  C   UNL     1     -12.848   7.680 130.839  0.00  0.00    +0.000 A 
ATOM     12  C   UNL     1     -12.334   8.340 129.723  0.00  0.00    +0.000 A 
ATOM     13  C   UNL     1     -11.042   8.058 129.283  0.00  0.00    +0.000 A 
ATOM     14  C   UNL     1     -10.303   7.045 129.897  0.00  0.00    +0.000 A 
ENDBRANCH   4   9
TORSDOF 1
ENDMDL
MODEL 6
REMARK VINA RESULT:      -6.0      1.698      4.913
REMARK  Name = Pirfenidone
REMARK  2 active torsions:
REMARK  status: ('A' for Active; 'I' for Inactive)
REMARK    1  A    between atoms: C_1  and  C_2
REMARK    2  A    between atoms: N_4  and  C_9
REMARK                            x       y       z     vdW  Elec       q    Type
REMARK                         _______ _______ _______ _____ _____    ______ ____
ROOT
ATOM      1  C   UNL     1     -10.974   7.692 126.390  0.00  0.00    +0.000 C 
ATOM      2  C   UNL     1     -11.330   7.545 127.839  0.00  0.00    +0.000 A 
ATOM      3  C   UNL     1     -10.544   6.932 128.741  0.00  0.00    +0.000 A 
ATOM      4  N   UNL     1     -10.985   6.655 130.036  0.00  0.00    +0.000 N 
ATOM      5  C   UNL     1     -12.239   7.087 130.482  0.00  0.00    +0.000 A 
ATOM      6  O   UNL     1     -12.745   6.846 131.583  0.00  0.00    +0.000 OA
ATOM      7  C   UNL     1     -13.003   7.945 129.540  0.00  0.00    +0.000 A 
ATOM      8  C   UNL     1     -12.598   8.090 128.273  0.00  0.00    +0.000 A 
ENDROOT
BRANCH   4   9
ATOM      9  C   UNL     1     -10.233   5.771 130.868  0.00  0.00    +0.000 A 
ATOM     10  C   UNL     1     -10.358   4.388 130.713  0.00  0.00    +0.000 A 
ATOM     11  C   UNL     1      -9.751   3.522 131.624  0.00  0.00    +0.000 A 
ATOM     12  C   UNL     1      -8.960   4.031 132.654  0.00  0.00    +0.000 A 
ATOM     13  C   UNL     1      -8.749   5.405 132.754  0.00  0.00    +0.000 A 
ATOM     14  C   UNL     1      -9.410   6.276 131.885  0.00  0.00    +0.000 A 
ENDBRANCH   4   9
TORSDOF 1
ENDMDL
MODEL 7
REMARK VINA RESULT:      -5.9     10.116     10.757
REMARK  Name = Pirfenidone
REMARK  2 active torsions:
REMARK  status: ('A' for Active; 'I' for Inactive)
REMARK    1  A    between atoms: C_1  and  C_2
REMARK    2  A    between atoms: N_4  and  C_9
REMARK                            x       y       z     vdW  Elec       q    Type
REMARK                         _______ _______ _______ _____ _____    ______ ____
ROOT
ATOM      1  C   UNL     1      -4.832  -3.265 123.396  0.00  0.00    +0.000 C 
ATOM      2  C   UNL     1      -6.215  -2.860 123.810  0.00  0.00    +0.000 A 
ATOM      3  C   UNL     1      -6.693  -1.609 123.693  0.00  0.00    +0.000 A 
ATOM      4  N   UNL     1      -7.915  -1.230 124.252  0.00  0.00    +0.000 N 
ATOM      5  C   UNL     1      -8.743  -2.165 124.882  0.00  0.00    +0.000 A 
ATOM      6  O   UNL     1      -9.810  -1.925 125.456  0.00  0.00    +0.000 OA
ATOM      7  C   UNL     1      -8.296  -3.580 124.812  0.00  0.00    +0.000 A 
ATOM      8  C   UNL     1      -7.069  -3.884 124.371  0.00  0.00    +0.000 A 
ENDROOT
BRANCH   4   9
ATOM      9  C   UNL     1      -8.255   0.154 124.344  0.00  0.00    +0.000 A 
ATOM     10  C   UNL     1      -9.039   0.750 123.352  0.00  0.00    +0.000 A 
ATOM     11  C   UNL     1      -9.240   2.130 123.352  0.00  0.00    +0.000 A 
ATOM     12  C   UNL     1      -8.718   2.915 124.381  0.00  0.00    +0.000 A 
ATOM     13  C   UNL     1      -8.020   2.314 125.427  0.00  0.00    +0.000 A 
ATOM     14  C   UNL     1      -7.759   0.942 125.393  0.00  0.00    +0.000 A 
ENDBRANCH   4   9
TORSDOF 1
ENDMDL
MODEL 8
REMARK VINA RESULT:      -5.9      9.644     10.779
REMARK  Name = Pirfenidone
REMARK  2 active torsions:
REMARK  status: ('A' for Active; 'I' for Inactive)
REMARK    1  A    between atoms: C_1  and  C_2
REMARK    2  A    between atoms: N_4  and  C_9
REMARK                            x       y       z     vdW  Elec       q    Type
REMARK                         _______ _______ _______ _____ _____    ______ ____
ROOT
ATOM      1  C   UNL     1      -6.131   3.174 123.876  0.00  0.00    +0.000 C 
ATOM      2  C   UNL     1      -7.359   2.343 123.650  0.00  0.00    +0.000 A 
ATOM      3  C   UNL     1      -7.580   1.160 124.247  0.00  0.00    +0.000 A 
ATOM      4  N   UNL     1      -8.643   0.333 123.878  0.00  0.00    +0.000 N 
ATOM      5  C   UNL     1      -9.584   0.745 122.928  0.00  0.00    +0.000 A 
ATOM      6  O   UNL     1     -10.522   0.072 122.491  0.00  0.00    +0.000 OA
ATOM      7  C   UNL     1      -9.443   2.140 122.437  0.00  0.00    +0.000 A 
ATOM      8  C   UNL     1      -8.349   2.855 122.727  0.00  0.00    +0.000 A 
ENDROOT
BRANCH   4   9
ATOM      9  C   UNL     1      -8.683  -1.018 124.337  0.00  0.00    +0.000 A 
ATOM     10  C   UNL     1      -9.177  -1.310 125.612  0.00  0.00    +0.000 A 
ATOM     11  C   UNL     1      -9.072  -2.604 126.125  0.00  0.00    +0.000 A 
ATOM     12  C   UNL     1      -8.536  -3.627 125.343  0.00  0.00    +0.000 A 
ATOM     13  C   UNL     1      -8.135  -3.363 124.035  0.00  0.00    +0.000 A 
ATOM     14  C   UNL     1      -8.176  -2.057 123.543  0.00  0.00    +0.000 A 
ENDBRANCH   4   9
TORSDOF 1
ENDMDL
MODEL 9
REMARK VINA RESULT:      -5.7     10.621     11.867
REMARK  Name = Pirfenidone
REMARK  2 active torsions:
REMARK  status: ('A' for Active; 'I' for Inactive)
REMARK    1  A    between atoms: C_1  and  C_2
REMARK    2  A    between atoms: N_4  and  C_9
REMARK                            x       y       z     vdW  Elec       q    Type
REMARK                         _______ _______ _______ _____ _____    ______ ____
ROOT
ATOM      1  C   UNL     1      -9.761  -0.344 122.519  0.00  0.00    +0.000 C 
ATOM      2  C   UNL     1      -8.751  -1.151 123.280  0.00  0.00    +0.000 A 
ATOM      3  C   UNL     1      -8.962  -1.638 124.515  0.00  0.00    +0.000 A 
ATOM      4  N   UNL     1      -7.940  -2.226 125.261  0.00  0.00    +0.000 N 
ATOM      5  C   UNL     1      -6.665  -2.419 124.716  0.00  0.00    +0.000 A 
ATOM      6  O   UNL     1      -5.680  -2.874 125.307  0.00  0.00    +0.000 OA
ATOM      7  C   UNL     1      -6.513  -2.069 123.280  0.00  0.00    +0.000 A 
ATOM      8  C   UNL     1      -7.480  -1.403 122.638  0.00  0.00    +0.000 A 
ENDROOT
BRANCH   4   9
ATOM      9  C   UNL     1      -8.132  -2.480 126.653  0.00  0.00    +0.000 A 
ATOM     10  C   UNL     1      -7.660  -1.568 127.602  0.00  0.00    +0.000 A 
ATOM     11  C   UNL     1      -7.702  -1.885 128.960  0.00  0.00    +0.000 A 
ATOM     12  C   UNL     1      -8.278  -3.083 129.383  0.00  0.00    +0.000 A 
ATOM     13  C   UNL     1      -8.841  -3.951 128.449  0.00  0.00    +0.000 A 
ATOM     14  C   UNL     1      -8.739  -3.667 127.086  0.00  0.00    +0.000 A 
ENDBRANCH   4   9
TORSDOF 1
ENDMDL
