MODEL 1
REMARK VINA RESULT:      -8.6      0.000      0.000
REMARK  Name = Piritramide
REMARK  8 active torsions:
REMARK  status: ('A' for Active; 'I' for Inactive)
REMARK    1  A    between atoms: C_2  and  C_4
REMARK    2  A    between atoms: C_4  and  N_27
REMARK    3  A    between atoms: N_7  and  C_8
REMARK    4  A    between atoms: C_8  and  C_9
REMARK    5  A    between atoms: C_9  and  C_10
REMARK    6  A    between atoms: C_10  and  C_11
REMARK    7  A    between atoms: C_10  and  C_13
REMARK    8  A    between atoms: C_10  and  C_19
REMARK                            x       y       z     vdW  Elec       q    Type
REMARK                         _______ _______ _______ _____ _____    ______ ____
ROOT
ATOM      1  C   UNL     1     -10.103   5.741 129.623  0.00  0.00    +0.000 C 
ATOM      2  C   UNL     1      -8.923   5.138 128.827  0.00  0.00    +0.000 C 
ATOM      3  C   UNL     1      -7.701   5.001 129.693  0.00  0.00    +0.000 C 
ATOM      4  N   UNL     1      -7.373   6.321 130.253  0.00  0.00    +0.000 NA
ATOM      5  C   UNL     1      -8.387   6.808 131.167  0.00  0.00    +0.000 C 
ATOM      6  C   UNL     1      -9.670   6.993 130.412  0.00  0.00    +0.000 C 
ENDROOT
BRANCH   1   7
ATOM      7  N   UNL     1     -11.219   6.174 128.700  0.00  0.00    +0.000 NA
ATOM      8  C   UNL     1     -12.443   6.573 129.442  0.00  0.00    +0.000 C 
ATOM      9  C   UNL     1     -13.595   6.902 128.511  0.00  0.00    +0.000 C 
ATOM     10  C   UNL     1     -13.198   8.011 127.557  0.00  0.00    +0.000 C 
ATOM     11  C   UNL     1     -11.914   7.646 126.837  0.00  0.00    +0.000 C 
ATOM     12  C   UNL     1     -10.815   7.287 127.822  0.00  0.00    +0.000 C 
ENDBRANCH   1   7
BRANCH   1  14
ATOM     13  N   UNL     1     -10.544   4.761 131.971  0.00  0.00    +0.000 N 
ATOM     14  C   UNL     1     -10.606   4.588 130.616  0.00  0.00    +0.000 C 
ATOM     15  O   UNL     1     -10.945   3.471 130.260  0.00  0.00    +0.000 OA
ATOM     16  H   UNL     1     -10.853   3.971 132.523  0.00  0.00    +0.000 HD
ATOM     17  H   UNL     1     -10.361   5.613 132.466  0.00  0.00    +0.000 HD
ENDBRANCH   1  14
BRANCH   4  18
ATOM     18  C   UNL     1      -6.120   6.186 130.949  0.00  0.00    +0.000 C 
BRANCH  18  19
ATOM     19  C   UNL     1      -5.238   5.063 130.447  0.00  0.00    +0.000 C 
BRANCH  19  20
ATOM     20  C   UNL     1      -3.913   5.553 129.873  0.00  0.00    +0.000 C 
BRANCH  20  21
ATOM     21  C   UNL     1      -2.711   5.598 130.939  0.00  0.00    +0.000 A 
ATOM     22  C   UNL     1      -1.685   6.562 130.967  0.00  0.00    +0.000 A 
ATOM     23  C   UNL     1      -0.677   6.568 131.942  0.00  0.00    +0.000 A 
ATOM     24  C   UNL     1      -0.683   5.634 132.961  0.00  0.00    +0.000 A 
ATOM     25  C   UNL     1      -1.609   4.615 132.916  0.00  0.00    +0.000 A 
ATOM     26  C   UNL     1      -2.488   4.542 131.838  0.00  0.00    +0.000 A 
ENDBRANCH  20  21
BRANCH  20  27
ATOM     27  C   UNL     1      -3.623   4.587 128.657  0.00  0.00    +0.000 A 
ATOM     28  C   UNL     1      -4.436   3.484 128.323  0.00  0.00    +0.000 A 
ATOM     29  C   UNL     1      -3.961   2.427 127.558  0.00  0.00    +0.000 A 
ATOM     30  C   UNL     1      -2.860   2.639 126.756  0.00  0.00    +0.000 A 
ATOM     31  C   UNL     1      -2.189   3.857 126.831  0.00  0.00    +0.000 A 
ATOM     32  C   UNL     1      -2.523   4.797 127.814  0.00  0.00    +0.000 A 
ENDBRANCH  20  27
BRANCH  20  33
ATOM     33  C   UNL     1      -4.020   7.003 129.428  0.00  0.00    +0.000 C 
ATOM     34  N   UNL     1      -4.109   8.204 129.057  0.00  0.00    +0.000 NA
ENDBRANCH  20  33
ENDBRANCH  19  20
ENDBRANCH  18  19
ENDBRANCH   4  18
TORSDOF 8
ENDMDL
MODEL 2
REMARK VINA RESULT:      -8.5      1.967      4.197
REMARK  Name = Piritramide
REMARK  8 active torsions:
REMARK  status: ('A' for Active; 'I' for Inactive)
REMARK    1  A    between atoms: C_2  and  C_4
REMARK    2  A    between atoms: C_4  and  N_27
REMARK    3  A    between atoms: N_7  and  C_8
REMARK    4  A    between atoms: C_8  and  C_9
REMARK    5  A    between atoms: C_9  and  C_10
REMARK    6  A    between atoms: C_10  and  C_11
REMARK    7  A    between atoms: C_10  and  C_13
REMARK    8  A    between atoms: C_10  and  C_19
REMARK                            x       y       z     vdW  Elec       q    Type
REMARK                         _______ _______ _______ _____ _____    ______ ____
ROOT
ATOM      1  C   UNL     1      -9.569   5.538 130.821  0.00  0.00    +0.000 C 
ATOM      2  C   UNL     1      -8.328   5.756 129.924  0.00  0.00    +0.000 C 
ATOM      3  C   UNL     1      -7.077   5.273 130.605  0.00  0.00    +0.000 C 
ATOM      4  N   UNL     1      -6.952   5.964 131.899  0.00  0.00    +0.000 NA
ATOM      5  C   UNL     1      -8.007   5.606 132.827  0.00  0.00    +0.000 C 
ATOM      6  C   UNL     1      -9.323   6.046 132.257  0.00  0.00    +0.000 C 
ENDROOT
BRANCH   1   7
ATOM      7  N   UNL     1     -10.764   6.296 130.292  0.00  0.00    +0.000 NA
ATOM      8  C   UNL     1     -11.735   6.639 131.363  0.00  0.00    +0.000 C 
ATOM      9  C   UNL     1     -12.984   7.302 130.813  0.00  0.00    +0.000 C 
ATOM     10  C   UNL     1     -12.616   8.555 130.043  0.00  0.00    +0.000 C 
ATOM     11  C   UNL     1     -11.577   8.233 128.986  0.00  0.00    +0.000 C 
ATOM     12  C   UNL     1     -10.374   7.534 129.593  0.00  0.00    +0.000 C 
ENDBRANCH   1   7
BRANCH   1  14
ATOM     13  N   UNL     1     -10.046   3.285 131.988  0.00  0.00    +0.000 N 
ATOM     14  C   UNL     1      -9.852   3.961 130.816  0.00  0.00    +0.000 C 
ATOM     15  O   UNL     1      -9.787   3.253 129.824  0.00  0.00    +0.000 OA
ATOM     16  H   UNL     1     -10.188   2.287 131.895  0.00  0.00    +0.000 HD
ATOM     17  H   UNL     1     -10.200   3.679 132.897  0.00  0.00    +0.000 HD
ENDBRANCH   1  14
BRANCH   4  18
ATOM     18  C   UNL     1      -5.675   5.595 132.454  0.00  0.00    +0.000 C 
BRANCH  18  19
ATOM     19  C   UNL     1      -4.581   6.621 132.250  0.00  0.00    +0.000 C 
BRANCH  19  20
ATOM     20  C   UNL     1      -3.222   5.996 131.953  0.00  0.00    +0.000 C 
BRANCH  20  21
ATOM     21  C   UNL     1      -3.037   5.518 130.430  0.00  0.00    +0.000 A 
ATOM     22  C   UNL     1      -3.318   4.227 129.943  0.00  0.00    +0.000 A 
ATOM     23  C   UNL     1      -3.165   3.876 128.594  0.00  0.00    +0.000 A 
ATOM     24  C   UNL     1      -2.770   4.820 127.664  0.00  0.00    +0.000 A 
ATOM     25  C   UNL     1      -2.390   6.066 128.112  0.00  0.00    +0.000 A 
ATOM     26  C   UNL     1      -2.391   6.327 129.480  0.00  0.00    +0.000 A 
ENDBRANCH  20  21
BRANCH  20  27
ATOM     27  C   UNL     1      -2.173   7.095 132.386  0.00  0.00    +0.000 A 
ATOM     28  C   UNL     1      -0.802   6.833 132.586  0.00  0.00    +0.000 A 
ATOM     29  C   UNL     1      -0.001   7.666 133.356  0.00  0.00    +0.000 A 
ATOM     30  C   UNL     1      -0.411   8.966 133.562  0.00  0.00    +0.000 A 
ATOM     31  C   UNL     1      -1.663   9.365 133.101  0.00  0.00    +0.000 A 
ATOM     32  C   UNL     1      -2.562   8.428 132.577  0.00  0.00    +0.000 A 
ENDBRANCH  20  27
BRANCH  20  33
ATOM     33  C   UNL     1      -3.039   4.704 132.734  0.00  0.00    +0.000 C 
ATOM     34  N   UNL     1      -2.887   3.633 133.381  0.00  0.00    +0.000 NA
ENDBRANCH  20  33
ENDBRANCH  19  20
ENDBRANCH  18  19
ENDBRANCH   4  18
TORSDOF 8
ENDMDL
MODEL 3
REMARK VINA RESULT:      -8.4      4.213      6.365
REMARK  Name = Piritramide
REMARK  8 active torsions:
REMARK  status: ('A' for Active; 'I' for Inactive)
REMARK    1  A    between atoms: C_2  and  C_4
REMARK    2  A    between atoms: C_4  and  N_27
REMARK    3  A    between atoms: N_7  and  C_8
REMARK    4  A    between atoms: C_8  and  C_9
REMARK    5  A    between atoms: C_9  and  C_10
REMARK    6  A    between atoms: C_10  and  C_11
REMARK    7  A    between atoms: C_10  and  C_13
REMARK    8  A    between atoms: C_10  and  C_19
REMARK                            x       y       z     vdW  Elec       q    Type
REMARK                         _______ _______ _______ _____ _____    ______ ____
ROOT
ATOM      1  C   UNL     1     -10.274   5.706 130.303  0.00  0.00    +0.000 C 
ATOM      2  C   UNL     1     -10.835   4.265 130.292  0.00  0.00    +0.000 C 
ATOM      3  C   UNL     1      -9.727   3.254 130.404  0.00  0.00    +0.000 C 
ATOM      4  N   UNL     1      -8.770   3.484 129.310  0.00  0.00    +0.000 NA
ATOM      5  C   UNL     1      -8.085   4.756 129.426  0.00  0.00    +0.000 C 
ATOM      6  C   UNL     1      -9.094   5.860 129.322  0.00  0.00    +0.000 C 
ENDROOT
BRANCH   1   7
ATOM      7  N   UNL     1     -11.326   6.703 129.877  0.00  0.00    +0.000 NA
ATOM      8  C   UNL     1     -10.772   7.771 129.003  0.00  0.00    +0.000 C 
ATOM      9  C   UNL     1     -11.805   8.829 128.667  0.00  0.00    +0.000 C 
ATOM     10  C   UNL     1     -13.004   8.196 127.991  0.00  0.00    +0.000 C 
ATOM     11  C   UNL     1     -13.544   7.061 128.841  0.00  0.00    +0.000 C 
ATOM     12  C   UNL     1     -12.453   6.060 129.178  0.00  0.00    +0.000 C 
ENDBRANCH   1   7
BRANCH   1  14
ATOM     13  N   UNL     1     -10.601   5.644 132.863  0.00  0.00    +0.000 N 
ATOM     14  C   UNL     1      -9.804   5.990 131.808  0.00  0.00    +0.000 C 
ATOM     15  O   UNL     1      -8.806   6.625 132.110  0.00  0.00    +0.000 OA
ATOM     16  H   UNL     1     -10.241   5.887 133.778  0.00  0.00    +0.000 HD
ATOM     17  H   UNL     1     -11.419   5.065 132.842  0.00  0.00    +0.000 HD
ENDBRANCH   1  14
BRANCH   4  18
ATOM     18  C   UNL     1      -7.810   2.412 129.356  0.00  0.00    +0.000 C 
BRANCH  18  19
ATOM     19  C   UNL     1      -8.387   1.037 129.095  0.00  0.00    +0.000 C 
BRANCH  19  20
ATOM     20  C   UNL     1      -7.536   0.200 128.146  0.00  0.00    +0.000 C 
BRANCH  20  21
ATOM     21  C   UNL     1      -7.934  -1.356 128.105  0.00  0.00    +0.000 A 
ATOM     22  C   UNL     1      -7.888  -2.236 129.203  0.00  0.00    +0.000 A 
ATOM     23  C   UNL     1      -8.277  -3.580 129.115  0.00  0.00    +0.000 A 
ATOM     24  C   UNL     1      -8.776  -4.088 127.929  0.00  0.00    +0.000 A 
ATOM     25  C   UNL     1      -8.746  -3.291 126.807  0.00  0.00    +0.000 A 
ATOM     26  C   UNL     1      -8.193  -2.016 126.892  0.00  0.00    +0.000 A 
ENDBRANCH  20  21
BRANCH  20  27
ATOM     27  C   UNL     1      -7.685   0.912 126.743  0.00  0.00    +0.000 A 
ATOM     28  C   UNL     1      -8.925   1.283 126.182  0.00  0.00    +0.000 A 
ATOM     29  C   UNL     1      -9.078   1.500 124.819  0.00  0.00    +0.000 A 
ATOM     30  C   UNL     1      -7.957   1.790 124.070  0.00  0.00    +0.000 A 
ATOM     31  C   UNL     1      -6.703   1.734 124.673  0.00  0.00    +0.000 A 
ATOM     32  C   UNL     1      -6.559   1.238 125.975  0.00  0.00    +0.000 A 
ENDBRANCH  20  27
BRANCH  20  33
ATOM     33  C   UNL     1      -6.088   0.164 128.608  0.00  0.00    +0.000 C 
ATOM     34  N   UNL     1      -4.888   0.133 128.992  0.00  0.00    +0.000 NA
ENDBRANCH  20  33
ENDBRANCH  19  20
ENDBRANCH  18  19
ENDBRANCH   4  18
TORSDOF 8
ENDMDL
MODEL 4
REMARK VINA RESULT:      -8.4      5.093      6.482
REMARK  Name = Piritramide
REMARK  8 active torsions:
REMARK  status: ('A' for Active; 'I' for Inactive)
REMARK    1  A    between atoms: C_2  and  C_4
REMARK    2  A    between atoms: C_4  and  N_27
REMARK    3  A    between atoms: N_7  and  C_8
REMARK    4  A    between atoms: C_8  and  C_9
REMARK    5  A    between atoms: C_9  and  C_10
REMARK    6  A    between atoms: C_10  and  C_11
REMARK    7  A    between atoms: C_10  and  C_13
REMARK    8  A    between atoms: C_10  and  C_19
REMARK                            x       y       z     vdW  Elec       q    Type
REMARK                         _______ _______ _______ _____ _____    ______ ____
ROOT
ATOM      1  C   UNL     1      -9.972   5.077 130.269  0.00  0.00    +0.000 C 
ATOM      2  C   UNL     1     -10.773   3.773 130.491  0.00  0.00    +0.000 C 
ATOM      3  C   UNL     1      -9.933   2.735 131.183  0.00  0.00    +0.000 C 
ATOM      4  N   UNL     1      -8.716   2.509 130.387  0.00  0.00    +0.000 NA
ATOM      5  C   UNL     1      -7.853   3.673 130.343  0.00  0.00    +0.000 C 
ATOM      6  C   UNL     1      -8.584   4.791 129.660  0.00  0.00    +0.000 C 
ENDROOT
BRANCH   1   7
ATOM      7  N   UNL     1     -10.686   5.998 129.307  0.00  0.00    +0.000 NA
ATOM      8  C   UNL     1     -12.144   6.086 129.585  0.00  0.00    +0.000 C 
ATOM      9  C   UNL     1     -12.874   6.923 128.552  0.00  0.00    +0.000 C 
ATOM     10  C   UNL     1     -12.286   8.319 128.497  0.00  0.00    +0.000 C 
ATOM     11  C   UNL     1     -10.787   8.245 128.277  0.00  0.00    +0.000 C 
ATOM     12  C   UNL     1     -10.121   7.359 129.316  0.00  0.00    +0.000 C 
ENDBRANCH   1   7
BRANCH   1  14
ATOM     13  N   UNL     1     -10.866   5.729 132.602  0.00  0.00    +0.000 N 
ATOM     14  C   UNL     1      -9.831   5.764 131.710  0.00  0.00    +0.000 C 
ATOM     15  O   UNL     1      -8.884   6.453 132.055  0.00  0.00    +0.000 OA
ATOM     16  H   UNL     1     -10.703   6.214 133.475  0.00  0.00    +0.000 HD
ATOM     17  H   UNL     1     -11.697   5.170 132.545  0.00  0.00    +0.000 HD
ENDBRANCH   1  14
BRANCH   4  18
ATOM     18  C   UNL     1      -8.012   1.409 130.993  0.00  0.00    +0.000 C 
BRANCH  18  19
ATOM     19  C   UNL     1      -8.521   0.040 130.596  0.00  0.00    +0.000 C 
BRANCH  19  20
ATOM     20  C   UNL     1      -7.409  -0.995 130.454  0.00  0.00    +0.000 C 
BRANCH  20  21
ATOM     21  C   UNL     1      -7.233  -1.950 131.734  0.00  0.00    +0.000 A 
ATOM     22  C   UNL     1      -7.984  -1.865 132.922  0.00  0.00    +0.000 A 
ATOM     23  C   UNL     1      -7.806  -2.747 133.997  0.00  0.00    +0.000 A 
ATOM     24  C   UNL     1      -6.898  -3.786 133.907  0.00  0.00    +0.000 A 
ATOM     25  C   UNL     1      -6.073  -3.847 132.805  0.00  0.00    +0.000 A 
ATOM     26  C   UNL     1      -6.160  -2.852 131.834  0.00  0.00    +0.000 A 
ENDBRANCH  20  21
BRANCH  20  27
ATOM     27  C   UNL     1      -7.769  -1.789 129.137  0.00  0.00    +0.000 A 
ATOM     28  C   UNL     1      -7.559  -1.284 127.837  0.00  0.00    +0.000 A 
ATOM     29  C   UNL     1      -8.249  -1.778 126.737  0.00  0.00    +0.000 A 
ATOM     30  C   UNL     1      -8.802  -3.038 126.821  0.00  0.00    +0.000 A 
ATOM     31  C   UNL     1      -8.761  -3.719 128.035  0.00  0.00    +0.000 A 
ATOM     32  C   UNL     1      -8.309  -3.080 129.196  0.00  0.00    +0.000 A 
ENDBRANCH  20  27
BRANCH  20  33
ATOM     33  C   UNL     1      -6.052  -0.318 130.352  0.00  0.00    +0.000 C 
ATOM     34  N   UNL     1      -4.927   0.244 130.266  0.00  0.00    +0.000 NA
ENDBRANCH  20  33
ENDBRANCH  19  20
ENDBRANCH  18  19
ENDBRANCH   4  18
TORSDOF 8
ENDMDL
MODEL 5
REMARK VINA RESULT:      -8.3      4.004      5.921
REMARK  Name = Piritramide
REMARK  8 active torsions:
REMARK  status: ('A' for Active; 'I' for Inactive)
REMARK    1  A    between atoms: C_2  and  C_4
REMARK    2  A    between atoms: C_4  and  N_27
REMARK    3  A    between atoms: N_7  and  C_8
REMARK    4  A    between atoms: C_8  and  C_9
REMARK    5  A    between atoms: C_9  and  C_10
REMARK    6  A    between atoms: C_10  and  C_11
REMARK    7  A    between atoms: C_10  and  C_13
REMARK    8  A    between atoms: C_10  and  C_19
REMARK                            x       y       z     vdW  Elec       q    Type
REMARK                         _______ _______ _______ _____ _____    ______ ____
ROOT
ATOM      1  C   UNL     1     -10.296   5.605 130.288  0.00  0.00    +0.000 C 
ATOM      2  C   UNL     1     -10.999   4.232 130.405  0.00  0.00    +0.000 C 
ATOM      3  C   UNL     1      -9.995   3.120 130.528  0.00  0.00    +0.000 C 
ATOM      4  N   UNL     1      -9.086   3.179 129.372  0.00  0.00    +0.000 NA
ATOM      5  C   UNL     1      -8.270   4.377 129.363  0.00  0.00    +0.000 C 
ATOM      6  C   UNL     1      -9.167   5.572 129.237  0.00  0.00    +0.000 C 
ENDROOT
BRANCH   1   7
ATOM      7  N   UNL     1     -11.266   6.678 129.850  0.00  0.00    +0.000 NA
ATOM      8  C   UNL     1     -10.651   7.640 128.897  0.00  0.00    +0.000 C 
ATOM      9  C   UNL     1     -11.593   8.777 128.546  0.00  0.00    +0.000 C 
ATOM     10  C   UNL     1     -12.876   8.231 127.954  0.00  0.00    +0.000 C 
ATOM     11  C   UNL     1     -13.484   7.199 128.886  0.00  0.00    +0.000 C 
ATOM     12  C   UNL     1     -12.480   6.114 129.233  0.00  0.00    +0.000 C 
ENDBRANCH   1   7
BRANCH   1  14
ATOM     13  N   UNL     1     -10.406   5.584 132.867  0.00  0.00    +0.000 N 
ATOM     14  C   UNL     1      -9.710   5.932 131.743  0.00  0.00    +0.000 C 
ATOM     15  O   UNL     1      -8.711   6.601 131.948  0.00  0.00    +0.000 OA
ATOM     16  H   UNL     1      -9.978   5.856 133.743  0.00  0.00    +0.000 HD
ATOM     17  H   UNL     1     -11.205   4.981 132.924  0.00  0.00    +0.000 HD
ENDBRANCH   1  14
BRANCH   4  18
ATOM     18  C   UNL     1      -8.238   2.017 129.440  0.00  0.00    +0.000 C 
BRANCH  18  19
ATOM     19  C   UNL     1      -8.298   1.120 128.223  0.00  0.00    +0.000 C 
BRANCH  19  20
ATOM     20  C   UNL     1      -6.969   1.026 127.481  0.00  0.00    +0.000 C 
BRANCH  20  21
ATOM     21  C   UNL     1      -6.795  -0.313 126.611  0.00  0.00    +0.000 A 
ATOM     22  C   UNL     1      -7.652  -1.429 126.655  0.00  0.00    +0.000 A 
ATOM     23  C   UNL     1      -7.466  -2.561 125.849  0.00  0.00    +0.000 A 
ATOM     24  C   UNL     1      -6.438  -2.602 124.925  0.00  0.00    +0.000 A 
ATOM     25  C   UNL     1      -5.519  -1.576 124.918  0.00  0.00    +0.000 A 
ATOM     26  C   UNL     1      -5.636  -0.549 125.851  0.00  0.00    +0.000 A 
ENDBRANCH  20  21
BRANCH  20  27
ATOM     27  C   UNL     1      -6.904   2.342 126.609  0.00  0.00    +0.000 A 
ATOM     28  C   UNL     1      -5.773   3.181 126.542  0.00  0.00    +0.000 A 
ATOM     29  C   UNL     1      -5.867   4.508 126.139  0.00  0.00    +0.000 A 
ATOM     30  C   UNL     1      -6.958   4.891 125.389  0.00  0.00    +0.000 A 
ATOM     31  C   UNL     1      -7.984   3.977 125.165  0.00  0.00    +0.000 A 
ATOM     32  C   UNL     1      -7.992   2.739 125.819  0.00  0.00    +0.000 A 
ENDBRANCH  20  27
BRANCH  20  33
ATOM     33  C   UNL     1      -5.810   0.942 128.461  0.00  0.00    +0.000 C 
ATOM     34  N   UNL     1      -4.848   0.873 129.273  0.00  0.00    +0.000 NA
ENDBRANCH  20  33
ENDBRANCH  19  20
ENDBRANCH  18  19
ENDBRANCH   4  18
TORSDOF 8
ENDMDL
MODEL 6
REMARK VINA RESULT:      -8.2      2.789      5.293
REMARK  Name = Piritramide
REMARK  8 active torsions:
REMARK  status: ('A' for Active; 'I' for Inactive)
REMARK    1  A    between atoms: C_2  and  C_4
REMARK    2  A    between atoms: C_4  and  N_27
REMARK    3  A    between atoms: N_7  and  C_8
REMARK    4  A    between atoms: C_8  and  C_9
REMARK    5  A    between atoms: C_9  and  C_10
REMARK    6  A    between atoms: C_10  and  C_11
REMARK    7  A    between atoms: C_10  and  C_13
REMARK    8  A    between atoms: C_10  and  C_19
REMARK                            x       y       z     vdW  Elec       q    Type
REMARK                         _______ _______ _______ _____ _____    ______ ____
ROOT
ATOM      1  C   UNL     1     -10.339   5.644 130.276  0.00  0.00    +0.000 C 
ATOM      2  C   UNL     1     -11.007   4.252 130.356  0.00  0.00    +0.000 C 
ATOM      3  C   UNL     1      -9.975   3.164 130.468  0.00  0.00    +0.000 C 
ATOM      4  N   UNL     1      -9.053   3.271 129.325  0.00  0.00    +0.000 NA
ATOM      5  C   UNL     1      -8.269   4.490 129.353  0.00  0.00    +0.000 C 
ATOM      6  C   UNL     1      -9.196   5.664 129.240  0.00  0.00    +0.000 C 
ENDROOT
BRANCH   1   7
ATOM      7  N   UNL     1     -11.331   6.701 129.849  0.00  0.00    +0.000 NA
ATOM      8  C   UNL     1     -10.738   7.682 128.902  0.00  0.00    +0.000 C 
ATOM      9  C   UNL     1     -11.703   8.802 128.561  0.00  0.00    +0.000 C 
ATOM     10  C   UNL     1     -12.977   8.234 127.968  0.00  0.00    +0.000 C 
ATOM     11  C   UNL     1     -13.561   7.184 128.893  0.00  0.00    +0.000 C 
ATOM     12  C   UNL     1     -12.535   6.116 129.230  0.00  0.00    +0.000 C 
ENDBRANCH   1   7
BRANCH   1  14
ATOM     13  N   UNL     1     -10.494   5.589 132.853  0.00  0.00    +0.000 N 
ATOM     14  C   UNL     1      -9.781   5.955 131.746  0.00  0.00    +0.000 C 
ATOM     15  O   UNL     1      -8.788   6.627 131.978  0.00  0.00    +0.000 OA
ATOM     16  H   UNL     1     -10.083   5.852 133.740  0.00  0.00    +0.000 HD
ATOM     17  H   UNL     1     -11.291   4.982 132.888  0.00  0.00    +0.000 HD
ENDBRANCH   1  14
BRANCH   4  18
ATOM     18  C   UNL     1      -8.175   2.131 129.381  0.00  0.00    +0.000 C 
BRANCH  18  19
ATOM     19  C   UNL     1      -6.710   2.454 129.184  0.00  0.00    +0.000 C 
BRANCH  19  20
ATOM     20  C   UNL     1      -6.144   1.897 127.881  0.00  0.00    +0.000 C 
BRANCH  20  21
ATOM     21  C   UNL     1      -7.051   2.195 126.589  0.00  0.00    +0.000 A 
ATOM     22  C   UNL     1      -7.662   1.217 125.781  0.00  0.00    +0.000 A 
ATOM     23  C   UNL     1      -8.469   1.539 124.682  0.00  0.00    +0.000 A 
ATOM     24  C   UNL     1      -8.738   2.859 124.372  0.00  0.00    +0.000 A 
ATOM     25  C   UNL     1      -8.082   3.847 125.073  0.00  0.00    +0.000 A 
ATOM     26  C   UNL     1      -7.154   3.488 126.048  0.00  0.00    +0.000 A 
ENDBRANCH  20  21
BRANCH  20  27
ATOM     27  C   UNL     1      -4.696   2.522 127.777  0.00  0.00    +0.000 A 
ATOM     28  C   UNL     1      -4.099   3.290 128.798  0.00  0.00    +0.000 A 
ATOM     29  C   UNL     1      -3.052   4.165 128.542  0.00  0.00    +0.000 A 
ATOM     30  C   UNL     1      -2.300   3.973 127.403  0.00  0.00    +0.000 A 
ATOM     31  C   UNL     1      -2.685   2.995 126.490  0.00  0.00    +0.000 A 
ATOM     32  C   UNL     1      -3.903   2.321 126.639  0.00  0.00    +0.000 A 
ENDBRANCH  20  27
BRANCH  20  33
ATOM     33  C   UNL     1      -6.100   0.378 127.918  0.00  0.00    +0.000 C 
ATOM     34  N   UNL     1      -6.064  -0.881 127.948  0.00  0.00    +0.000 NA
ENDBRANCH  20  33
ENDBRANCH  19  20
ENDBRANCH  18  19
ENDBRANCH   4  18
TORSDOF 8
ENDMDL
MODEL 7
REMARK VINA RESULT:      -8.2      4.150      5.929
REMARK  Name = Piritramide
REMARK  8 active torsions:
REMARK  status: ('A' for Active; 'I' for Inactive)
REMARK    1  A    between atoms: C_2  and  C_4
REMARK    2  A    between atoms: C_4  and  N_27
REMARK    3  A    between atoms: N_7  and  C_8
REMARK    4  A    between atoms: C_8  and  C_9
REMARK    5  A    between atoms: C_9  and  C_10
REMARK    6  A    between atoms: C_10  and  C_11
REMARK    7  A    between atoms: C_10  and  C_13
REMARK    8  A    between atoms: C_10  and  C_19
REMARK                            x       y       z     vdW  Elec       q    Type
REMARK                         _______ _______ _______ _____ _____    ______ ____
ROOT
ATOM      1  C   UNL     1     -10.000   5.166 130.238  0.00  0.00    +0.000 C 
ATOM      2  C   UNL     1     -10.760   3.840 130.468  0.00  0.00    +0.000 C 
ATOM      3  C   UNL     1      -9.876   2.819 131.129  0.00  0.00    +0.000 C 
ATOM      4  N   UNL     1      -8.675   2.631 130.299  0.00  0.00    +0.000 NA
ATOM      5  C   UNL     1      -7.844   3.817 130.243  0.00  0.00    +0.000 C 
ATOM      6  C   UNL     1      -8.621   4.921 129.590  0.00  0.00    +0.000 C 
ENDROOT
BRANCH   1   7
ATOM      7  N   UNL     1     -10.762   6.077 129.303  0.00  0.00    +0.000 NA
ATOM      8  C   UNL     1     -12.219   6.098 129.599  0.00  0.00    +0.000 C 
ATOM      9  C   UNL     1     -12.995   6.926 128.591  0.00  0.00    +0.000 C 
ATOM     10  C   UNL     1     -12.465   8.345 128.560  0.00  0.00    +0.000 C 
ATOM     11  C   UNL     1     -10.967   8.338 128.322  0.00  0.00    +0.000 C 
ATOM     12  C   UNL     1     -10.254   7.460 129.335  0.00  0.00    +0.000 C 
ENDBRANCH   1   7
BRANCH   1  14
ATOM     13  N   UNL     1     -10.871   5.828 132.576  0.00  0.00    +0.000 N 
ATOM     14  C   UNL     1      -9.838   5.845 131.680  0.00  0.00    +0.000 C 
ATOM     15  O   UNL     1      -8.875   6.511 132.024  0.00  0.00    +0.000 OA
ATOM     16  H   UNL     1     -10.693   6.306 133.451  0.00  0.00    +0.000 HD
ATOM     17  H   UNL     1     -11.713   5.288 132.521  0.00  0.00    +0.000 HD
ENDBRANCH   1  14
BRANCH   4  18
ATOM     18  C   UNL     1      -7.928   1.544 130.877  0.00  0.00    +0.000 C 
BRANCH  18  19
ATOM     19  C   UNL     1      -8.167   0.199 130.226  0.00  0.00    +0.000 C 
BRANCH  19  20
ATOM     20  C   UNL     1      -7.063  -0.201 129.253  0.00  0.00    +0.000 C 
BRANCH  20  21
ATOM     21  C   UNL     1      -6.386  -1.623 129.574  0.00  0.00    +0.000 A 
ATOM     22  C   UNL     1      -5.164  -2.080 129.046  0.00  0.00    +0.000 A 
ATOM     23  C   UNL     1      -4.607  -3.320 129.387  0.00  0.00    +0.000 A 
ATOM     24  C   UNL     1      -5.230  -4.138 130.312  0.00  0.00    +0.000 A 
ATOM     25  C   UNL     1      -6.475  -3.776 130.777  0.00  0.00    +0.000 A 
ATOM     26  C   UNL     1      -7.076  -2.619 130.286  0.00  0.00    +0.000 A 
ENDBRANCH  20  21
BRANCH  20  27
ATOM     27  C   UNL     1      -7.747  -0.151 127.830  0.00  0.00    +0.000 A 
ATOM     28  C   UNL     1      -8.128   1.044 127.186  0.00  0.00    +0.000 A 
ATOM     29  C   UNL     1      -9.083   1.063 126.178  0.00  0.00    +0.000 A 
ATOM     30  C   UNL     1      -9.341  -0.107 125.496  0.00  0.00    +0.000 A 
ATOM     31  C   UNL     1      -8.733  -1.287 125.916  0.00  0.00    +0.000 A 
ATOM     32  C   UNL     1      -7.997  -1.326 127.107  0.00  0.00    +0.000 A 
ENDBRANCH  20  27
BRANCH  20  33
ATOM     33  C   UNL     1      -5.887   0.758 129.347  0.00  0.00    +0.000 C 
ATOM     34  N   UNL     1      -4.912   1.553 129.425  0.00  0.00    +0.000 NA
ENDBRANCH  20  33
ENDBRANCH  19  20
ENDBRANCH  18  19
ENDBRANCH   4  18
TORSDOF 8
ENDMDL
MODEL 8
REMARK VINA RESULT:      -8.2      1.495      2.020
REMARK  Name = Piritramide
REMARK  8 active torsions:
REMARK  status: ('A' for Active; 'I' for Inactive)
REMARK    1  A    between atoms: C_2  and  C_4
REMARK    2  A    between atoms: C_4  and  N_27
REMARK    3  A    between atoms: N_7  and  C_8
REMARK    4  A    between atoms: C_8  and  C_9
REMARK    5  A    between atoms: C_9  and  C_10
REMARK    6  A    between atoms: C_10  and  C_11
REMARK    7  A    between atoms: C_10  and  C_13
REMARK    8  A    between atoms: C_10  and  C_19
REMARK                            x       y       z     vdW  Elec       q    Type
REMARK                         _______ _______ _______ _____ _____    ______ ____
ROOT
ATOM      1  C   UNL     1      -9.699   5.678 129.979  0.00  0.00    +0.000 C 
ATOM      2  C   UNL     1      -8.647   4.918 129.138  0.00  0.00    +0.000 C 
ATOM      3  C   UNL     1      -7.361   4.755 129.900  0.00  0.00    +0.000 C 
ATOM      4  N   UNL     1      -6.886   6.087 130.308  0.00  0.00    +0.000 NA
ATOM      5  C   UNL     1      -7.769   6.727 131.262  0.00  0.00    +0.000 C 
ATOM      6  C   UNL     1      -9.102   6.953 130.611  0.00  0.00    +0.000 C 
ENDROOT
BRANCH   1   7
ATOM      7  N   UNL     1     -10.863   6.122 129.125  0.00  0.00    +0.000 NA
ATOM      8  C   UNL     1     -11.938   6.767 129.925  0.00  0.00    +0.000 C 
ATOM      9  C   UNL     1     -13.150   7.112 129.081  0.00  0.00    +0.000 C 
ATOM     10  C   UNL     1     -12.752   8.026 127.939  0.00  0.00    +0.000 C 
ATOM     11  C   UNL     1     -11.612   7.410 127.150  0.00  0.00    +0.000 C 
ATOM     12  C   UNL     1     -10.448   7.049 128.056  0.00  0.00    +0.000 C 
ENDBRANCH   1   7
BRANCH   1  14
ATOM     13  N   UNL     1     -10.904   3.540 130.781  0.00  0.00    +0.000 N 
ATOM     14  C   UNL     1     -10.187   4.656 131.112  0.00  0.00    +0.000 C 
ATOM     15  O   UNL     1     -10.076   4.853 132.312  0.00  0.00    +0.000 OA
ATOM     16  H   UNL     1     -11.198   2.966 131.561  0.00  0.00    +0.000 HD
ATOM     17  H   UNL     1     -11.048   3.162 129.864  0.00  0.00    +0.000 HD
ENDBRANCH   1  14
BRANCH   4  18
ATOM     18  C   UNL     1      -5.584   5.909 130.899  0.00  0.00    +0.000 C 
BRANCH  18  19
ATOM     19  C   UNL     1      -4.434   6.412 130.053  0.00  0.00    +0.000 C 
BRANCH  19  20
ATOM     20  C   UNL     1      -3.309   5.393 129.905  0.00  0.00    +0.000 C 
BRANCH  20  21
ATOM     21  C   UNL     1      -3.380   4.178 130.953  0.00  0.00    +0.000 A 
ATOM     22  C   UNL     1      -4.127   2.997 130.780  0.00  0.00    +0.000 A 
ATOM     23  C   UNL     1      -4.126   1.955 131.718  0.00  0.00    +0.000 A 
ATOM     24  C   UNL     1      -3.336   2.032 132.850  0.00  0.00    +0.000 A 
ATOM     25  C   UNL     1      -2.668   3.209 133.108  0.00  0.00    +0.000 A 
ATOM     26  C   UNL     1      -2.828   4.287 132.241  0.00  0.00    +0.000 A 
ENDBRANCH  20  21
BRANCH  20  27
ATOM     27  C   UNL     1      -3.397   4.917 128.401  0.00  0.00    +0.000 A 
ATOM     28  C   UNL     1      -4.457   5.256 127.534  0.00  0.00    +0.000 A 
ATOM     29  C   UNL     1      -4.742   4.511 126.397  0.00  0.00    +0.000 A 
ATOM     30  C   UNL     1      -3.748   3.716 125.867  0.00  0.00    +0.000 A 
ATOM     31  C   UNL     1      -2.541   3.590 126.549  0.00  0.00    +0.000 A 
ATOM     32  C   UNL     1      -2.388   4.129 127.833  0.00  0.00    +0.000 A 
ENDBRANCH  20  27
BRANCH  20  33
ATOM     33  C   UNL     1      -1.963   6.028 130.217  0.00  0.00    +0.000 C 
ATOM     34  N   UNL     1      -0.847   6.554 130.476  0.00  0.00    +0.000 NA
ENDBRANCH  20  33
ENDBRANCH  19  20
ENDBRANCH  18  19
ENDBRANCH   4  18
TORSDOF 8
ENDMDL
MODEL 9
REMARK VINA RESULT:      -8.2      4.326      6.558
REMARK  Name = Piritramide
REMARK  8 active torsions:
REMARK  status: ('A' for Active; 'I' for Inactive)
REMARK    1  A    between atoms: C_2  and  C_4
REMARK    2  A    between atoms: C_4  and  N_27
REMARK    3  A    between atoms: N_7  and  C_8
REMARK    4  A    between atoms: C_8  and  C_9
REMARK    5  A    between atoms: C_9  and  C_10
REMARK    6  A    between atoms: C_10  and  C_11
REMARK    7  A    between atoms: C_10  and  C_13
REMARK    8  A    between atoms: C_10  and  C_19
REMARK                            x       y       z     vdW  Elec       q    Type
REMARK                         _______ _______ _______ _____ _____    ______ ____
ROOT
ATOM      1  C   UNL     1     -10.021   5.360 130.104  0.00  0.00    +0.000 C 
ATOM      2  C   UNL     1     -10.606   3.945 130.322  0.00  0.00    +0.000 C 
ATOM      3  C   UNL     1      -9.591   3.032 130.952  0.00  0.00    +0.000 C 
ATOM      4  N   UNL     1      -8.389   3.009 130.102  0.00  0.00    +0.000 NA
ATOM      5  C   UNL     1      -7.714   4.291 130.055  0.00  0.00    +0.000 C 
ATOM      6  C   UNL     1      -8.633   5.299 129.432  0.00  0.00    +0.000 C 
ENDROOT
BRANCH   1   7
ATOM      7  N   UNL     1     -10.907   6.182 129.196  0.00  0.00    +0.000 NA
ATOM      8  C   UNL     1     -12.333   6.143 129.612  0.00  0.00    +0.000 C 
ATOM      9  C   UNL     1     -13.233   6.878 128.637  0.00  0.00    +0.000 C 
ATOM     10  C   UNL     1     -12.787   8.320 128.496  0.00  0.00    +0.000 C 
ATOM     11  C   UNL     1     -11.316   8.378 128.133  0.00  0.00    +0.000 C 
ATOM     12  C   UNL     1     -10.475   7.589 129.122  0.00  0.00    +0.000 C 
ENDBRANCH   1   7
BRANCH   1  14
ATOM     13  N   UNL     1     -10.935   5.881 132.461  0.00  0.00    +0.000 N 
ATOM     14  C   UNL     1      -9.922   6.031 131.555  0.00  0.00    +0.000 C 
ATOM     15  O   UNL     1      -9.039   6.799 131.901  0.00  0.00    +0.000 OA
ATOM     16  H   UNL     1     -10.804   6.364 133.342  0.00  0.00    +0.000 HD
ATOM     17  H   UNL     1     -11.711   5.249 132.405  0.00  0.00    +0.000 HD
ENDBRANCH   1  14
BRANCH   4  18
ATOM     18  C   UNL     1      -7.503   2.016 130.650  0.00  0.00    +0.000 C 
BRANCH  18  19
ATOM     19  C   UNL     1      -7.073   0.945 129.670  0.00  0.00    +0.000 C 
BRANCH  19  20
ATOM     20  C   UNL     1      -7.173  -0.465 130.241  0.00  0.00    +0.000 C 
BRANCH  20  21
ATOM     21  C   UNL     1      -7.711  -1.561 129.197  0.00  0.00    +0.000 A 
ATOM     22  C   UNL     1      -8.099  -2.875 129.524  0.00  0.00    +0.000 A 
ATOM     23  C   UNL     1      -8.590  -3.779 128.572  0.00  0.00    +0.000 A 
ATOM     24  C   UNL     1      -8.758  -3.389 127.256  0.00  0.00    +0.000 A 
ATOM     25  C   UNL     1      -8.299  -2.149 126.874  0.00  0.00    +0.000 A 
ATOM     26  C   UNL     1      -7.659  -1.340 127.810  0.00  0.00    +0.000 A 
ENDBRANCH  20  21
BRANCH  20  27
ATOM     27  C   UNL     1      -5.720  -0.783 130.776  0.00  0.00    +0.000 A 
ATOM     28  C   UNL     1      -4.605  -0.987 129.937  0.00  0.00    +0.000 A 
ATOM     29  C   UNL     1      -3.475  -1.668 130.371  0.00  0.00    +0.000 A 
ATOM     30  C   UNL     1      -3.245  -1.761 131.727  0.00  0.00    +0.000 A 
ATOM     31  C   UNL     1      -4.205  -1.283 132.614  0.00  0.00    +0.000 A 
ATOM     32  C   UNL     1      -5.457  -0.858 132.150  0.00  0.00    +0.000 A 
ENDBRANCH  20  27
BRANCH  20  33
ATOM     33  C   UNL     1      -8.208  -0.525 131.353  0.00  0.00    +0.000 C 
ATOM     34  N   UNL     1      -9.065  -0.575 132.276  0.00  0.00    +0.000 NA
ENDBRANCH  20  33
ENDBRANCH  19  20
ENDBRANCH  18  19
ENDBRANCH   4  18
TORSDOF 8
ENDMDL
