MODEL 1
REMARK VINA RESULT:      -8.1      0.000      0.000
REMARK  Name = Piroxicam
REMARK  3 active torsions:
REMARK  status: ('A' for Active; 'I' for Inactive)
REMARK    1  A    between atoms: C_1  and  N_2
REMARK    2  A    between atoms: C_3  and  C_4
REMARK    3  A    between atoms: C_13  and  O_14
REMARK                            x       y       z     vdW  Elec       q    Type
REMARK                         _______ _______ _______ _____ _____    ______ ____
ROOT
ATOM      1  C   UNL     1      -9.773   1.331 123.817  0.00  0.00    +0.000 C 
ATOM      2  N   UNL     1      -8.495   0.698 123.413  0.00  0.00    +0.000 N 
ATOM      3  C   UNL     1      -7.260   1.244 123.981  0.00  0.00    +0.000 C 
ATOM      4  C   UNL     1      -6.767   0.652 125.095  0.00  0.00    +0.000 C 
ATOM      5  C   UNL     1      -7.402  -0.517 125.746  0.00  0.00    +0.000 A 
ATOM      6  C   UNL     1      -8.276  -1.361 125.064  0.00  0.00    +0.000 A 
ATOM      7  C   UNL     1      -8.918  -2.429 125.695  0.00  0.00    +0.000 A 
ATOM      8  C   UNL     1      -8.621  -2.701 127.030  0.00  0.00    +0.000 A 
ATOM      9  C   UNL     1      -7.705  -1.908 127.718  0.00  0.00    +0.000 A 
ATOM     10  C   UNL     1      -7.114  -0.818 127.084  0.00  0.00    +0.000 A 
ATOM     11  S   UNL     1      -8.543  -1.004 123.363  0.00  0.00    +0.000 S 
ATOM     12  O   UNL     1      -9.883  -1.429 123.029  0.00  0.00    +0.000 OA
ATOM     13  O   UNL     1      -7.383  -1.496 122.643  0.00  0.00    +0.000 OA
ENDROOT
BRANCH   3  14
ATOM     14  C   UNL     1      -6.705   2.469 123.272  0.00  0.00    +0.000 C 
ATOM     15  O   UNL     1      -6.326   3.424 123.952  0.00  0.00    +0.000 OA
ATOM     16  N   UNL     1      -6.671   2.465 121.887  0.00  0.00    +0.000 N 
ATOM     17  C   UNL     1      -6.156   3.533 121.141  0.00  0.00    +0.000 A 
ATOM     18  N   UNL     1      -6.808   3.789 119.987  0.00  0.00    +0.000 NA
ATOM     19  C   UNL     1      -6.397   4.870 119.283  0.00  0.00    +0.000 A 
ATOM     20  C   UNL     1      -5.316   5.658 119.642  0.00  0.00    +0.000 A 
ATOM     21  C   UNL     1      -4.608   5.316 120.786  0.00  0.00    +0.000 A 
ATOM     22  C   UNL     1      -5.036   4.241 121.552  0.00  0.00    +0.000 A 
ATOM     23  H   UNL     1      -7.370   1.978 121.348  0.00  0.00    +0.000 HD
ENDBRANCH   3  14
BRANCH   4  24
ATOM     24  O   UNL     1      -5.636   1.052 125.781  0.00  0.00    +0.000 OA
ATOM     25  H   UNL     1      -5.737   1.948 126.129  0.00  0.00    +0.000 HD
ENDBRANCH   4  24
TORSDOF 2
ENDMDL
MODEL 2
REMARK VINA RESULT:      -8.0      2.010      3.603
REMARK  Name = Piroxicam
REMARK  3 active torsions:
REMARK  status: ('A' for Active; 'I' for Inactive)
REMARK    1  A    between atoms: C_1  and  N_2
REMARK    2  A    between atoms: C_3  and  C_4
REMARK    3  A    between atoms: C_13  and  O_14
REMARK                            x       y       z     vdW  Elec       q    Type
REMARK                         _______ _______ _______ _____ _____    ______ ____
ROOT
ATOM      1  C   UNL     1      -5.538  -0.148 125.627  0.00  0.00    +0.000 C 
ATOM      2  N   UNL     1      -6.892   0.355 125.959  0.00  0.00    +0.000 N 
ATOM      3  C   UNL     1      -8.002  -0.078 125.106  0.00  0.00    +0.000 C 
ATOM      4  C   UNL     1      -8.715  -1.159 125.505  0.00  0.00    +0.000 C 
ATOM      5  C   UNL     1      -8.437  -1.902 126.755  0.00  0.00    +0.000 A 
ATOM      6  C   UNL     1      -7.738  -1.331 127.817  0.00  0.00    +0.000 A 
ATOM      7  C   UNL     1      -7.427  -2.052 128.972  0.00  0.00    +0.000 A 
ATOM      8  C   UNL     1      -7.892  -3.362 129.096  0.00  0.00    +0.000 A 
ATOM      9  C   UNL     1      -8.644  -3.936 128.073  0.00  0.00    +0.000 A 
ATOM     10  C   UNL     1      -8.899  -3.216 126.909  0.00  0.00    +0.000 A 
ATOM     11  S   UNL     1      -7.252   0.347 127.624  0.00  0.00    +0.000 S 
ATOM     12  O   UNL     1      -6.030   0.541 128.371  0.00  0.00    +0.000 OA
ATOM     13  O   UNL     1      -8.431   1.157 127.863  0.00  0.00    +0.000 OA
ENDROOT
BRANCH   3  14
ATOM     14  C   UNL     1      -8.184   0.717 123.823  0.00  0.00    +0.000 C 
ATOM     15  O   UNL     1      -9.071   0.377 123.039  0.00  0.00    +0.000 OA
ATOM     16  N   UNL     1      -7.327   1.779 123.584  0.00  0.00    +0.000 N 
ATOM     17  C   UNL     1      -7.428   2.589 122.445  0.00  0.00    +0.000 A 
ATOM     18  N   UNL     1      -6.249   3.006 121.936  0.00  0.00    +0.000 NA
ATOM     19  C   UNL     1      -6.300   3.715 120.784  0.00  0.00    +0.000 A 
ATOM     20  C   UNL     1      -7.480   4.091 120.162  0.00  0.00    +0.000 A 
ATOM     21  C   UNL     1      -8.679   3.725 120.758  0.00  0.00    +0.000 A 
ATOM     22  C   UNL     1      -8.655   2.957 121.914  0.00  0.00    +0.000 A 
ATOM     23  H   UNL     1      -6.373   1.765 123.909  0.00  0.00    +0.000 HD
ENDBRANCH   3  14
BRANCH   4  24
ATOM     24  O   UNL     1      -9.769  -1.723 124.813  0.00  0.00    +0.000 OA
ATOM     25  H   UNL     1      -9.602  -2.655 124.620  0.00  0.00    +0.000 HD
ENDBRANCH   4  24
TORSDOF 2
ENDMDL
MODEL 3
REMARK VINA RESULT:      -7.9      8.781      9.660
REMARK  Name = Piroxicam
REMARK  3 active torsions:
REMARK  status: ('A' for Active; 'I' for Inactive)
REMARK    1  A    between atoms: C_1  and  N_2
REMARK    2  A    between atoms: C_3  and  C_4
REMARK    3  A    between atoms: C_13  and  O_14
REMARK                            x       y       z     vdW  Elec       q    Type
REMARK                         _______ _______ _______ _____ _____    ______ ____
ROOT
ATOM      1  C   UNL     1      -6.937   4.831 131.107  0.00  0.00    +0.000 C 
ATOM      2  N   UNL     1      -7.988   4.706 132.145  0.00  0.00    +0.000 N 
ATOM      3  C   UNL     1      -9.347   4.388 131.697  0.00  0.00    +0.000 C 
ATOM      4  C   UNL     1      -9.717   3.084 131.699  0.00  0.00    +0.000 C 
ATOM      5  C   UNL     1      -8.831   1.985 132.142  0.00  0.00    +0.000 A 
ATOM      6  C   UNL     1      -7.738   2.205 132.979  0.00  0.00    +0.000 A 
ATOM      7  C   UNL     1      -6.870   1.177 133.350  0.00  0.00    +0.000 A 
ATOM      8  C   UNL     1      -7.144  -0.124 132.927  0.00  0.00    +0.000 A 
ATOM      9  C   UNL     1      -8.264  -0.381 132.138  0.00  0.00    +0.000 A 
ATOM     10  C   UNL     1      -9.088   0.668 131.739  0.00  0.00    +0.000 A 
ATOM     11  S   UNL     1      -7.498   3.855 133.537  0.00  0.00    +0.000 S 
ATOM     12  O   UNL     1      -6.081   4.052 133.736  0.00  0.00    +0.000 OA
ATOM     13  O   UNL     1      -8.459   4.083 134.600  0.00  0.00    +0.000 OA
ENDROOT
BRANCH   3  14
ATOM     14  C   UNL     1     -10.168   5.574 131.220  0.00  0.00    +0.000 C 
ATOM     15  O   UNL     1     -10.219   6.580 131.928  0.00  0.00    +0.000 OA
ATOM     16  N   UNL     1     -10.843   5.461 130.014  0.00  0.00    +0.000 N 
ATOM     17  C   UNL     1     -11.605   6.506 129.475  0.00  0.00    +0.000 A 
ATOM     18  N   UNL     1     -12.728   6.118 128.833  0.00  0.00    +0.000 NA
ATOM     19  C   UNL     1     -13.537   7.103 128.376  0.00  0.00    +0.000 A 
ATOM     20  C   UNL     1     -13.237   8.452 128.466  0.00  0.00    +0.000 A 
ATOM     21  C   UNL     1     -12.032   8.817 129.052  0.00  0.00    +0.000 A 
ATOM     22  C   UNL     1     -11.204   7.830 129.571  0.00  0.00    +0.000 A 
ATOM     23  H   UNL     1     -11.205   4.575 129.699  0.00  0.00    +0.000 HD
ENDBRANCH   3  14
BRANCH   4  24
ATOM     24  O   UNL     1     -10.942   2.600 131.281  0.00  0.00    +0.000 OA
ATOM     25  H   UNL     1     -11.472   3.297 130.872  0.00  0.00    +0.000 HD
ENDBRANCH   4  24
TORSDOF 2
ENDMDL
MODEL 4
REMARK VINA RESULT:      -7.6      3.536      6.713
REMARK  Name = Piroxicam
REMARK  3 active torsions:
REMARK  status: ('A' for Active; 'I' for Inactive)
REMARK    1  A    between atoms: C_1  and  N_2
REMARK    2  A    between atoms: C_3  and  C_4
REMARK    3  A    between atoms: C_13  and  O_14
REMARK                            x       y       z     vdW  Elec       q    Type
REMARK                         _______ _______ _______ _____ _____    ______ ____
ROOT
ATOM      1  C   UNL     1      -5.657   3.896 123.413  0.00  0.00    +0.000 C 
ATOM      2  N   UNL     1      -6.392   3.511 124.641  0.00  0.00    +0.000 N 
ATOM      3  C   UNL     1      -6.170   2.161 125.167  0.00  0.00    +0.000 C 
ATOM      4  C   UNL     1      -5.231   2.012 126.133  0.00  0.00    +0.000 C 
ATOM      5  C   UNL     1      -4.443   3.136 126.685  0.00  0.00    +0.000 A 
ATOM      6  C   UNL     1      -4.873   4.459 126.593  0.00  0.00    +0.000 A 
ATOM      7  C   UNL     1      -4.101   5.524 127.063  0.00  0.00    +0.000 A 
ATOM      8  C   UNL     1      -2.895   5.249 127.708  0.00  0.00    +0.000 A 
ATOM      9  C   UNL     1      -2.471   3.932 127.866  0.00  0.00    +0.000 A 
ATOM     10  C   UNL     1      -3.232   2.889 127.345  0.00  0.00    +0.000 A 
ATOM     11  S   UNL     1      -6.438   4.723 125.838  0.00  0.00    +0.000 S 
ATOM     12  O   UNL     1      -6.406   6.019 125.198  0.00  0.00    +0.000 OA
ATOM     13  O   UNL     1      -7.445   4.383 126.825  0.00  0.00    +0.000 OA
ENDROOT
BRANCH   3  14
ATOM     14  C   UNL     1      -6.993   1.065 124.510  0.00  0.00    +0.000 C 
ATOM     15  O   UNL     1      -7.518   1.294 123.420  0.00  0.00    +0.000 OA
ATOM     16  N   UNL     1      -7.133  -0.139 125.181  0.00  0.00    +0.000 N 
ATOM     17  C   UNL     1      -7.849  -1.221 124.649  0.00  0.00    +0.000 A 
ATOM     18  N   UNL     1      -8.543  -1.943 125.554  0.00  0.00    +0.000 NA
ATOM     19  C   UNL     1      -9.319  -2.941 125.069  0.00  0.00    +0.000 A 
ATOM     20  C   UNL     1      -9.372  -3.295 123.730  0.00  0.00    +0.000 A 
ATOM     21  C   UNL     1      -8.578  -2.591 122.835  0.00  0.00    +0.000 A 
ATOM     22  C   UNL     1      -7.808  -1.533 123.299  0.00  0.00    +0.000 A 
ATOM     23  H   UNL     1      -7.154  -0.178 126.187  0.00  0.00    +0.000 HD
ENDBRANCH   3  14
BRANCH   4  24
ATOM     24  O   UNL     1      -4.870   0.814 126.718  0.00  0.00    +0.000 OA
ATOM     25  H   UNL     1      -4.547   0.948 127.619  0.00  0.00    +0.000 HD
ENDBRANCH   4  24
TORSDOF 2
ENDMDL
MODEL 5
REMARK VINA RESULT:      -7.6      7.371      8.838
REMARK  Name = Piroxicam
REMARK  3 active torsions:
REMARK  status: ('A' for Active; 'I' for Inactive)
REMARK    1  A    between atoms: C_1  and  N_2
REMARK    2  A    between atoms: C_3  and  C_4
REMARK    3  A    between atoms: C_13  and  O_14
REMARK                            x       y       z     vdW  Elec       q    Type
REMARK                         _______ _______ _______ _____ _____    ______ ____
ROOT
ATOM      1  C   UNL     1      -9.766   3.276 130.765  0.00  0.00    +0.000 C 
ATOM      2  N   UNL     1      -9.015   4.540 130.583  0.00  0.00    +0.000 N 
ATOM      3  C   UNL     1      -8.904   5.072 129.221  0.00  0.00    +0.000 C 
ATOM      4  C   UNL     1      -9.816   5.996 128.835  0.00  0.00    +0.000 C 
ATOM      5  C   UNL     1     -10.893   6.499 129.717  0.00  0.00    +0.000 A 
ATOM      6  C   UNL     1     -10.815   6.410 131.106  0.00  0.00    +0.000 A 
ATOM      7  C   UNL     1     -11.857   6.833 131.935  0.00  0.00    +0.000 A 
ATOM      8  C   UNL     1     -12.979   7.427 131.358  0.00  0.00    +0.000 A 
ATOM      9  C   UNL     1     -13.056   7.582 129.976  0.00  0.00    +0.000 A 
ATOM     10  C   UNL     1     -12.028   7.108 129.165  0.00  0.00    +0.000 A 
ATOM     11  S   UNL     1      -9.338   5.722 131.766  0.00  0.00    +0.000 S 
ATOM     12  O   UNL     1      -9.674   5.066 133.009  0.00  0.00    +0.000 OA
ATOM     13  O   UNL     1      -8.324   6.758 131.698  0.00  0.00    +0.000 OA
ENDROOT
BRANCH   3  14
ATOM     14  C   UNL     1      -7.797   4.466 128.375  0.00  0.00    +0.000 C 
ATOM     15  O   UNL     1      -8.093   3.955 127.294  0.00  0.00    +0.000 OA
ATOM     16  N   UNL     1      -6.503   4.495 128.870  0.00  0.00    +0.000 N 
ATOM     17  C   UNL     1      -5.409   3.987 128.157  0.00  0.00    +0.000 A 
ATOM     18  N   UNL     1      -4.468   3.384 128.912  0.00  0.00    +0.000 NA
ATOM     19  C   UNL     1      -3.440   2.800 128.252  0.00  0.00    +0.000 A 
ATOM     20  C   UNL     1      -3.274   2.860 126.877  0.00  0.00    +0.000 A 
ATOM     21  C   UNL     1      -4.211   3.565 126.135  0.00  0.00    +0.000 A 
ATOM     22  C   UNL     1      -5.300   4.133 126.782  0.00  0.00    +0.000 A 
ATOM     23  H   UNL     1      -6.321   4.441 129.860  0.00  0.00    +0.000 HD
ENDBRANCH   3  14
BRANCH   4  24
ATOM     24  O   UNL     1      -9.883   6.579 127.584  0.00  0.00    +0.000 OA
ATOM     25  H   UNL     1      -9.170   6.264 127.013  0.00  0.00    +0.000 HD
ENDBRANCH   4  24
TORSDOF 2
ENDMDL
MODEL 6
REMARK VINA RESULT:      -7.5      1.809      2.454
REMARK  Name = Piroxicam
REMARK  3 active torsions:
REMARK  status: ('A' for Active; 'I' for Inactive)
REMARK    1  A    between atoms: C_1  and  N_2
REMARK    2  A    between atoms: C_3  and  C_4
REMARK    3  A    between atoms: C_13  and  O_14
REMARK                            x       y       z     vdW  Elec       q    Type
REMARK                         _______ _______ _______ _____ _____    ______ ____
ROOT
ATOM      1  C   UNL     1      -6.198   2.709 126.415  0.00  0.00    +0.000 C 
ATOM      2  N   UNL     1      -7.300   2.438 125.461  0.00  0.00    +0.000 N 
ATOM      3  C   UNL     1      -6.936   1.973 124.120  0.00  0.00    +0.000 C 
ATOM      4  C   UNL     1      -6.923   0.635 123.904  0.00  0.00    +0.000 C 
ATOM      5  C   UNL     1      -7.272  -0.362 124.941  0.00  0.00    +0.000 A 
ATOM      6  C   UNL     1      -8.040  -0.034 126.056  0.00  0.00    +0.000 A 
ATOM      7  C   UNL     1      -8.320  -0.962 127.062  0.00  0.00    +0.000 A 
ATOM      8  C   UNL     1      -7.877  -2.276 126.910  0.00  0.00    +0.000 A 
ATOM      9  C   UNL     1      -7.158  -2.644 125.775  0.00  0.00    +0.000 A 
ATOM     10  C   UNL     1      -6.847  -1.691 124.809  0.00  0.00    +0.000 A 
ATOM     11  S   UNL     1      -8.630   1.620 126.143  0.00  0.00    +0.000 S 
ATOM     12  O   UNL     1      -8.738   1.977 127.539  0.00  0.00    +0.000 OA
ATOM     13  O   UNL     1      -9.762   1.710 125.240  0.00  0.00    +0.000 OA
ENDROOT
BRANCH   3  14
ATOM     14  C   UNL     1      -6.551   3.064 123.136  0.00  0.00    +0.000 C 
ATOM     15  O   UNL     1      -6.051   4.103 123.571  0.00  0.00    +0.000 OA
ATOM     16  N   UNL     1      -6.801   2.851 121.790  0.00  0.00    +0.000 N 
ATOM     17  C   UNL     1      -6.461   3.783 120.801  0.00  0.00    +0.000 A 
ATOM     18  N   UNL     1      -7.338   3.876 119.779  0.00  0.00    +0.000 NA
ATOM     19  C   UNL     1      -7.092   4.829 118.850  0.00  0.00    +0.000 A 
ATOM     20  C   UNL     1      -5.968   5.640 118.857  0.00  0.00    +0.000 A 
ATOM     21  C   UNL     1      -5.037   5.460 119.871  0.00  0.00    +0.000 A 
ATOM     22  C   UNL     1      -5.289   4.522 120.863  0.00  0.00    +0.000 A 
ATOM     23  H   UNL     1      -7.590   2.302 121.485  0.00  0.00    +0.000 HD
ENDBRANCH   3  14
BRANCH   4  24
ATOM     24  O   UNL     1      -6.574   0.020 122.717  0.00  0.00    +0.000 OA
ATOM     25  H   UNL     1      -6.581   0.648 121.982  0.00  0.00    +0.000 HD
ENDBRANCH   4  24
TORSDOF 2
ENDMDL
MODEL 7
REMARK VINA RESULT:      -7.5      6.918      8.731
REMARK  Name = Piroxicam
REMARK  3 active torsions:
REMARK  status: ('A' for Active; 'I' for Inactive)
REMARK    1  A    between atoms: C_1  and  N_2
REMARK    2  A    between atoms: C_3  and  C_4
REMARK    3  A    between atoms: C_13  and  O_14
REMARK                            x       y       z     vdW  Elec       q    Type
REMARK                         _______ _______ _______ _____ _____    ______ ____
ROOT
ATOM      1  C   UNL     1      -7.168   3.494 131.757  0.00  0.00    +0.000 C 
ATOM      2  N   UNL     1      -8.477   2.871 131.448  0.00  0.00    +0.000 N 
ATOM      3  C   UNL     1      -9.016   3.062 130.099  0.00  0.00    +0.000 C 
ATOM      4  C   UNL     1      -8.763   2.097 129.181  0.00  0.00    +0.000 C 
ATOM      5  C   UNL     1      -7.994   0.869 129.481  0.00  0.00    +0.000 A 
ATOM      6  C   UNL     1      -7.838   0.390 130.780  0.00  0.00    +0.000 A 
ATOM      7  C   UNL     1      -7.064  -0.737 131.066  0.00  0.00    +0.000 A 
ATOM      8  C   UNL     1      -6.487  -1.445 130.012  0.00  0.00    +0.000 A 
ATOM      9  C   UNL     1      -6.677  -1.021 128.698  0.00  0.00    +0.000 A 
ATOM     10  C   UNL     1      -7.411   0.133 128.440  0.00  0.00    +0.000 A 
ATOM     11  S   UNL     1      -8.657   1.287 132.050  0.00  0.00    +0.000 S 
ATOM     12  O   UNL     1      -7.878   1.151 133.260  0.00  0.00    +0.000 OA
ATOM     13  O   UNL     1     -10.057   0.911 131.996  0.00  0.00    +0.000 OA
ENDROOT
BRANCH   3  14
ATOM     14  C   UNL     1      -9.753   4.371 129.873  0.00  0.00    +0.000 C 
ATOM     15  O   UNL     1      -9.353   5.130 128.989  0.00  0.00    +0.000 OA
ATOM     16  N   UNL     1     -10.835   4.663 130.689  0.00  0.00    +0.000 N 
ATOM     17  C   UNL     1     -11.596   5.831 130.546  0.00  0.00    +0.000 A 
ATOM     18  N   UNL     1     -12.033   6.371 131.703  0.00  0.00    +0.000 NA
ATOM     19  C   UNL     1     -12.695   7.549 131.612  0.00  0.00    +0.000 A 
ATOM     20  C   UNL     1     -13.005   8.168 130.413  0.00  0.00    +0.000 A 
ATOM     21  C   UNL     1     -12.621   7.543 129.234  0.00  0.00    +0.000 A 
ATOM     22  C   UNL     1     -11.899   6.359 129.300  0.00  0.00    +0.000 A 
ATOM     23  H   UNL     1     -10.866   4.350 131.647  0.00  0.00    +0.000 HD
ENDBRANCH   3  14
BRANCH   4  24
ATOM     24  O   UNL     1      -9.164   2.126 127.860  0.00  0.00    +0.000 OA
ATOM     25  H   UNL     1      -8.403   2.146 127.264  0.00  0.00    +0.000 HD
ENDBRANCH   4  24
TORSDOF 2
ENDMDL
MODEL 8
REMARK VINA RESULT:      -7.4      2.320      7.146
REMARK  Name = Piroxicam
REMARK  3 active torsions:
REMARK  status: ('A' for Active; 'I' for Inactive)
REMARK    1  A    between atoms: C_1  and  N_2
REMARK    2  A    between atoms: C_3  and  C_4
REMARK    3  A    between atoms: C_13  and  O_14
REMARK                            x       y       z     vdW  Elec       q    Type
REMARK                         _______ _______ _______ _____ _____    ______ ____
ROOT
ATOM      1  C   UNL     1      -8.396  -1.092 122.966  0.00  0.00    +0.000 C 
ATOM      2  N   UNL     1      -8.641  -0.046 123.987  0.00  0.00    +0.000 N 
ATOM      3  C   UNL     1      -7.484   0.455 124.734  0.00  0.00    +0.000 C 
ATOM      4  C   UNL     1      -6.880   1.577 124.272  0.00  0.00    +0.000 C 
ATOM      5  C   UNL     1      -7.339   2.318 123.076  0.00  0.00    +0.000 A 
ATOM      6  C   UNL     1      -8.638   2.200 122.585  0.00  0.00    +0.000 A 
ATOM      7  C   UNL     1      -9.053   2.855 121.423  0.00  0.00    +0.000 A 
ATOM      8  C   UNL     1      -8.161   3.709 120.775  0.00  0.00    +0.000 A 
ATOM      9  C   UNL     1      -6.875   3.891 121.279  0.00  0.00    +0.000 A 
ATOM     10  C   UNL     1      -6.467   3.189 122.410  0.00  0.00    +0.000 A 
ATOM     11  S   UNL     1      -9.731   1.168 123.497  0.00  0.00    +0.000 S 
ATOM     12  O   UNL     1     -10.681   0.601 122.568  0.00  0.00    +0.000 OA
ATOM     13  O   UNL     1     -10.156   1.928 124.658  0.00  0.00    +0.000 OA
ENDROOT
BRANCH   3  14
ATOM     14  C   UNL     1      -7.059  -0.393 125.920  0.00  0.00    +0.000 C 
ATOM     15  O   UNL     1      -5.858  -0.483 126.182  0.00  0.00    +0.000 OA
ATOM     16  N   UNL     1      -8.043  -1.048 126.644  0.00  0.00    +0.000 N 
ATOM     17  C   UNL     1      -7.757  -1.833 127.769  0.00  0.00    +0.000 A 
ATOM     18  N   UNL     1      -8.525  -2.935 127.904  0.00  0.00    +0.000 NA
ATOM     19  C   UNL     1      -8.220  -3.767 128.928  0.00  0.00    +0.000 A 
ATOM     20  C   UNL     1      -7.234  -3.506 129.865  0.00  0.00    +0.000 A 
ATOM     21  C   UNL     1      -6.520  -2.321 129.752  0.00  0.00    +0.000 A 
ATOM     22  C   UNL     1      -6.780  -1.472 128.685  0.00  0.00    +0.000 A 
ATOM     23  H   UNL     1      -8.884  -1.381 126.200  0.00  0.00    +0.000 HD
ENDBRANCH   3  14
BRANCH   4  24
ATOM     24  O   UNL     1      -5.763   2.170 124.829  0.00  0.00    +0.000 OA
ATOM     25  H   UNL     1      -5.380   1.615 125.520  0.00  0.00    +0.000 HD
ENDBRANCH   4  24
TORSDOF 2
ENDMDL
MODEL 9
REMARK VINA RESULT:      -7.3      3.854      4.529
REMARK  Name = Piroxicam
REMARK  3 active torsions:
REMARK  status: ('A' for Active; 'I' for Inactive)
REMARK    1  A    between atoms: C_1  and  N_2
REMARK    2  A    between atoms: C_3  and  C_4
REMARK    3  A    between atoms: C_13  and  O_14
REMARK                            x       y       z     vdW  Elec       q    Type
REMARK                         _______ _______ _______ _____ _____    ______ ____
ROOT
ATOM      1  C   UNL     1      -8.826   1.240 126.246  0.00  0.00    +0.000 C 
ATOM      2  N   UNL     1      -7.698   1.069 125.299  0.00  0.00    +0.000 N 
ATOM      3  C   UNL     1      -6.494   0.396 125.794  0.00  0.00    +0.000 C 
ATOM      4  C   UNL     1      -6.388  -0.937 125.576  0.00  0.00    +0.000 C 
ATOM      5  C   UNL     1      -7.409  -1.729 124.855  0.00  0.00    +0.000 A 
ATOM      6  C   UNL     1      -8.324  -1.142 123.984  0.00  0.00    +0.000 A 
ATOM      7  C   UNL     1      -9.324  -1.883 123.349  0.00  0.00    +0.000 A 
ATOM      8  C   UNL     1      -9.363  -3.264 123.538  0.00  0.00    +0.000 A 
ATOM      9  C   UNL     1      -8.422  -3.884 124.358  0.00  0.00    +0.000 A 
ATOM     10  C   UNL     1      -7.466  -3.120 125.020  0.00  0.00    +0.000 A 
ATOM     11  S   UNL     1      -8.167   0.591 123.733  0.00  0.00    +0.000 S 
ATOM     12  O   UNL     1      -9.483   1.118 123.452  0.00  0.00    +0.000 OA
ATOM     13  O   UNL     1      -7.055   0.784 122.820  0.00  0.00    +0.000 OA
ENDROOT
BRANCH   3  14
ATOM     14  C   UNL     1      -5.524   1.281 126.559  0.00  0.00    +0.000 C 
ATOM     15  O   UNL     1      -4.970   0.822 127.560  0.00  0.00    +0.000 OA
ATOM     16  N   UNL     1      -5.320   2.575 126.107  0.00  0.00    +0.000 N 
ATOM     17  C   UNL     1      -4.427   3.460 126.726  0.00  0.00    +0.000 A 
ATOM     18  N   UNL     1      -4.829   4.748 126.750  0.00  0.00    +0.000 NA
ATOM     19  C   UNL     1      -4.036   5.619 127.419  0.00  0.00    +0.000 A 
ATOM     20  C   UNL     1      -2.826   5.273 127.996  0.00  0.00    +0.000 A 
ATOM     21  C   UNL     1      -2.395   3.958 127.876  0.00  0.00    +0.000 A 
ATOM     22  C   UNL     1      -3.211   3.034 127.237  0.00  0.00    +0.000 A 
ATOM     23  H   UNL     1      -6.058   3.093 125.656  0.00  0.00    +0.000 HD
ENDBRANCH   3  14
BRANCH   4  24
ATOM     24  O   UNL     1      -5.343  -1.735 125.998  0.00  0.00    +0.000 OA
ATOM     25  H   UNL     1      -4.944  -1.390 126.808  0.00  0.00    +0.000 HD
ENDBRANCH   4  24
TORSDOF 2
ENDMDL
