MODEL 1
REMARK VINA RESULT:      -6.5      0.000      0.000
REMARK  Name = Pitolisant
REMARK  8 active torsions:
REMARK  status: ('A' for Active; 'I' for Inactive)
REMARK    1  A    between atoms: C_5  and  C_6
REMARK    2  A    between atoms: C_6  and  C_7
REMARK    3  A    between atoms: C_7  and  C_8
REMARK    4  A    between atoms: C_8  and  O_9
REMARK    5  A    between atoms: O_9  and  C_10
REMARK    6  A    between atoms: C_10  and  C_11
REMARK    7  A    between atoms: C_11  and  C_12
REMARK    8  A    between atoms: C_12  and  N_13
REMARK                            x       y       z     vdW  Elec       q    Type
REMARK                         _______ _______ _______ _____ _____    ______ ____
ROOT
ATOM      1  C   UNL     1      -8.947  -0.811 123.430  0.00  0.00    +0.000 C 
ENDROOT
BRANCH   1   2
ATOM      2  C   UNL     1      -9.048  -2.308 123.302  0.00  0.00    +0.000 C 
BRANCH   2   3
ATOM      3  C   UNL     1      -7.839  -2.996 123.919  0.00  0.00    +0.000 C 
BRANCH   3   8
ATOM      4 CL   UNL     1      -7.844  -2.981 129.946  0.00  0.00    +0.000 Cl
ATOM      5  C   UNL     1      -7.849  -2.966 128.227  0.00  0.00    +0.000 A 
ATOM      6  C   UNL     1      -8.879  -3.594 127.526  0.00  0.00    +0.000 A 
ATOM      7  C   UNL     1      -8.868  -3.593 126.127  0.00  0.00    +0.000 A 
ATOM      8  C   UNL     1      -7.832  -2.965 125.429  0.00  0.00    +0.000 A 
ATOM      9  C   UNL     1      -6.812  -2.329 126.159  0.00  0.00    +0.000 A 
ATOM     10  C   UNL     1      -6.820  -2.331 127.550  0.00  0.00    +0.000 A 
ENDBRANCH   3   8
ENDBRANCH   2   3
ENDBRANCH   1   2
BRANCH   1  11
ATOM     11  O   UNL     1     -10.043  -0.261 122.718  0.00  0.00    +0.000 OA
BRANCH  11  12
ATOM     12  C   UNL     1     -10.204   1.106 123.063  0.00  0.00    +0.000 C 
BRANCH  12  13
ATOM     13  C   UNL     1      -8.851   1.755 122.943  0.00  0.00    +0.000 C 
BRANCH  13  14
ATOM     14  C   UNL     1      -8.880   2.852 121.888  0.00  0.00    +0.000 C 
BRANCH  14  15
ATOM     15  N   UNL     1      -7.659   3.662 121.778  0.00  0.00    +0.000 NA
ATOM     16  C   UNL     1      -6.681   3.259 122.793  0.00  0.00    +0.000 C 
ATOM     17  C   UNL     1      -5.486   4.207 122.791  0.00  0.00    +0.000 C 
ATOM     18  C   UNL     1      -4.831   4.269 121.417  0.00  0.00    +0.000 C 
ATOM     19  C   UNL     1      -5.863   4.599 120.346  0.00  0.00    +0.000 C 
ATOM     20  C   UNL     1      -7.057   3.659 120.436  0.00  0.00    +0.000 C 
ENDBRANCH  14  15
ENDBRANCH  13  14
ENDBRANCH  12  13
ENDBRANCH  11  12
ENDBRANCH   1  11
TORSDOF 8
ENDMDL
MODEL 2
REMARK VINA RESULT:      -6.3      3.896      7.515
REMARK  Name = Pitolisant
REMARK  8 active torsions:
REMARK  status: ('A' for Active; 'I' for Inactive)
REMARK    1  A    between atoms: C_5  and  C_6
REMARK    2  A    between atoms: C_6  and  C_7
REMARK    3  A    between atoms: C_7  and  C_8
REMARK    4  A    between atoms: C_8  and  O_9
REMARK    5  A    between atoms: O_9  and  C_10
REMARK    6  A    between atoms: C_10  and  C_11
REMARK    7  A    between atoms: C_11  and  C_12
REMARK    8  A    between atoms: C_12  and  N_13
REMARK                            x       y       z     vdW  Elec       q    Type
REMARK                         _______ _______ _______ _____ _____    ______ ____
ROOT
ATOM      1  C   UNL     1      -7.422   2.492 126.274  0.00  0.00    +0.000 C 
ENDROOT
BRANCH   1   2
ATOM      2  C   UNL     1      -7.308   3.419 125.093  0.00  0.00    +0.000 C 
BRANCH   2   3
ATOM      3  C   UNL     1      -6.356   2.861 124.045  0.00  0.00    +0.000 C 
BRANCH   3   8
ATOM      4 CL   UNL     1      -7.610   4.504 118.383  0.00  0.00    +0.000 Cl
ATOM      5  C   UNL     1      -7.260   4.053 120.005  0.00  0.00    +0.000 A 
ATOM      6  C   UNL     1      -5.944   4.083 120.469  0.00  0.00    +0.000 A 
ATOM      7  C   UNL     1      -5.664   3.699 121.785  0.00  0.00    +0.000 A 
ATOM      8  C   UNL     1      -6.693   3.287 122.636  0.00  0.00    +0.000 A 
ATOM      9  C   UNL     1      -8.011   3.276 122.147  0.00  0.00    +0.000 A 
ATOM     10  C   UNL     1      -8.292   3.656 120.839  0.00  0.00    +0.000 A 
ENDBRANCH   3   8
ENDBRANCH   2   3
ENDBRANCH   1   2
BRANCH   1  11
ATOM     11  O   UNL     1      -7.680   1.196 125.758  0.00  0.00    +0.000 OA
BRANCH  11  12
ATOM     12  C   UNL     1      -8.637   0.536 126.572  0.00  0.00    +0.000 C 
BRANCH  12  13
ATOM     13  C   UNL     1      -9.149  -0.641 125.786  0.00  0.00    +0.000 C 
BRANCH  13  14
ATOM     14  C   UNL     1      -8.756  -0.513 124.321  0.00  0.00    +0.000 C 
BRANCH  14  15
ATOM     15  N   UNL     1      -7.831  -1.538 123.817  0.00  0.00    +0.000 NA
ATOM     16  C   UNL     1      -6.748  -0.919 123.046  0.00  0.00    +0.000 C 
ATOM     17  C   UNL     1      -5.886  -1.988 122.382  0.00  0.00    +0.000 C 
ATOM     18  C   UNL     1      -5.319  -2.959 123.410  0.00  0.00    +0.000 C 
ATOM     19  C   UNL     1      -6.434  -3.535 124.274  0.00  0.00    +0.000 C 
ATOM     20  C   UNL     1      -7.294  -2.425 124.860  0.00  0.00    +0.000 C 
ENDBRANCH  14  15
ENDBRANCH  13  14
ENDBRANCH  12  13
ENDBRANCH  11  12
ENDBRANCH   1  11
TORSDOF 8
ENDMDL
MODEL 3
REMARK VINA RESULT:      -6.2      4.209      8.221
REMARK  Name = Pitolisant
REMARK  8 active torsions:
REMARK  status: ('A' for Active; 'I' for Inactive)
REMARK    1  A    between atoms: C_5  and  C_6
REMARK    2  A    between atoms: C_6  and  C_7
REMARK    3  A    between atoms: C_7  and  C_8
REMARK    4  A    between atoms: C_8  and  O_9
REMARK    5  A    between atoms: O_9  and  C_10
REMARK    6  A    between atoms: C_10  and  C_11
REMARK    7  A    between atoms: C_11  and  C_12
REMARK    8  A    between atoms: C_12  and  N_13
REMARK                            x       y       z     vdW  Elec       q    Type
REMARK                         _______ _______ _______ _____ _____    ______ ____
ROOT
ATOM      1  C   UNL     1      -7.251   3.494 124.924  0.00  0.00    +0.000 C 
ENDROOT
BRANCH   1   2
ATOM      2  C   UNL     1      -7.889   3.295 123.575  0.00  0.00    +0.000 C 
BRANCH   2   3
ATOM      3  C   UNL     1      -6.911   2.674 122.588  0.00  0.00    +0.000 C 
BRANCH   3   8
ATOM      4 CL   UNL     1      -5.884   6.203 117.811  0.00  0.00    +0.000 Cl
ATOM      5  C   UNL     1      -6.165   5.182 119.166  0.00  0.00    +0.000 A 
ATOM      6  C   UNL     1      -7.377   4.501 119.288  0.00  0.00    +0.000 A 
ATOM      7  C   UNL     1      -7.605   3.685 120.401  0.00  0.00    +0.000 A 
ATOM      8  C   UNL     1      -6.627   3.548 121.389  0.00  0.00    +0.000 A 
ATOM      9  C   UNL     1      -5.410   4.235 121.237  0.00  0.00    +0.000 A 
ATOM     10  C   UNL     1      -5.181   5.049 120.132  0.00  0.00    +0.000 A 
ENDBRANCH   3   8
ENDBRANCH   2   3
ENDBRANCH   1   2
BRANCH   1  11
ATOM     11  O   UNL     1      -6.072   2.705 124.943  0.00  0.00    +0.000 OA
BRANCH  11  12
ATOM     12  C   UNL     1      -6.001   1.978 126.159  0.00  0.00    +0.000 C 
BRANCH  12  13
ATOM     13  C   UNL     1      -6.089   0.517 125.807  0.00  0.00    +0.000 C 
BRANCH  13  14
ATOM     14  C   UNL     1      -7.544   0.067 125.772  0.00  0.00    +0.000 C 
BRANCH  14  15
ATOM     15  N   UNL     1      -7.823  -1.122 124.955  0.00  0.00    +0.000 NA
ATOM     16  C   UNL     1      -8.874  -1.937 125.573  0.00  0.00    +0.000 C 
ATOM     17  C   UNL     1      -9.044  -3.252 124.820  0.00  0.00    +0.000 C 
ATOM     18  C   UNL     1      -9.355  -3.011 123.348  0.00  0.00    +0.000 C 
ATOM     19  C   UNL     1      -8.313  -2.091 122.725  0.00  0.00    +0.000 C 
ATOM     20  C   UNL     1      -8.144  -0.824 123.552  0.00  0.00    +0.000 C 
ENDBRANCH  14  15
ENDBRANCH  13  14
ENDBRANCH  12  13
ENDBRANCH  11  12
ENDBRANCH   1  11
TORSDOF 8
ENDMDL
MODEL 4
REMARK VINA RESULT:      -6.2      3.940      7.834
REMARK  Name = Pitolisant
REMARK  8 active torsions:
REMARK  status: ('A' for Active; 'I' for Inactive)
REMARK    1  A    between atoms: C_5  and  C_6
REMARK    2  A    between atoms: C_6  and  C_7
REMARK    3  A    between atoms: C_7  and  C_8
REMARK    4  A    between atoms: C_8  and  O_9
REMARK    5  A    between atoms: O_9  and  C_10
REMARK    6  A    between atoms: C_10  and  C_11
REMARK    7  A    between atoms: C_11  and  C_12
REMARK    8  A    between atoms: C_12  and  N_13
REMARK                            x       y       z     vdW  Elec       q    Type
REMARK                         _______ _______ _______ _____ _____    ______ ____
ROOT
ATOM      1  C   UNL     1      -4.750   2.694 126.387  0.00  0.00    +0.000 C 
ENDROOT
BRANCH   1   2
ATOM      2  C   UNL     1      -5.100   3.488 125.156  0.00  0.00    +0.000 C 
BRANCH   2   3
ATOM      3  C   UNL     1      -6.474   3.104 124.625  0.00  0.00    +0.000 C 
BRANCH   3   8
ATOM      4 CL   UNL     1      -7.325   4.385 118.797  0.00  0.00    +0.000 Cl
ATOM      5  C   UNL     1      -7.072   4.003 120.454  0.00  0.00    +0.000 A 
ATOM      6  C   UNL     1      -8.120   3.490 121.221  0.00  0.00    +0.000 A 
ATOM      7  C   UNL     1      -7.912   3.197 122.572  0.00  0.00    +0.000 A 
ATOM      8  C   UNL     1      -6.661   3.414 123.159  0.00  0.00    +0.000 A 
ATOM      9  C   UNL     1      -5.619   3.920 122.363  0.00  0.00    +0.000 A 
ATOM     10  C   UNL     1      -5.824   4.214 121.018  0.00  0.00    +0.000 A 
ENDBRANCH   3   8
ENDBRANCH   2   3
ENDBRANCH   1   2
BRANCH   1  11
ATOM     11  O   UNL     1      -4.786   1.325 126.018  0.00  0.00    +0.000 OA
BRANCH  11  12
ATOM     12  C   UNL     1      -5.440   0.572 127.028  0.00  0.00    +0.000 C 
BRANCH  12  13
ATOM     13  C   UNL     1      -6.542  -0.204 126.358  0.00  0.00    +0.000 C 
BRANCH  13  14
ATOM     14  C   UNL     1      -6.062  -0.766 125.027  0.00  0.00    +0.000 C 
BRANCH  14  15
ATOM     15  N   UNL     1      -6.928  -1.783 124.415  0.00  0.00    +0.000 NA
ATOM     16  C   UNL     1      -7.478  -2.675 125.441  0.00  0.00    +0.000 C 
ATOM     17  C   UNL     1      -8.237  -3.830 124.795  0.00  0.00    +0.000 C 
ATOM     18  C   UNL     1      -9.347  -3.322 123.883  0.00  0.00    +0.000 C 
ATOM     19  C   UNL     1      -8.794  -2.325 122.873  0.00  0.00    +0.000 C 
ATOM     20  C   UNL     1      -7.998  -1.231 123.570  0.00  0.00    +0.000 C 
ENDBRANCH  14  15
ENDBRANCH  13  14
ENDBRANCH  12  13
ENDBRANCH  11  12
ENDBRANCH   1  11
TORSDOF 8
ENDMDL
MODEL 5
REMARK VINA RESULT:      -6.1      8.427      9.523
REMARK  Name = Pitolisant
REMARK  8 active torsions:
REMARK  status: ('A' for Active; 'I' for Inactive)
REMARK    1  A    between atoms: C_5  and  C_6
REMARK    2  A    between atoms: C_6  and  C_7
REMARK    3  A    between atoms: C_7  and  C_8
REMARK    4  A    between atoms: C_8  and  O_9
REMARK    5  A    between atoms: O_9  and  C_10
REMARK    6  A    between atoms: C_10  and  C_11
REMARK    7  A    between atoms: C_11  and  C_12
REMARK    8  A    between atoms: C_12  and  N_13
REMARK                            x       y       z     vdW  Elec       q    Type
REMARK                         _______ _______ _______ _____ _____    ______ ____
ROOT
ATOM      1  C   UNL     1      -9.577   2.526 130.249  0.00  0.00    +0.000 C 
ENDROOT
BRANCH   1   2
ATOM      2  C   UNL     1      -9.930   2.175 131.670  0.00  0.00    +0.000 C 
BRANCH   2   3
ATOM      3  C   UNL     1      -8.715   1.657 132.427  0.00  0.00    +0.000 C 
BRANCH   3   8
ATOM      4 CL   UNL     1      -6.279   5.675 136.201  0.00  0.00    +0.000 Cl
ATOM      5  C   UNL     1      -6.984   4.521 135.140  0.00  0.00    +0.000 A 
ATOM      6  C   UNL     1      -6.222   3.451 134.667  0.00  0.00    +0.000 A 
ATOM      7  C   UNL     1      -6.797   2.525 133.791  0.00  0.00    +0.000 A 
ATOM      8  C   UNL     1      -8.129   2.663 133.389  0.00  0.00    +0.000 A 
ATOM      9  C   UNL     1      -8.878   3.743 133.889  0.00  0.00    +0.000 A 
ATOM     10  C   UNL     1      -8.308   4.667 134.759  0.00  0.00    +0.000 A 
ENDBRANCH   3   8
ENDBRANCH   2   3
ENDBRANCH   1   2
BRANCH   1  11
ATOM     11  O   UNL     1     -10.333   3.676 129.909  0.00  0.00    +0.000 OA
BRANCH  11  12
ATOM     12  C   UNL     1      -9.836   4.804 130.610  0.00  0.00    +0.000 C 
BRANCH  12  13
ATOM     13  C   UNL     1     -11.019   5.668 130.958  0.00  0.00    +0.000 C 
BRANCH  13  14
ATOM     14  C   UNL     1     -10.804   7.089 130.455  0.00  0.00    +0.000 C 
BRANCH  14  15
ATOM     15  N   UNL     1     -11.469   7.423 129.188  0.00  0.00    +0.000 NA
ATOM     16  C   UNL     1     -10.525   7.326 128.070  0.00  0.00    +0.000 C 
ATOM     17  C   UNL     1     -11.166   7.835 126.783  0.00  0.00    +0.000 C 
ATOM     18  C   UNL     1     -12.448   7.076 126.464  0.00  0.00    +0.000 C 
ATOM     19  C   UNL     1     -13.394   7.099 127.658  0.00  0.00    +0.000 C 
ATOM     20  C   UNL     1     -12.683   6.637 128.922  0.00  0.00    +0.000 C 
ENDBRANCH  14  15
ENDBRANCH  13  14
ENDBRANCH  12  13
ENDBRANCH  11  12
ENDBRANCH   1  11
TORSDOF 8
ENDMDL
MODEL 6
REMARK VINA RESULT:      -5.9      8.741     10.830
REMARK  Name = Pitolisant
REMARK  8 active torsions:
REMARK  status: ('A' for Active; 'I' for Inactive)
REMARK    1  A    between atoms: C_5  and  C_6
REMARK    2  A    between atoms: C_6  and  C_7
REMARK    3  A    between atoms: C_7  and  C_8
REMARK    4  A    between atoms: C_8  and  O_9
REMARK    5  A    between atoms: O_9  and  C_10
REMARK    6  A    between atoms: C_10  and  C_11
REMARK    7  A    between atoms: C_11  and  C_12
REMARK    8  A    between atoms: C_12  and  N_13
REMARK                            x       y       z     vdW  Elec       q    Type
REMARK                         _______ _______ _______ _____ _____    ______ ____
ROOT
ATOM      1  C   UNL     1      -4.957   6.276 131.686  0.00  0.00    +0.000 C 
ENDROOT
BRANCH   1   2
ATOM      2  C   UNL     1      -6.338   6.484 131.124  0.00  0.00    +0.000 C 
BRANCH   2   3
ATOM      3  C   UNL     1      -7.408   6.171 132.160  0.00  0.00    +0.000 C 
BRANCH   3   8
ATOM      4 CL   UNL     1     -12.988   7.159 130.110  0.00  0.00    +0.000 Cl
ATOM      5  C   UNL     1     -11.398   6.893 130.707  0.00  0.00    +0.000 A 
ATOM      6  C   UNL     1     -10.293   7.220 129.919  0.00  0.00    +0.000 A 
ATOM      7  C   UNL     1      -9.002   6.986 130.404  0.00  0.00    +0.000 A 
ATOM      8  C   UNL     1      -8.814   6.428 131.672  0.00  0.00    +0.000 A 
ATOM      9  C   UNL     1      -9.943   6.119 132.451  0.00  0.00    +0.000 A 
ATOM     10  C   UNL     1     -11.228   6.349 131.969  0.00  0.00    +0.000 A 
ENDBRANCH   3   8
ENDBRANCH   2   3
ENDBRANCH   1   2
BRANCH   1  11
ATOM     11  O   UNL     1      -4.363   5.225 130.943  0.00  0.00    +0.000 OA
BRANCH  11  12
ATOM     12  C   UNL     1      -4.267   4.060 131.747  0.00  0.00    +0.000 C 
BRANCH  12  13
ATOM     13  C   UNL     1      -5.050   2.977 131.053  0.00  0.00    +0.000 C 
BRANCH  13  14
ATOM     14  C   UNL     1      -6.097   2.394 131.993  0.00  0.00    +0.000 C 
BRANCH  14  15
ATOM     15  N   UNL     1      -7.450   2.263 131.436  0.00  0.00    +0.000 NA
ATOM     16  C   UNL     1      -8.459   2.581 132.452  0.00  0.00    +0.000 C 
ATOM     17  C   UNL     1      -9.859   2.281 131.928  0.00  0.00    +0.000 C 
ATOM     18  C   UNL     1     -10.144   3.045 130.640  0.00  0.00    +0.000 C 
ATOM     19  C   UNL     1      -9.049   2.788 129.613  0.00  0.00    +0.000 C 
ATOM     20  C   UNL     1      -7.673   3.046 130.211  0.00  0.00    +0.000 C 
ENDBRANCH  14  15
ENDBRANCH  13  14
ENDBRANCH  12  13
ENDBRANCH  11  12
ENDBRANCH   1  11
TORSDOF 8
ENDMDL
MODEL 7
REMARK VINA RESULT:      -5.9     10.104     11.842
REMARK  Name = Pitolisant
REMARK  8 active torsions:
REMARK  status: ('A' for Active; 'I' for Inactive)
REMARK    1  A    between atoms: C_5  and  C_6
REMARK    2  A    between atoms: C_6  and  C_7
REMARK    3  A    between atoms: C_7  and  C_8
REMARK    4  A    between atoms: C_8  and  O_9
REMARK    5  A    between atoms: O_9  and  C_10
REMARK    6  A    between atoms: C_10  and  C_11
REMARK    7  A    between atoms: C_11  and  C_12
REMARK    8  A    between atoms: C_12  and  N_13
REMARK                            x       y       z     vdW  Elec       q    Type
REMARK                         _______ _______ _______ _____ _____    ______ ____
ROOT
ATOM      1  C   UNL     1      -5.597   5.650 130.221  0.00  0.00    +0.000 C 
ENDROOT
BRANCH   1   2
ATOM      2  C   UNL     1      -4.888   6.806 130.875  0.00  0.00    +0.000 C 
BRANCH   2   3
ATOM      3  C   UNL     1      -3.470   6.955 130.342  0.00  0.00    +0.000 C 
BRANCH   3   8
ATOM      4 CL   UNL     1       0.495   8.269 134.688  0.00  0.00    +0.000 Cl
ATOM      5  C   UNL     1      -0.624   7.903 133.434  0.00  0.00    +0.000 A 
ATOM      6  C   UNL     1      -1.794   8.652 133.302  0.00  0.00    +0.000 A 
ATOM      7  C   UNL     1      -2.708   8.339 132.291  0.00  0.00    +0.000 A 
ATOM      8  C   UNL     1      -2.455   7.281 131.412  0.00  0.00    +0.000 A 
ATOM      9  C   UNL     1      -1.264   6.549 131.559  0.00  0.00    +0.000 A 
ATOM     10  C   UNL     1      -0.354   6.858 132.566  0.00  0.00    +0.000 A 
ENDBRANCH   3   8
ENDBRANCH   2   3
ENDBRANCH   1   2
BRANCH   1  11
ATOM     11  O   UNL     1      -6.962   6.015 130.105  0.00  0.00    +0.000 OA
BRANCH  11  12
ATOM     12  C   UNL     1      -7.366   6.737 131.257  0.00  0.00    +0.000 C 
BRANCH  12  13
ATOM     13  C   UNL     1      -8.824   6.436 131.481  0.00  0.00    +0.000 C 
BRANCH  13  14
ATOM     14  C   UNL     1      -9.468   5.941 130.192  0.00  0.00    +0.000 C 
BRANCH  14  15
ATOM     15  N   UNL     1     -10.672   6.666 129.763  0.00  0.00    +0.000 NA
ATOM     16  C   UNL     1     -11.549   6.928 130.908  0.00  0.00    +0.000 C 
ATOM     17  C   UNL     1     -12.874   7.525 130.442  0.00  0.00    +0.000 C 
ATOM     18  C   UNL     1     -12.653   8.801 129.638  0.00  0.00    +0.000 C 
ATOM     19  C   UNL     1     -11.671   8.553 128.501  0.00  0.00    +0.000 C 
ATOM     20  C   UNL     1     -10.395   7.903 129.018  0.00  0.00    +0.000 C 
ENDBRANCH  14  15
ENDBRANCH  13  14
ENDBRANCH  12  13
ENDBRANCH  11  12
ENDBRANCH   1  11
TORSDOF 8
ENDMDL
MODEL 8
REMARK VINA RESULT:      -5.9      3.220      4.571
REMARK  Name = Pitolisant
REMARK  8 active torsions:
REMARK  status: ('A' for Active; 'I' for Inactive)
REMARK    1  A    between atoms: C_5  and  C_6
REMARK    2  A    between atoms: C_6  and  C_7
REMARK    3  A    between atoms: C_7  and  C_8
REMARK    4  A    between atoms: C_8  and  O_9
REMARK    5  A    between atoms: O_9  and  C_10
REMARK    6  A    between atoms: C_10  and  C_11
REMARK    7  A    between atoms: C_11  and  C_12
REMARK    8  A    between atoms: C_12  and  N_13
REMARK                            x       y       z     vdW  Elec       q    Type
REMARK                         _______ _______ _______ _____ _____    ______ ____
ROOT
ATOM      1  C   UNL     1      -9.145  -3.526 125.950  0.00  0.00    +0.000 C 
ENDROOT
BRANCH   1   2
ATOM      2  C   UNL     1      -8.638  -2.648 127.063  0.00  0.00    +0.000 C 
BRANCH   2   3
ATOM      3  C   UNL     1      -8.437  -3.444 128.344  0.00  0.00    +0.000 C 
BRANCH   3   8
ATOM      4 CL   UNL     1      -3.311  -2.164 131.246  0.00  0.00    +0.000 Cl
ATOM      5  C   UNL     1      -4.783  -2.516 130.430  0.00  0.00    +0.000 A 
ATOM      6  C   UNL     1      -5.430  -3.734 130.651  0.00  0.00    +0.000 A 
ATOM      7  C   UNL     1      -6.618  -4.021 129.972  0.00  0.00    +0.000 A 
ATOM      8  C   UNL     1      -7.162  -3.096 129.076  0.00  0.00    +0.000 A 
ATOM      9  C   UNL     1      -6.498  -1.873 128.880  0.00  0.00    +0.000 A 
ATOM     10  C   UNL     1      -5.314  -1.585 129.553  0.00  0.00    +0.000 A 
ENDBRANCH   3   8
ENDBRANCH   2   3
ENDBRANCH   1   2
BRANCH   1  11
ATOM     11  O   UNL     1      -9.713  -2.669 124.973  0.00  0.00    +0.000 OA
BRANCH  11  12
ATOM     12  C   UNL     1      -9.388  -3.137 123.674  0.00  0.00    +0.000 C 
BRANCH  12  13
ATOM     13  C   UNL     1      -8.970  -1.940 122.863  0.00  0.00    +0.000 C 
BRANCH  13  14
ATOM     14  C   UNL     1      -7.457  -1.921 122.686  0.00  0.00    +0.000 C 
BRANCH  14  15
ATOM     15  N   UNL     1      -6.724  -1.008 123.573  0.00  0.00    +0.000 NA
ATOM     16  C   UNL     1      -7.586   0.099 123.999  0.00  0.00    +0.000 C 
ATOM     17  C   UNL     1      -6.781   1.135 124.778  0.00  0.00    +0.000 C 
ATOM     18  C   UNL     1      -6.088   0.508 125.981  0.00  0.00    +0.000 C 
ATOM     19  C   UNL     1      -5.262  -0.699 125.553  0.00  0.00    +0.000 C 
ATOM     20  C   UNL     1      -6.102  -1.667 124.731  0.00  0.00    +0.000 C 
ENDBRANCH  14  15
ENDBRANCH  13  14
ENDBRANCH  12  13
ENDBRANCH  11  12
ENDBRANCH   1  11
TORSDOF 8
ENDMDL
MODEL 9
REMARK VINA RESULT:      -5.8      6.312      7.559
REMARK  Name = Pitolisant
REMARK  8 active torsions:
REMARK  status: ('A' for Active; 'I' for Inactive)
REMARK    1  A    between atoms: C_5  and  C_6
REMARK    2  A    between atoms: C_6  and  C_7
REMARK    3  A    between atoms: C_7  and  C_8
REMARK    4  A    between atoms: C_8  and  O_9
REMARK    5  A    between atoms: O_9  and  C_10
REMARK    6  A    between atoms: C_10  and  C_11
REMARK    7  A    between atoms: C_11  and  C_12
REMARK    8  A    between atoms: C_12  and  N_13
REMARK                            x       y       z     vdW  Elec       q    Type
REMARK                         _______ _______ _______ _____ _____    ______ ____
ROOT
ATOM      1  C   UNL     1      -8.678   1.241 132.000  0.00  0.00    +0.000 C 
ENDROOT
BRANCH   1   2
ATOM      2  C   UNL     1      -7.989   0.718 130.768  0.00  0.00    +0.000 C 
BRANCH   2   3
ATOM      3  C   UNL     1      -7.715  -0.775 130.882  0.00  0.00    +0.000 C 
BRANCH   3   8
ATOM      4 CL   UNL     1      -8.447  -3.724 125.676  0.00  0.00    +0.000 Cl
ATOM      5  C   UNL     1      -8.258  -2.882 127.164  0.00  0.00    +0.000 A 
ATOM      6  C   UNL     1      -7.919  -1.528 127.161  0.00  0.00    +0.000 A 
ATOM      7  C   UNL     1      -7.751  -0.853 128.375  0.00  0.00    +0.000 A 
ATOM      8  C   UNL     1      -7.922  -1.527 129.588  0.00  0.00    +0.000 A 
ATOM      9  C   UNL     1      -8.275  -2.887 129.563  0.00  0.00    +0.000 A 
ATOM     10  C   UNL     1      -8.441  -3.561 128.357  0.00  0.00    +0.000 A 
ENDBRANCH   3   8
ENDBRANCH   2   3
ENDBRANCH   1   2
BRANCH   1  11
ATOM     11  O   UNL     1      -9.878   1.862 131.571  0.00  0.00    +0.000 OA
BRANCH  11  12
ATOM     12  C   UNL     1      -9.615   3.201 131.184  0.00  0.00    +0.000 C 
BRANCH  12  13
ATOM     13  C   UNL     1     -10.790   3.665 130.365  0.00  0.00    +0.000 C 
BRANCH  13  14
ATOM     14  C   UNL     1     -11.111   5.121 130.674  0.00  0.00    +0.000 C 
BRANCH  14  15
ATOM     15  N   UNL     1     -11.182   6.018 129.512  0.00  0.00    +0.000 NA
ATOM     16  C   UNL     1     -12.578   6.296 129.162  0.00  0.00    +0.000 C 
ATOM     17  C   UNL     1     -12.655   7.085 127.858  0.00  0.00    +0.000 C 
ATOM     18  C   UNL     1     -11.861   8.382 127.947  0.00  0.00    +0.000 C 
ATOM     19  C   UNL     1     -10.433   8.105 128.400  0.00  0.00    +0.000 C 
ATOM     20  C   UNL     1     -10.420   7.266 129.670  0.00  0.00    +0.000 C 
ENDBRANCH  14  15
ENDBRANCH  13  14
ENDBRANCH  12  13
ENDBRANCH  11  12
ENDBRANCH   1  11
TORSDOF 8
ENDMDL
