MODEL 1
REMARK VINA RESULT:      -8.2      0.000      0.000
REMARK  Name = Pivmecillinam
REMARK  12 active torsions:
REMARK  status: ('A' for Active; 'I' for Inactive)
REMARK    1  A    between atoms: N_3  and  C_4
REMARK    2  A    between atoms: C_8  and  C_9
REMARK    3  A    between atoms: C_9  and  O_11
REMARK    4  A    between atoms: O_11  and  C_12
REMARK    5  A    between atoms: C_12  and  O_13
REMARK    6  A    between atoms: O_13  and  C_14
REMARK    7  A    between atoms: C_14  and  C_16
REMARK    8  A    between atoms: C_16  and  C_17
REMARK    9  A    between atoms: C_16  and  C_18
REMARK   10  A    between atoms: C_16  and  C_19
REMARK   11  A    between atoms: C_20  and  C_21
REMARK   12  A    between atoms: C_20  and  C_22
REMARK                            x       y       z     vdW  Elec       q    Type
REMARK                         _______ _______ _______ _____ _____    ______ ____
ROOT
ATOM      1  C   UNL     1      -9.003   1.943 131.434  0.00  0.00    +0.000 C 
ATOM      2  C   UNL     1      -9.607   3.138 130.645  0.00  0.00    +0.000 C 
ATOM      3  O   UNL     1     -10.284   3.290 129.657  0.00  0.00    +0.000 OA
ATOM      4  N   UNL     1      -8.958   4.068 131.426  0.00  0.00    +0.000 N 
ATOM      5  C   UNL     1      -8.234   5.190 130.793  0.00  0.00    +0.000 C 
ATOM      6  C   UNL     1      -6.775   5.140 131.345  0.00  0.00    +0.000 C 
ATOM      7  C   UNL     1      -5.723   5.633 130.348  0.00  0.00    +0.000 C 
ATOM      8  C   UNL     1      -6.590   5.828 132.707  0.00  0.00    +0.000 C 
ATOM      9  S   UNL     1      -6.438   3.332 131.600  0.00  0.00    +0.000 S 
ATOM     10  C   UNL     1      -8.154   3.031 132.132  0.00  0.00    +0.000 C 
ENDROOT
BRANCH   1  12
ATOM     11  C   UNL     1      -7.788  -0.112 131.447  0.00  0.00    +0.000 C 
ATOM     12  N   UNL     1      -8.258   0.867 130.753  0.00  0.00    +0.000 NA
ATOM     13  N   UNL     1      -7.065  -1.161 130.924  0.00  0.00    +0.000 N 
ATOM     14  C   UNL     1      -6.115  -0.934 129.842  0.00  0.00    +0.000 C 
ATOM     15  C   UNL     1      -6.779  -1.059 128.475  0.00  0.00    +0.000 C 
ATOM     16  C   UNL     1      -7.047  -2.495 128.037  0.00  0.00    +0.000 C 
ATOM     17  C   UNL     1      -7.868  -3.314 129.031  0.00  0.00    +0.000 C 
ATOM     18  C   UNL     1      -7.119  -3.601 130.335  0.00  0.00    +0.000 C 
ATOM     19  C   UNL     1      -7.281  -2.519 131.408  0.00  0.00    +0.000 C 
ENDBRANCH   1  12
BRANCH   5  20
ATOM     20  C   UNL     1      -8.920   6.579 130.957  0.00  0.00    +0.000 C 
ATOM     21  O   UNL     1      -8.749   7.520 130.189  0.00  0.00    +0.000 OA
BRANCH  20  22
ATOM     22  O   UNL     1      -9.821   6.648 131.982  0.00  0.00    +0.000 OA
BRANCH  22  23
ATOM     23  C   UNL     1     -11.161   6.264 131.575  0.00  0.00    +0.000 C 
BRANCH  23  24
ATOM     24  O   UNL     1     -11.781   7.306 130.793  0.00  0.00    +0.000 OA
BRANCH  24  25
ATOM     25  C   UNL     1     -12.227   6.904 129.565  0.00  0.00    +0.000 C 
ATOM     26  O   UNL     1     -12.353   5.729 129.238  0.00  0.00    +0.000 OA
BRANCH  25  27
ATOM     27  C   UNL     1     -12.549   8.094 128.638  0.00  0.00    +0.000 C 
ATOM     28  C   UNL     1     -13.750   7.769 127.743  0.00  0.00    +0.000 C 
ATOM     29  C   UNL     1     -12.850   9.351 129.466  0.00  0.00    +0.000 C 
ATOM     30  C   UNL     1     -11.339   8.396 127.732  0.00  0.00    +0.000 C 
ENDBRANCH  25  27
ENDBRANCH  24  25
ENDBRANCH  23  24
ENDBRANCH  22  23
ENDBRANCH  20  22
ENDBRANCH   5  20
TORSDOF 7
ENDMDL
MODEL 2
REMARK VINA RESULT:      -8.1      2.955      3.912
REMARK  Name = Pivmecillinam
REMARK  12 active torsions:
REMARK  status: ('A' for Active; 'I' for Inactive)
REMARK    1  A    between atoms: N_3  and  C_4
REMARK    2  A    between atoms: C_8  and  C_9
REMARK    3  A    between atoms: C_9  and  O_11
REMARK    4  A    between atoms: O_11  and  C_12
REMARK    5  A    between atoms: C_12  and  O_13
REMARK    6  A    between atoms: O_13  and  C_14
REMARK    7  A    between atoms: C_14  and  C_16
REMARK    8  A    between atoms: C_16  and  C_17
REMARK    9  A    between atoms: C_16  and  C_18
REMARK   10  A    between atoms: C_16  and  C_19
REMARK   11  A    between atoms: C_20  and  C_21
REMARK   12  A    between atoms: C_20  and  C_22
REMARK                            x       y       z     vdW  Elec       q    Type
REMARK                         _______ _______ _______ _____ _____    ______ ____
ROOT
ATOM      1  C   UNL     1      -7.283   2.297 129.603  0.00  0.00    +0.000 C 
ATOM      2  C   UNL     1      -8.658   2.926 129.960  0.00  0.00    +0.000 C 
ATOM      3  O   UNL     1      -9.757   2.986 129.462  0.00  0.00    +0.000 OA
ATOM      4  N   UNL     1      -8.152   3.569 131.068  0.00  0.00    +0.000 N 
ATOM      5  C   UNL     1      -8.459   4.995 131.300  0.00  0.00    +0.000 C 
ATOM      6  C   UNL     1      -7.086   5.722 131.453  0.00  0.00    +0.000 C 
ATOM      7  C   UNL     1      -7.095   7.167 130.947  0.00  0.00    +0.000 C 
ATOM      8  C   UNL     1      -6.487   5.650 132.867  0.00  0.00    +0.000 C 
ATOM      9  S   UNL     1      -5.940   4.788 130.331  0.00  0.00    +0.000 S 
ATOM     10  C   UNL     1      -6.746   3.205 130.734  0.00  0.00    +0.000 C 
ENDROOT
BRANCH   1  12
ATOM     11  C   UNL     1      -6.904   1.610 127.349  0.00  0.00    +0.000 C 
ATOM     12  N   UNL     1      -6.674   2.480 128.272  0.00  0.00    +0.000 NA
ATOM     13  N   UNL     1      -6.380   1.667 126.077  0.00  0.00    +0.000 N 
ATOM     14  C   UNL     1      -5.018   2.140 125.861  0.00  0.00    +0.000 C 
ATOM     15  C   UNL     1      -4.973   3.651 125.661  0.00  0.00    +0.000 C 
ATOM     16  C   UNL     1      -5.430   4.115 124.281  0.00  0.00    +0.000 C 
ATOM     17  C   UNL     1      -6.825   3.632 123.884  0.00  0.00    +0.000 C 
ATOM     18  C   UNL     1      -6.895   2.120 123.661  0.00  0.00    +0.000 C 
ATOM     19  C   UNL     1      -7.198   1.308 124.925  0.00  0.00    +0.000 C 
ENDBRANCH   1  12
BRANCH   5  20
ATOM     20  C   UNL     1      -9.445   5.263 132.476  0.00  0.00    +0.000 C 
ATOM     21  O   UNL     1      -9.587   4.509 133.433  0.00  0.00    +0.000 OA
BRANCH  20  22
ATOM     22  O   UNL     1     -10.083   6.470 132.417  0.00  0.00    +0.000 OA
BRANCH  22  23
ATOM     23  C   UNL     1     -11.427   6.366 131.879  0.00  0.00    +0.000 C 
BRANCH  23  24
ATOM     24  O   UNL     1     -11.645   7.346 130.842  0.00  0.00    +0.000 OA
BRANCH  24  25
ATOM     25  C   UNL     1     -11.802   6.820 129.590  0.00  0.00    +0.000 C 
ATOM     26  O   UNL     1     -11.746   5.620 129.344  0.00  0.00    +0.000 OA
BRANCH  25  27
ATOM     27  C   UNL     1     -12.053   7.907 128.525  0.00  0.00    +0.000 C 
ATOM     28  C   UNL     1     -12.764   9.114 129.147  0.00  0.00    +0.000 C 
ATOM     29  C   UNL     1     -10.728   8.358 127.897  0.00  0.00    +0.000 C 
ATOM     30  C   UNL     1     -12.948   7.345 127.402  0.00  0.00    +0.000 C 
ENDBRANCH  25  27
ENDBRANCH  24  25
ENDBRANCH  23  24
ENDBRANCH  22  23
ENDBRANCH  20  22
ENDBRANCH   5  20
TORSDOF 7
ENDMDL
MODEL 3
REMARK VINA RESULT:      -8.0      3.241      7.964
REMARK  Name = Pivmecillinam
REMARK  12 active torsions:
REMARK  status: ('A' for Active; 'I' for Inactive)
REMARK    1  A    between atoms: N_3  and  C_4
REMARK    2  A    between atoms: C_8  and  C_9
REMARK    3  A    between atoms: C_9  and  O_11
REMARK    4  A    between atoms: O_11  and  C_12
REMARK    5  A    between atoms: C_12  and  O_13
REMARK    6  A    between atoms: O_13  and  C_14
REMARK    7  A    between atoms: C_14  and  C_16
REMARK    8  A    between atoms: C_16  and  C_17
REMARK    9  A    between atoms: C_16  and  C_18
REMARK   10  A    between atoms: C_16  and  C_19
REMARK   11  A    between atoms: C_20  and  C_21
REMARK   12  A    between atoms: C_20  and  C_22
REMARK                            x       y       z     vdW  Elec       q    Type
REMARK                         _______ _______ _______ _____ _____    ______ ____
ROOT
ATOM      1  C   UNL     1      -9.446   6.262 131.713  0.00  0.00    +0.000 C 
ATOM      2  C   UNL     1      -7.966   6.052 131.289  0.00  0.00    +0.000 C 
ATOM      3  O   UNL     1      -7.104   6.699 130.744  0.00  0.00    +0.000 OA
ATOM      4  N   UNL     1      -7.983   4.722 131.645  0.00  0.00    +0.000 N 
ATOM      5  C   UNL     1      -7.445   3.701 130.721  0.00  0.00    +0.000 C 
ATOM      6  C   UNL     1      -8.585   2.657 130.505  0.00  0.00    +0.000 C 
ATOM      7  C   UNL     1      -8.574   2.012 129.117  0.00  0.00    +0.000 C 
ATOM      8  C   UNL     1      -8.671   1.580 131.599  0.00  0.00    +0.000 C 
ATOM      9  S   UNL     1     -10.149   3.653 130.601  0.00  0.00    +0.000 S 
ATOM     10  C   UNL     1      -9.452   4.727 131.896  0.00  0.00    +0.000 C 
ENDROOT
BRANCH   1  12
ATOM     11  C   UNL     1     -10.044   7.479 129.748  0.00  0.00    +0.000 C 
ATOM     12  N   UNL     1     -10.444   6.813 130.777  0.00  0.00    +0.000 NA
ATOM     13  N   UNL     1     -10.881   8.052 128.817  0.00  0.00    +0.000 N 
ATOM     14  C   UNL     1     -12.139   8.661 129.233  0.00  0.00    +0.000 C 
ATOM     15  C   UNL     1     -13.278   7.648 129.241  0.00  0.00    +0.000 C 
ATOM     16  C   UNL     1     -13.820   7.301 127.857  0.00  0.00    +0.000 C 
ATOM     17  C   UNL     1     -12.761   6.804 126.873  0.00  0.00    +0.000 C 
ATOM     18  C   UNL     1     -11.761   7.891 126.471  0.00  0.00    +0.000 C 
ATOM     19  C   UNL     1     -10.547   8.008 127.398  0.00  0.00    +0.000 C 
ENDBRANCH   1  12
BRANCH   5  20
ATOM     20  C   UNL     1      -6.093   3.070 131.169  0.00  0.00    +0.000 C 
ATOM     21  O   UNL     1      -5.668   3.111 132.319  0.00  0.00    +0.000 OA
BRANCH  20  22
ATOM     22  O   UNL     1      -5.445   2.367 130.193  0.00  0.00    +0.000 OA
BRANCH  22  23
ATOM     23  C   UNL     1      -4.920   3.221 129.143  0.00  0.00    +0.000 C 
BRANCH  23  24
ATOM     24  O   UNL     1      -4.233   4.362 129.701  0.00  0.00    +0.000 OA
BRANCH  24  25
ATOM     25  C   UNL     1      -4.283   5.487 128.926  0.00  0.00    +0.000 C 
ATOM     26  O   UNL     1      -5.069   5.639 127.997  0.00  0.00    +0.000 OA
BRANCH  25  27
ATOM     27  C   UNL     1      -3.238   6.539 129.352  0.00  0.00    +0.000 C 
ATOM     28  C   UNL     1      -2.243   6.798 128.215  0.00  0.00    +0.000 C 
ATOM     29  C   UNL     1      -3.929   7.853 129.740  0.00  0.00    +0.000 C 
ATOM     30  C   UNL     1      -2.451   6.031 130.576  0.00  0.00    +0.000 C 
ENDBRANCH  25  27
ENDBRANCH  24  25
ENDBRANCH  23  24
ENDBRANCH  22  23
ENDBRANCH  20  22
ENDBRANCH   5  20
TORSDOF 7
ENDMDL
MODEL 4
REMARK VINA RESULT:      -8.0      3.484      4.503
REMARK  Name = Pivmecillinam
REMARK  12 active torsions:
REMARK  status: ('A' for Active; 'I' for Inactive)
REMARK    1  A    between atoms: N_3  and  C_4
REMARK    2  A    between atoms: C_8  and  C_9
REMARK    3  A    between atoms: C_9  and  O_11
REMARK    4  A    between atoms: O_11  and  C_12
REMARK    5  A    between atoms: C_12  and  O_13
REMARK    6  A    between atoms: O_13  and  C_14
REMARK    7  A    between atoms: C_14  and  C_16
REMARK    8  A    between atoms: C_16  and  C_17
REMARK    9  A    between atoms: C_16  and  C_18
REMARK   10  A    between atoms: C_16  and  C_19
REMARK   11  A    between atoms: C_20  and  C_21
REMARK   12  A    between atoms: C_20  and  C_22
REMARK                            x       y       z     vdW  Elec       q    Type
REMARK                         _______ _______ _______ _____ _____    ______ ____
ROOT
ATOM      1  C   UNL     1      -6.113   0.129 127.701  0.00  0.00    +0.000 C 
ATOM      2  C   UNL     1      -7.236   0.947 128.397  0.00  0.00    +0.000 C 
ATOM      3  O   UNL     1      -8.354   0.740 128.804  0.00  0.00    +0.000 OA
ATOM      4  N   UNL     1      -6.542   2.129 128.276  0.00  0.00    +0.000 N 
ATOM      5  C   UNL     1      -7.224   3.339 127.770  0.00  0.00    +0.000 C 
ATOM      6  C   UNL     1      -6.381   3.846 126.559  0.00  0.00    +0.000 C 
ATOM      7  C   UNL     1      -7.215   4.531 125.472  0.00  0.00    +0.000 C 
ATOM      8  C   UNL     1      -5.179   4.722 126.947  0.00  0.00    +0.000 C 
ATOM      9  S   UNL     1      -5.700   2.300 125.790  0.00  0.00    +0.000 S 
ATOM     10  C   UNL     1      -5.489   1.515 127.420  0.00  0.00    +0.000 C 
ENDROOT
BRANCH   1  12
ATOM     11  C   UNL     1      -7.155  -1.745 126.653  0.00  0.00    +0.000 C 
ATOM     12  N   UNL     1      -6.391  -0.715 126.523  0.00  0.00    +0.000 NA
ATOM     13  N   UNL     1      -7.473  -2.612 125.631  0.00  0.00    +0.000 N 
ATOM     14  C   UNL     1      -6.475  -2.967 124.628  0.00  0.00    +0.000 C 
ATOM     15  C   UNL     1      -6.491  -1.997 123.452  0.00  0.00    +0.000 C 
ATOM     16  C   UNL     1      -7.648  -2.208 122.480  0.00  0.00    +0.000 C 
ATOM     17  C   UNL     1      -9.031  -2.175 123.132  0.00  0.00    +0.000 C 
ATOM     18  C   UNL     1      -9.283  -3.364 124.062  0.00  0.00    +0.000 C 
ATOM     19  C   UNL     1      -8.825  -3.143 125.507  0.00  0.00    +0.000 C 
ENDBRANCH   1  12
BRANCH   5  20
ATOM     20  C   UNL     1      -7.492   4.431 128.849  0.00  0.00    +0.000 C 
ATOM     21  O   UNL     1      -6.862   4.524 129.897  0.00  0.00    +0.000 OA
BRANCH  20  22
ATOM     22  O   UNL     1      -8.431   5.358 128.495  0.00  0.00    +0.000 OA
BRANCH  22  23
ATOM     23  C   UNL     1      -9.365   5.646 129.568  0.00  0.00    +0.000 C 
BRANCH  23  24
ATOM     24  O   UNL     1     -10.662   5.999 129.043  0.00  0.00    +0.000 OA
BRANCH  24  25
ATOM     25  C   UNL     1     -10.914   7.342 129.012  0.00  0.00    +0.000 C 
ATOM     26  O   UNL     1     -10.072   8.186 128.727  0.00  0.00    +0.000 OA
BRANCH  25  27
ATOM     27  C   UNL     1     -12.376   7.673 129.379  0.00  0.00    +0.000 C 
ATOM     28  C   UNL     1     -13.344   6.879 128.495  0.00  0.00    +0.000 C 
ATOM     29  C   UNL     1     -12.644   7.350 130.854  0.00  0.00    +0.000 C 
ATOM     30  C   UNL     1     -12.645   9.175 129.160  0.00  0.00    +0.000 C 
ENDBRANCH  25  27
ENDBRANCH  24  25
ENDBRANCH  23  24
ENDBRANCH  22  23
ENDBRANCH  20  22
ENDBRANCH   5  20
TORSDOF 7
ENDMDL
MODEL 5
REMARK VINA RESULT:      -7.8      5.357      9.076
REMARK  Name = Pivmecillinam
REMARK  12 active torsions:
REMARK  status: ('A' for Active; 'I' for Inactive)
REMARK    1  A    between atoms: N_3  and  C_4
REMARK    2  A    between atoms: C_8  and  C_9
REMARK    3  A    between atoms: C_9  and  O_11
REMARK    4  A    between atoms: O_11  and  C_12
REMARK    5  A    between atoms: C_12  and  O_13
REMARK    6  A    between atoms: O_13  and  C_14
REMARK    7  A    between atoms: C_14  and  C_16
REMARK    8  A    between atoms: C_16  and  C_17
REMARK    9  A    between atoms: C_16  and  C_18
REMARK   10  A    between atoms: C_16  and  C_19
REMARK   11  A    between atoms: C_20  and  C_21
REMARK   12  A    between atoms: C_20  and  C_22
REMARK                            x       y       z     vdW  Elec       q    Type
REMARK                         _______ _______ _______ _____ _____    ______ ____
ROOT
ATOM      1  C   UNL     1      -3.979   4.022 126.555  0.00  0.00    +0.000 C 
ATOM      2  C   UNL     1      -5.317   4.397 125.858  0.00  0.00    +0.000 C 
ATOM      3  O   UNL     1      -5.869   5.408 125.495  0.00  0.00    +0.000 OA
ATOM      4  N   UNL     1      -5.782   3.102 125.906  0.00  0.00    +0.000 N 
ATOM      5  C   UNL     1      -7.155   2.827 126.379  0.00  0.00    +0.000 C 
ATOM      6  C   UNL     1      -7.022   1.794 127.541  0.00  0.00    +0.000 C 
ATOM      7  C   UNL     1      -8.096   1.940 128.622  0.00  0.00    +0.000 C 
ATOM      8  C   UNL     1      -6.918   0.331 127.079  0.00  0.00    +0.000 C 
ATOM      9  S   UNL     1      -5.409   2.220 128.356  0.00  0.00    +0.000 S 
ATOM     10  C   UNL     1      -4.648   2.643 126.756  0.00  0.00    +0.000 C 
ENDROOT
BRANCH   1  12
ATOM     11  C   UNL     1      -3.484   6.003 127.791  0.00  0.00    +0.000 C 
ATOM     12  N   UNL     1      -3.526   4.715 127.776  0.00  0.00    +0.000 NA
ATOM     13  N   UNL     1      -3.065   6.756 128.866  0.00  0.00    +0.000 N 
ATOM     14  C   UNL     1      -1.956   6.301 129.697  0.00  0.00    +0.000 C 
ATOM     15  C   UNL     1      -2.438   5.419 130.843  0.00  0.00    +0.000 C 
ATOM     16  C   UNL     1      -3.083   6.184 131.995  0.00  0.00    +0.000 C 
ATOM     17  C   UNL     1      -4.245   7.086 131.579  0.00  0.00    +0.000 C 
ATOM     18  C   UNL     1      -3.804   8.275 130.723  0.00  0.00    +0.000 C 
ATOM     19  C   UNL     1      -3.759   7.988 129.219  0.00  0.00    +0.000 C 
ENDBRANCH   1  12
BRANCH   5  20
ATOM     20  C   UNL     1      -8.150   2.390 125.263  0.00  0.00    +0.000 C 
ATOM     21  O   UNL     1      -9.361   2.572 125.318  0.00  0.00    +0.000 OA
BRANCH  20  22
ATOM     22  O   UNL     1      -7.556   1.868 124.148  0.00  0.00    +0.000 OA
BRANCH  22  23
ATOM     23  C   UNL     1      -8.384   0.877 123.485  0.00  0.00    +0.000 C 
BRANCH  23  24
ATOM     24  O   UNL     1      -7.958  -0.460 123.820  0.00  0.00    +0.000 OA
BRANCH  24  25
ATOM     25  C   UNL     1      -8.875  -1.187 124.527  0.00  0.00    +0.000 C 
ATOM     26  O   UNL     1      -9.821  -0.688 125.128  0.00  0.00    +0.000 OA
BRANCH  25  27
ATOM     27  C   UNL     1      -8.584  -2.701 124.483  0.00  0.00    +0.000 C 
ATOM     28  C   UNL     1      -7.135  -2.956 124.052  0.00  0.00    +0.000 C 
ATOM     29  C   UNL     1      -8.830  -3.334 125.859  0.00  0.00    +0.000 C 
ATOM     30  C   UNL     1      -9.518  -3.386 123.466  0.00  0.00    +0.000 C 
ENDBRANCH  25  27
ENDBRANCH  24  25
ENDBRANCH  23  24
ENDBRANCH  22  23
ENDBRANCH  20  22
ENDBRANCH   5  20
TORSDOF 7
ENDMDL
MODEL 6
REMARK VINA RESULT:      -7.8      2.737      3.480
REMARK  Name = Pivmecillinam
REMARK  12 active torsions:
REMARK  status: ('A' for Active; 'I' for Inactive)
REMARK    1  A    between atoms: N_3  and  C_4
REMARK    2  A    between atoms: C_8  and  C_9
REMARK    3  A    between atoms: C_9  and  O_11
REMARK    4  A    between atoms: O_11  and  C_12
REMARK    5  A    between atoms: C_12  and  O_13
REMARK    6  A    between atoms: O_13  and  C_14
REMARK    7  A    between atoms: C_14  and  C_16
REMARK    8  A    between atoms: C_16  and  C_17
REMARK    9  A    between atoms: C_16  and  C_18
REMARK   10  A    between atoms: C_16  and  C_19
REMARK   11  A    between atoms: C_20  and  C_21
REMARK   12  A    between atoms: C_20  and  C_22
REMARK                            x       y       z     vdW  Elec       q    Type
REMARK                         _______ _______ _______ _____ _____    ______ ____
ROOT
ATOM      1  C   UNL     1      -8.432   1.230 127.841  0.00  0.00    +0.000 C 
ATOM      2  C   UNL     1      -8.149   2.750 127.678  0.00  0.00    +0.000 C 
ATOM      3  O   UNL     1      -8.030   3.531 126.765  0.00  0.00    +0.000 OA
ATOM      4  N   UNL     1      -7.925   2.921 129.025  0.00  0.00    +0.000 N 
ATOM      5  C   UNL     1      -6.740   3.674 129.488  0.00  0.00    +0.000 C 
ATOM      6  C   UNL     1      -5.975   2.732 130.469  0.00  0.00    +0.000 C 
ATOM      7  C   UNL     1      -4.457   2.936 130.460  0.00  0.00    +0.000 C 
ATOM      8  C   UNL     1      -6.512   2.747 131.909  0.00  0.00    +0.000 C 
ATOM      9  S   UNL     1      -6.271   1.027 129.798  0.00  0.00    +0.000 S 
ATOM     10  C   UNL     1      -7.969   1.458 129.299  0.00  0.00    +0.000 C 
ENDROOT
BRANCH   1  12
ATOM     11  C   UNL     1      -8.056  -1.013 127.120  0.00  0.00    +0.000 C 
ATOM     12  N   UNL     1      -7.686   0.220 127.068  0.00  0.00    +0.000 NA
ATOM     13  N   UNL     1      -7.429  -2.044 126.455  0.00  0.00    +0.000 N 
ATOM     14  C   UNL     1      -5.977  -2.058 126.320  0.00  0.00    +0.000 C 
ATOM     15  C   UNL     1      -5.522  -1.324 125.063  0.00  0.00    +0.000 C 
ATOM     16  C   UNL     1      -5.722  -2.110 123.771  0.00  0.00    +0.000 C 
ATOM     17  C   UNL     1      -7.156  -2.587 123.540  0.00  0.00    +0.000 C 
ATOM     18  C   UNL     1      -7.600  -3.658 124.539  0.00  0.00    +0.000 C 
ATOM     19  C   UNL     1      -8.211  -3.103 125.830  0.00  0.00    +0.000 C 
ENDBRANCH   1  12
BRANCH   5  20
ATOM     20  C   UNL     1      -7.057   5.078 130.086  0.00  0.00    +0.000 C 
ATOM     21  O   UNL     1      -6.257   6.007 130.108  0.00  0.00    +0.000 OA
BRANCH  20  22
ATOM     22  O   UNL     1      -8.349   5.237 130.503  0.00  0.00    +0.000 OA
BRANCH  22  23
ATOM     23  C   UNL     1      -8.716   6.631 130.665  0.00  0.00    +0.000 C 
BRANCH  23  24
ATOM     24  O   UNL     1     -10.150   6.792 130.655  0.00  0.00    +0.000 OA
BRANCH  24  25
ATOM     25  C   UNL     1     -10.627   7.565 129.633  0.00  0.00    +0.000 C 
ATOM     26  O   UNL     1      -9.912   8.090 128.787  0.00  0.00    +0.000 OA
BRANCH  25  27
ATOM     27  C   UNL     1     -12.163   7.702 129.668  0.00  0.00    +0.000 C 
ATOM     28  C   UNL     1     -12.690   7.467 131.088  0.00  0.00    +0.000 C 
ATOM     29  C   UNL     1     -12.587   9.095 129.186  0.00  0.00    +0.000 C 
ATOM     30  C   UNL     1     -12.805   6.655 128.736  0.00  0.00    +0.000 C 
ENDBRANCH  25  27
ENDBRANCH  24  25
ENDBRANCH  23  24
ENDBRANCH  22  23
ENDBRANCH  20  22
ENDBRANCH   5  20
TORSDOF 7
ENDMDL
MODEL 7
REMARK VINA RESULT:      -7.8      3.097      6.118
REMARK  Name = Pivmecillinam
REMARK  12 active torsions:
REMARK  status: ('A' for Active; 'I' for Inactive)
REMARK    1  A    between atoms: N_3  and  C_4
REMARK    2  A    between atoms: C_8  and  C_9
REMARK    3  A    between atoms: C_9  and  O_11
REMARK    4  A    between atoms: O_11  and  C_12
REMARK    5  A    between atoms: C_12  and  O_13
REMARK    6  A    between atoms: O_13  and  C_14
REMARK    7  A    between atoms: C_14  and  C_16
REMARK    8  A    between atoms: C_16  and  C_17
REMARK    9  A    between atoms: C_16  and  C_18
REMARK   10  A    between atoms: C_16  and  C_19
REMARK   11  A    between atoms: C_20  and  C_21
REMARK   12  A    between atoms: C_20  and  C_22
REMARK                            x       y       z     vdW  Elec       q    Type
REMARK                         _______ _______ _______ _____ _____    ______ ____
ROOT
ATOM      1  C   UNL     1      -4.756   3.564 130.315  0.00  0.00    +0.000 C 
ATOM      2  C   UNL     1      -5.984   4.153 129.565  0.00  0.00    +0.000 C 
ATOM      3  O   UNL     1      -6.186   5.020 128.749  0.00  0.00    +0.000 OA
ATOM      4  N   UNL     1      -6.875   3.394 130.290  0.00  0.00    +0.000 N 
ATOM      5  C   UNL     1      -8.076   4.023 130.879  0.00  0.00    +0.000 C 
ATOM      6  C   UNL     1      -8.046   3.689 132.403  0.00  0.00    +0.000 C 
ATOM      7  C   UNL     1      -8.664   4.777 133.284  0.00  0.00    +0.000 C 
ATOM      8  C   UNL     1      -8.628   2.311 132.759  0.00  0.00    +0.000 C 
ATOM      9  S   UNL     1      -6.240   3.641 132.831  0.00  0.00    +0.000 S 
ATOM     10  C   UNL     1      -5.821   2.901 131.220  0.00  0.00    +0.000 C 
ENDROOT
BRANCH   1  12
ATOM     11  C   UNL     1      -3.680   5.670 130.633  0.00  0.00    +0.000 C 
ATOM     12  N   UNL     1      -3.774   4.434 130.988  0.00  0.00    +0.000 NA
ATOM     13  N   UNL     1      -2.791   6.570 131.178  0.00  0.00    +0.000 N 
ATOM     14  C   UNL     1      -1.446   6.147 131.547  0.00  0.00    +0.000 C 
ATOM     15  C   UNL     1      -1.392   5.633 132.981  0.00  0.00    +0.000 C 
ATOM     16  C   UNL     1      -1.417   6.729 134.042  0.00  0.00    +0.000 C 
ATOM     17  C   UNL     1      -2.605   7.684 133.933  0.00  0.00    +0.000 C 
ATOM     18  C   UNL     1      -2.552   8.566 132.683  0.00  0.00    +0.000 C 
ATOM     19  C   UNL     1      -3.203   7.944 131.443  0.00  0.00    +0.000 C 
ENDBRANCH   1  12
BRANCH   5  20
ATOM     20  C   UNL     1      -9.415   3.644 130.179  0.00  0.00    +0.000 C 
ATOM     21  O   UNL     1      -9.536   2.708 129.397  0.00  0.00    +0.000 OA
BRANCH  20  22
ATOM     22  O   UNL     1     -10.493   4.381 130.583  0.00  0.00    +0.000 OA
BRANCH  22  23
ATOM     23  C   UNL     1     -10.441   5.753 130.109  0.00  0.00    +0.000 C 
BRANCH  23  24
ATOM     24  O   UNL     1     -11.579   6.054 129.275  0.00  0.00    +0.000 OA
BRANCH  24  25
ATOM     25  C   UNL     1     -12.361   7.079 129.731  0.00  0.00    +0.000 C 
ATOM     26  O   UNL     1     -12.792   7.147 130.877  0.00  0.00    +0.000 OA
BRANCH  25  27
ATOM     27  C   UNL     1     -12.640   8.134 128.641  0.00  0.00    +0.000 C 
ATOM     28  C   UNL     1     -13.790   7.678 127.735  0.00  0.00    +0.000 C 
ATOM     29  C   UNL     1     -12.994   9.483 129.281  0.00  0.00    +0.000 C 
ATOM     30  C   UNL     1     -11.386   8.331 127.768  0.00  0.00    +0.000 C 
ENDBRANCH  25  27
ENDBRANCH  24  25
ENDBRANCH  23  24
ENDBRANCH  22  23
ENDBRANCH  20  22
ENDBRANCH   5  20
TORSDOF 7
ENDMDL
MODEL 8
REMARK VINA RESULT:      -7.6      2.269      3.001
REMARK  Name = Pivmecillinam
REMARK  12 active torsions:
REMARK  status: ('A' for Active; 'I' for Inactive)
REMARK    1  A    between atoms: N_3  and  C_4
REMARK    2  A    between atoms: C_8  and  C_9
REMARK    3  A    between atoms: C_9  and  O_11
REMARK    4  A    between atoms: O_11  and  C_12
REMARK    5  A    between atoms: C_12  and  O_13
REMARK    6  A    between atoms: O_13  and  C_14
REMARK    7  A    between atoms: C_14  and  C_16
REMARK    8  A    between atoms: C_16  and  C_17
REMARK    9  A    between atoms: C_16  and  C_18
REMARK   10  A    between atoms: C_16  and  C_19
REMARK   11  A    between atoms: C_20  and  C_21
REMARK   12  A    between atoms: C_20  and  C_22
REMARK                            x       y       z     vdW  Elec       q    Type
REMARK                         _______ _______ _______ _____ _____    ______ ____
ROOT
ATOM      1  C   UNL     1      -5.792   1.543 131.946  0.00  0.00    +0.000 C 
ATOM      2  C   UNL     1      -7.310   1.761 132.198  0.00  0.00    +0.000 C 
ATOM      3  O   UNL     1      -8.167   1.275 132.897  0.00  0.00    +0.000 OA
ATOM      4  N   UNL     1      -7.414   2.684 131.181  0.00  0.00    +0.000 N 
ATOM      5  C   UNL     1      -8.515   2.584 130.201  0.00  0.00    +0.000 C 
ATOM      6  C   UNL     1      -7.848   2.548 128.790  0.00  0.00    +0.000 C 
ATOM      7  C   UNL     1      -8.625   1.722 127.762  0.00  0.00    +0.000 C 
ATOM      8  C   UNL     1      -7.504   3.933 128.219  0.00  0.00    +0.000 C 
ATOM      9  S   UNL     1      -6.241   1.659 129.061  0.00  0.00    +0.000 S 
ATOM     10  C   UNL     1      -6.028   2.426 130.699  0.00  0.00    +0.000 C 
ENDROOT
BRANCH   1  12
ATOM     11  C   UNL     1      -5.505  -0.755 132.526  0.00  0.00    +0.000 C 
ATOM     12  N   UNL     1      -5.237   0.198 131.700  0.00  0.00    +0.000 NA
ATOM     13  N   UNL     1      -5.032  -2.043 132.409  0.00  0.00    +0.000 N 
ATOM     14  C   UNL     1      -3.679  -2.290 131.924  0.00  0.00    +0.000 C 
ATOM     15  C   UNL     1      -3.641  -2.421 130.406  0.00  0.00    +0.000 C 
ATOM     16  C   UNL     1      -4.153  -3.759 129.878  0.00  0.00    +0.000 C 
ATOM     17  C   UNL     1      -5.563  -4.121 130.343  0.00  0.00    +0.000 C 
ATOM     18  C   UNL     1      -5.643  -4.412 131.844  0.00  0.00    +0.000 C 
ATOM     19  C   UNL     1      -5.896  -3.176 132.714  0.00  0.00    +0.000 C 
ENDBRANCH   1  12
BRANCH   5  20
ATOM     20  C   UNL     1      -9.615   3.677 130.347  0.00  0.00    +0.000 C 
ATOM     21  O   UNL     1     -10.780   3.526 129.995  0.00  0.00    +0.000 OA
BRANCH  20  22
ATOM     22  O   UNL     1      -9.207   4.807 131.000  0.00  0.00    +0.000 OA
BRANCH  22  23
ATOM     23  C   UNL     1     -10.295   5.481 131.684  0.00  0.00    +0.000 C 
BRANCH  23  24
ATOM     24  O   UNL     1     -10.550   6.775 131.098  0.00  0.00    +0.000 OA
BRANCH  24  25
ATOM     25  C   UNL     1     -11.870   7.035 130.851  0.00  0.00    +0.000 C 
ATOM     26  O   UNL     1     -12.770   6.804 131.651  0.00  0.00    +0.000 OA
BRANCH  25  27
ATOM     27  C   UNL     1     -12.096   7.648 129.454  0.00  0.00    +0.000 C 
ATOM     28  C   UNL     1     -13.016   6.752 128.617  0.00  0.00    +0.000 C 
ATOM     29  C   UNL     1     -12.712   9.047 129.576  0.00  0.00    +0.000 C 
ATOM     30  C   UNL     1     -10.749   7.779 128.714  0.00  0.00    +0.000 C 
ENDBRANCH  25  27
ENDBRANCH  24  25
ENDBRANCH  23  24
ENDBRANCH  22  23
ENDBRANCH  20  22
ENDBRANCH   5  20
TORSDOF 7
ENDMDL
MODEL 9
REMARK VINA RESULT:      -7.5      1.867      2.596
REMARK  Name = Pivmecillinam
REMARK  12 active torsions:
REMARK  status: ('A' for Active; 'I' for Inactive)
REMARK    1  A    between atoms: N_3  and  C_4
REMARK    2  A    between atoms: C_8  and  C_9
REMARK    3  A    between atoms: C_9  and  O_11
REMARK    4  A    between atoms: O_11  and  C_12
REMARK    5  A    between atoms: C_12  and  O_13
REMARK    6  A    between atoms: O_13  and  C_14
REMARK    7  A    between atoms: C_14  and  C_16
REMARK    8  A    between atoms: C_16  and  C_17
REMARK    9  A    between atoms: C_16  and  C_18
REMARK   10  A    between atoms: C_16  and  C_19
REMARK   11  A    between atoms: C_20  and  C_21
REMARK   12  A    between atoms: C_20  and  C_22
REMARK                            x       y       z     vdW  Elec       q    Type
REMARK                         _______ _______ _______ _____ _____    ______ ____
ROOT
ATOM      1  C   UNL     1      -8.389   0.182 130.768  0.00  0.00    +0.000 C 
ATOM      2  C   UNL     1      -8.559   1.470 129.915  0.00  0.00    +0.000 C 
ATOM      3  O   UNL     1      -8.296   1.825 128.791  0.00  0.00    +0.000 OA
ATOM      4  N   UNL     1      -9.031   2.197 130.985  0.00  0.00    +0.000 N 
ATOM      5  C   UNL     1      -8.486   3.542 131.264  0.00  0.00    +0.000 C 
ATOM      6  C   UNL     1      -7.989   3.519 132.743  0.00  0.00    +0.000 C 
ATOM      7  C   UNL     1      -6.781   4.423 133.001  0.00  0.00    +0.000 C 
ATOM      8  C   UNL     1      -9.089   3.780 133.784  0.00  0.00    +0.000 C 
ATOM      9  S   UNL     1      -7.397   1.779 133.005  0.00  0.00    +0.000 S 
ATOM     10  C   UNL     1      -8.729   1.109 131.958  0.00  0.00    +0.000 C 
ENDROOT
BRANCH   1  12
ATOM     11  C   UNL     1      -7.064  -1.723 131.325  0.00  0.00    +0.000 C 
ATOM     12  N   UNL     1      -7.099  -0.530 130.839  0.00  0.00    +0.000 NA
ATOM     13  N   UNL     1      -5.919  -2.477 131.456  0.00  0.00    +0.000 N 
ATOM     14  C   UNL     1      -4.660  -1.846 131.833  0.00  0.00    +0.000 C 
ATOM     15  C   UNL     1      -3.884  -1.366 130.611  0.00  0.00    +0.000 C 
ATOM     16  C   UNL     1      -3.180  -2.477 129.839  0.00  0.00    +0.000 C 
ATOM     17  C   UNL     1      -4.099  -3.613 129.391  0.00  0.00    +0.000 C 
ATOM     18  C   UNL     1      -4.639  -4.442 130.559  0.00  0.00    +0.000 C 
ATOM     19  C   UNL     1      -5.939  -3.906 131.167  0.00  0.00    +0.000 C 
ENDBRANCH   1  12
BRANCH   5  20
ATOM     20  C   UNL     1      -9.463   4.714 130.949  0.00  0.00    +0.000 C 
ATOM     21  O   UNL     1     -10.685   4.613 130.982  0.00  0.00    +0.000 OA
BRANCH  20  22
ATOM     22  O   UNL     1      -8.851   5.916 130.725  0.00  0.00    +0.000 OA
BRANCH  22  23
ATOM     23  C   UNL     1      -9.795   7.015 130.632  0.00  0.00    +0.000 C 
BRANCH  23  24
ATOM     24  O   UNL     1      -9.713   7.659 129.344  0.00  0.00    +0.000 OA
BRANCH  24  25
ATOM     25  C   UNL     1     -10.294   6.960 128.323  0.00  0.00    +0.000 C 
ATOM     26  O   UNL     1      -9.722   6.082 127.687  0.00  0.00    +0.000 OA
BRANCH  25  27
ATOM     27  C   UNL     1     -11.748   7.404 128.061  0.00  0.00    +0.000 C 
ATOM     28  C   UNL     1     -11.956   8.854 128.515  0.00  0.00    +0.000 C 
ATOM     29  C   UNL     1     -12.086   7.279 126.570  0.00  0.00    +0.000 C 
ATOM     30  C   UNL     1     -12.722   6.507 128.851  0.00  0.00    +0.000 C 
ENDBRANCH  25  27
ENDBRANCH  24  25
ENDBRANCH  23  24
ENDBRANCH  22  23
ENDBRANCH  20  22
ENDBRANCH   5  20
TORSDOF 7
ENDMDL
