MODEL 1
REMARK VINA RESULT:      -6.6      0.000      0.000
REMARK  Name = Pixantrone
REMARK  8 active torsions:
REMARK  status: ('A' for Active; 'I' for Inactive)
REMARK    1  A    between atoms: N_1  and  C_2
REMARK    2  A    between atoms: C_2  and  C_3
REMARK    3  A    between atoms: C_3  and  N_4
REMARK    4  A    between atoms: N_4  and  C_5
REMARK    5  A    between atoms: C_8  and  N_9
REMARK    6  A    between atoms: N_9  and  C_10
REMARK    7  A    between atoms: C_10  and  C_11
REMARK    8  A    between atoms: C_11  and  N_12
REMARK                            x       y       z     vdW  Elec       q    Type
REMARK                         _______ _______ _______ _____ _____    ______ ____
ROOT
ATOM      1  C   UNL     1      -9.183   4.386 131.580  0.00  0.00    +0.000 A 
ATOM      2  C   UNL     1      -8.156   3.562 131.141  0.00  0.00    +0.000 A 
ATOM      3  C   UNL     1      -7.731   3.582 129.815  0.00  0.00    +0.000 A 
ATOM      4  C   UNL     1      -8.283   4.447 128.861  0.00  0.00    +0.000 A 
ATOM      5  C   UNL     1      -9.288   5.337 129.301  0.00  0.00    +0.000 A 
ATOM      6  C   UNL     1      -9.726   5.300 130.648  0.00  0.00    +0.000 A 
ATOM      7  C   UNL     1     -10.757   6.254 131.106  0.00  0.00    +0.000 C 
ATOM      8  O   UNL     1     -11.147   6.276 132.275  0.00  0.00    +0.000 OA
ATOM      9  C   UNL     1     -11.341   7.206 130.168  0.00  0.00    +0.000 A 
ATOM     10  C   UNL     1     -10.949   7.226 128.842  0.00  0.00    +0.000 A 
ATOM     11  C   UNL     1     -11.571   8.145 128.012  0.00  0.00    +0.000 A 
ATOM     12  N   UNL     1     -12.527   9.012 128.438  0.00  0.00    +0.000 NA
ATOM     13  C   UNL     1     -12.876   8.962 129.742  0.00  0.00    +0.000 A 
ATOM     14  C   UNL     1     -12.314   8.084 130.639  0.00  0.00    +0.000 A 
ATOM     15  C   UNL     1      -9.918   6.305 128.348  0.00  0.00    +0.000 C 
ATOM     16  O   UNL     1      -9.606   6.358 127.160  0.00  0.00    +0.000 OA
ENDROOT
BRANCH   1  17
ATOM     17  N   UNL     1      -9.685   4.215 132.881  0.00  0.00    +0.000 N 
ATOM     18  H   UNL     1     -10.241   5.021 133.194  0.00  0.00    +0.000 HD
BRANCH  17  19
ATOM     19  C   UNL     1      -8.776   3.698 133.908  0.00  0.00    +0.000 C 
BRANCH  19  20
ATOM     20  C   UNL     1      -8.216   4.852 134.760  0.00  0.00    +0.000 C 
BRANCH  20  21
ATOM     21  N   UNL     1      -8.772   6.144 134.352  0.00  0.00    +0.000 NA
ATOM     22  H   UNL     1      -9.595   5.989 133.771  0.00  0.00    +0.000 HD
ATOM     23  H   UNL     1      -8.097   6.639 133.771  0.00  0.00    +0.000 HD
ENDBRANCH  20  21
ENDBRANCH  19  20
ENDBRANCH  17  19
ENDBRANCH   1  17
BRANCH   4  24
ATOM     24  N   UNL     1      -7.820   4.430 127.551  0.00  0.00    +0.000 N 
ATOM     25  H   UNL     1      -7.851   5.313 127.032  0.00  0.00    +0.000 HD
BRANCH  24  26
ATOM     26  C   UNL     1      -7.450   3.203 126.865  0.00  0.00    +0.000 C 
BRANCH  26  27
ATOM     27  C   UNL     1      -8.146   3.062 125.507  0.00  0.00    +0.000 C 
BRANCH  27  28
ATOM     28  N   UNL     1      -8.771   4.329 125.108  0.00  0.00    +0.000 NA
ATOM     29  H   UNL     1      -8.490   5.064 125.757  0.00  0.00    +0.000 HD
ATOM     30  H   UNL     1      -9.783   4.246 125.189  0.00  0.00    +0.000 HD
ENDBRANCH  27  28
ENDBRANCH  26  27
ENDBRANCH  24  26
ENDBRANCH   4  24
TORSDOF 8
ENDMDL
MODEL 2
REMARK VINA RESULT:      -6.6      7.035      9.094
REMARK  Name = Pixantrone
REMARK  8 active torsions:
REMARK  status: ('A' for Active; 'I' for Inactive)
REMARK    1  A    between atoms: N_1  and  C_2
REMARK    2  A    between atoms: C_2  and  C_3
REMARK    3  A    between atoms: C_3  and  N_4
REMARK    4  A    between atoms: N_4  and  C_5
REMARK    5  A    between atoms: C_8  and  N_9
REMARK    6  A    between atoms: N_9  and  C_10
REMARK    7  A    between atoms: C_10  and  C_11
REMARK    8  A    between atoms: C_11  and  N_12
REMARK                            x       y       z     vdW  Elec       q    Type
REMARK                         _______ _______ _______ _____ _____    ______ ____
ROOT
ATOM      1  C   UNL     1      -8.066   2.336 124.575  0.00  0.00    +0.000 A 
ATOM      2  C   UNL     1      -7.486   2.273 125.834  0.00  0.00    +0.000 A 
ATOM      3  C   UNL     1      -6.208   2.774 126.067  0.00  0.00    +0.000 A 
ATOM      4  C   UNL     1      -5.450   3.396 125.065  0.00  0.00    +0.000 A 
ATOM      5  C   UNL     1      -6.046   3.524 123.791  0.00  0.00    +0.000 A 
ATOM      6  C   UNL     1      -7.340   2.998 123.558  0.00  0.00    +0.000 A 
ATOM      7  C   UNL     1      -7.967   3.162 122.230  0.00  0.00    +0.000 C 
ATOM      8  O   UNL     1      -9.102   2.745 121.993  0.00  0.00    +0.000 OA
ATOM      9  C   UNL     1      -7.243   3.836 121.158  0.00  0.00    +0.000 A 
ATOM     10  C   UNL     1      -5.964   4.321 121.362  0.00  0.00    +0.000 A 
ATOM     11  C   UNL     1      -5.337   4.926 120.284  0.00  0.00    +0.000 A 
ATOM     12  N   UNL     1      -5.916   5.064 119.063  0.00  0.00    +0.000 NA
ATOM     13  C   UNL     1      -7.168   4.581 118.908  0.00  0.00    +0.000 A 
ATOM     14  C   UNL     1      -7.868   3.965 119.920  0.00  0.00    +0.000 A 
ATOM     15  C   UNL     1      -5.310   4.191 122.670  0.00  0.00    +0.000 C 
ATOM     16  O   UNL     1      -4.170   4.634 122.801  0.00  0.00    +0.000 OA
ENDROOT
BRANCH   1  17
ATOM     17  N   UNL     1      -9.285   1.673 124.353  0.00  0.00    +0.000 N 
ATOM     18  H   UNL     1     -10.076   2.151 124.802  0.00  0.00    +0.000 HD
BRANCH  17  19
ATOM     19  C   UNL     1      -9.316   0.216 124.510  0.00  0.00    +0.000 C 
BRANCH  19  20
ATOM     20  C   UNL     1      -9.388  -0.471 123.133  0.00  0.00    +0.000 C 
BRANCH  20  21
ATOM     21  N   UNL     1     -10.469   0.077 122.312  0.00  0.00    +0.000 NA
ATOM     22  H   UNL     1     -10.725  -0.599 121.594  0.00  0.00    +0.000 HD
ATOM     23  H   UNL     1     -10.139   0.908 121.822  0.00  0.00    +0.000 HD
ENDBRANCH  20  21
ENDBRANCH  19  20
ENDBRANCH  17  19
ENDBRANCH   1  17
BRANCH   4  24
ATOM     24  N   UNL     1      -4.181   3.884 125.350  0.00  0.00    +0.000 N 
ATOM     25  H   UNL     1      -3.473   3.804 124.613  0.00  0.00    +0.000 HD
BRANCH  24  26
ATOM     26  C   UNL     1      -3.796   4.346 126.673  0.00  0.00    +0.000 C 
BRANCH  26  27
ATOM     27  C   UNL     1      -2.605   3.565 127.240  0.00  0.00    +0.000 C 
BRANCH  27  28
ATOM     28  N   UNL     1      -1.557   3.405 126.226  0.00  0.00    +0.000 NA
ATOM     29  H   UNL     1      -1.320   2.417 126.136  0.00  0.00    +0.000 HD
ATOM     30  H   UNL     1      -0.710   3.875 126.540  0.00  0.00    +0.000 HD
ENDBRANCH  27  28
ENDBRANCH  26  27
ENDBRANCH  24  26
ENDBRANCH   4  24
TORSDOF 8
ENDMDL
MODEL 3
REMARK VINA RESULT:      -6.5      0.446      5.204
REMARK  Name = Pixantrone
REMARK  8 active torsions:
REMARK  status: ('A' for Active; 'I' for Inactive)
REMARK    1  A    between atoms: N_1  and  C_2
REMARK    2  A    between atoms: C_2  and  C_3
REMARK    3  A    between atoms: C_3  and  N_4
REMARK    4  A    between atoms: N_4  and  C_5
REMARK    5  A    between atoms: C_8  and  N_9
REMARK    6  A    between atoms: N_9  and  C_10
REMARK    7  A    between atoms: C_10  and  C_11
REMARK    8  A    between atoms: C_11  and  N_12
REMARK                            x       y       z     vdW  Elec       q    Type
REMARK                         _______ _______ _______ _____ _____    ______ ____
ROOT
ATOM      1  C   UNL     1      -8.297   4.295 128.990  0.00  0.00    +0.000 A 
ATOM      2  C   UNL     1      -7.823   3.350 129.889  0.00  0.00    +0.000 A 
ATOM      3  C   UNL     1      -8.245   3.340 131.216  0.00  0.00    +0.000 A 
ATOM      4  C   UNL     1      -9.188   4.251 131.712  0.00  0.00    +0.000 A 
ATOM      5  C   UNL     1      -9.728   5.184 130.799  0.00  0.00    +0.000 A 
ATOM      6  C   UNL     1      -9.282   5.197 129.455  0.00  0.00    +0.000 A 
ATOM      7  C   UNL     1      -9.873   6.157 128.500  0.00  0.00    +0.000 C 
ATOM      8  O   UNL     1      -9.535   6.184 127.315  0.00  0.00    +0.000 OA
ATOM      9  C   UNL     1     -10.888   7.104 128.948  0.00  0.00    +0.000 A 
ATOM     10  C   UNL     1     -11.304   7.126 130.267  0.00  0.00    +0.000 A 
ATOM     11  C   UNL     1     -12.253   8.073 130.616  0.00  0.00    +0.000 A 
ATOM     12  N   UNL     1     -12.785   8.960 129.734  0.00  0.00    +0.000 NA
ATOM     13  C   UNL     1     -12.355   8.900 128.455  0.00  0.00    +0.000 A 
ATOM     14  C   UNL     1     -11.416   7.996 128.017  0.00  0.00    +0.000 A 
ATOM     15  C   UNL     1     -10.752   6.180 131.245  0.00  0.00    +0.000 C 
ATOM     16  O   UNL     1     -11.150   6.241 132.407  0.00  0.00    +0.000 OA
ENDROOT
BRANCH   1  17
ATOM     17  N   UNL     1      -7.721   4.367 127.710  0.00  0.00    +0.000 N 
ATOM     18  H   UNL     1      -8.077   5.164 127.167  0.00  0.00    +0.000 HD
BRANCH  17  19
ATOM     19  C   UNL     1      -7.614   3.129 126.932  0.00  0.00    +0.000 C 
BRANCH  19  20
ATOM     20  C   UNL     1      -7.714   3.432 125.426  0.00  0.00    +0.000 C 
BRANCH  20  21
ATOM     21  N   UNL     1      -8.797   4.373 125.134  0.00  0.00    +0.000 NA
ATOM     22  H   UNL     1      -9.683   3.974 125.443  0.00  0.00    +0.000 HD
ATOM     23  H   UNL     1      -8.875   4.503 124.126  0.00  0.00    +0.000 HD
ENDBRANCH  20  21
ENDBRANCH  19  20
ENDBRANCH  17  19
ENDBRANCH   1  17
BRANCH   4  24
ATOM     24  N   UNL     1      -9.579   4.196 133.045  0.00  0.00    +0.000 N 
ATOM     25  H   UNL     1     -10.499   4.579 133.278  0.00  0.00    +0.000 HD
BRANCH  24  26
ATOM     26  C   UNL     1      -8.686   3.767 134.108  0.00  0.00    +0.000 C 
BRANCH  26  27
ATOM     27  C   UNL     1      -8.112   4.947 134.900  0.00  0.00    +0.000 C 
BRANCH  27  28
ATOM     28  N   UNL     1      -8.726   6.209 134.471  0.00  0.00    +0.000 NA
ATOM     29  H   UNL     1      -9.597   6.012 133.978  0.00  0.00    +0.000 HD
ATOM     30  H   UNL     1      -8.115   6.670 133.799  0.00  0.00    +0.000 HD
ENDBRANCH  27  28
ENDBRANCH  26  27
ENDBRANCH  24  26
ENDBRANCH   4  24
TORSDOF 8
ENDMDL
MODEL 4
REMARK VINA RESULT:      -6.2      7.392      9.457
REMARK  Name = Pixantrone
REMARK  8 active torsions:
REMARK  status: ('A' for Active; 'I' for Inactive)
REMARK    1  A    between atoms: N_1  and  C_2
REMARK    2  A    between atoms: C_2  and  C_3
REMARK    3  A    between atoms: C_3  and  N_4
REMARK    4  A    between atoms: N_4  and  C_5
REMARK    5  A    between atoms: C_8  and  N_9
REMARK    6  A    between atoms: N_9  and  C_10
REMARK    7  A    between atoms: C_10  and  C_11
REMARK    8  A    between atoms: C_11  and  N_12
REMARK                            x       y       z     vdW  Elec       q    Type
REMARK                         _______ _______ _______ _____ _____    ______ ____
ROOT
ATOM      1  C   UNL     1      -8.339   2.654 122.774  0.00  0.00    +0.000 A 
ATOM      2  C   UNL     1      -9.307   1.697 122.506  0.00  0.00    +0.000 A 
ATOM      3  C   UNL     1      -9.314   0.472 123.167  0.00  0.00    +0.000 A 
ATOM      4  C   UNL     1      -8.375   0.145 124.155  0.00  0.00    +0.000 A 
ATOM      5  C   UNL     1      -7.417   1.128 124.485  0.00  0.00    +0.000 A 
ATOM      6  C   UNL     1      -7.407   2.367 123.798  0.00  0.00    +0.000 A 
ATOM      7  C   UNL     1      -6.419   3.400 124.170  0.00  0.00    +0.000 C 
ATOM      8  O   UNL     1      -6.394   4.502 123.618  0.00  0.00    +0.000 OA
ATOM      9  C   UNL     1      -5.441   3.133 125.219  0.00  0.00    +0.000 A 
ATOM     10  C   UNL     1      -5.416   1.914 125.871  0.00  0.00    +0.000 A 
ATOM     11  C   UNL     1      -4.440   1.733 126.837  0.00  0.00    +0.000 A 
ATOM     12  N   UNL     1      -3.527   2.684 127.167  0.00  0.00    +0.000 NA
ATOM     13  C   UNL     1      -3.591   3.862 126.509  0.00  0.00    +0.000 A 
ATOM     14  C   UNL     1      -4.524   4.133 125.535  0.00  0.00    +0.000 A 
ATOM     15  C   UNL     1      -6.389   0.864 125.541  0.00  0.00    +0.000 C 
ATOM     16  O   UNL     1      -6.324  -0.205 126.146  0.00  0.00    +0.000 OA
ENDROOT
BRANCH   1  17
ATOM     17  N   UNL     1      -8.277   3.804 121.969  0.00  0.00    +0.000 N 
ATOM     18  H   UNL     1      -8.704   4.622 122.423  0.00  0.00    +0.000 HD
BRANCH  17  19
ATOM     19  C   UNL     1      -8.627   3.674 120.551  0.00  0.00    +0.000 C 
BRANCH  19  20
ATOM     20  C   UNL     1      -7.474   4.181 119.665  0.00  0.00    +0.000 C 
BRANCH  20  21
ATOM     21  N   UNL     1      -6.208   4.231 120.400  0.00  0.00    +0.000 NA
ATOM     22  H   UNL     1      -6.069   3.350 120.894  0.00  0.00    +0.000 HD
ATOM     23  H   UNL     1      -6.255   4.958 121.113  0.00  0.00    +0.000 HD
ENDBRANCH  20  21
ENDBRANCH  19  20
ENDBRANCH  17  19
ENDBRANCH   1  17
BRANCH   4  24
ATOM     24  N   UNL     1      -8.428  -1.091 124.787  0.00  0.00    +0.000 N 
ATOM     25  H   UNL     1      -8.717  -1.102 125.770  0.00  0.00    +0.000 HD
BRANCH  24  26
ATOM     26  C   UNL     1      -7.950  -2.314 124.163  0.00  0.00    +0.000 C 
BRANCH  26  27
ATOM     27  C   UNL     1      -8.930  -3.480 124.339  0.00  0.00    +0.000 C 
BRANCH  27  28
ATOM     28  N   UNL     1     -10.065  -3.349 123.419  0.00  0.00    +0.000 NA
ATOM     29  H   UNL     1      -9.914  -2.547 122.806  0.00  0.00    +0.000 HD
ATOM     30  H   UNL     1     -10.909  -3.146 123.952  0.00  0.00    +0.000 HD
ENDBRANCH  27  28
ENDBRANCH  26  27
ENDBRANCH  24  26
ENDBRANCH   4  24
TORSDOF 8
ENDMDL
MODEL 5
REMARK VINA RESULT:      -5.9      7.377      9.433
REMARK  Name = Pixantrone
REMARK  8 active torsions:
REMARK  status: ('A' for Active; 'I' for Inactive)
REMARK    1  A    between atoms: N_1  and  C_2
REMARK    2  A    between atoms: C_2  and  C_3
REMARK    3  A    between atoms: C_3  and  N_4
REMARK    4  A    between atoms: N_4  and  C_5
REMARK    5  A    between atoms: C_8  and  N_9
REMARK    6  A    between atoms: N_9  and  C_10
REMARK    7  A    between atoms: C_10  and  C_11
REMARK    8  A    between atoms: C_11  and  N_12
REMARK                            x       y       z     vdW  Elec       q    Type
REMARK                         _______ _______ _______ _____ _____    ______ ____
ROOT
ATOM      1  C   UNL     1      -8.453  -2.412 126.839  0.00  0.00    +0.000 A 
ATOM      2  C   UNL     1      -8.521  -3.389 127.823  0.00  0.00    +0.000 A 
ATOM      3  C   UNL     1      -7.642  -3.390 128.902  0.00  0.00    +0.000 A 
ATOM      4  C   UNL     1      -6.667  -2.399 129.078  0.00  0.00    +0.000 A 
ATOM      5  C   UNL     1      -6.619  -1.363 128.121  0.00  0.00    +0.000 A 
ATOM      6  C   UNL     1      -7.507  -1.376 127.017  0.00  0.00    +0.000 A 
ATOM      7  C   UNL     1      -7.469  -0.272 126.037  0.00  0.00    +0.000 C 
ATOM      8  O   UNL     1      -8.243  -0.230 125.078  0.00  0.00    +0.000 OA
ATOM      9  C   UNL     1      -6.502   0.809 126.188  0.00  0.00    +0.000 A 
ATOM     10  C   UNL     1      -5.604   0.814 127.241  0.00  0.00    +0.000 A 
ATOM     11  C   UNL     1      -4.703   1.864 127.298  0.00  0.00    +0.000 A 
ATOM     12  N   UNL     1      -4.667   2.871 126.386  0.00  0.00    +0.000 NA
ATOM     13  C   UNL     1      -5.565   2.830 125.378  0.00  0.00    +0.000 A 
ATOM     14  C   UNL     1      -6.496   1.828 125.239  0.00  0.00    +0.000 A 
ATOM     15  C   UNL     1      -5.617  -0.257 128.246  0.00  0.00    +0.000 C 
ATOM     16  O   UNL     1      -4.797  -0.211 129.160  0.00  0.00    +0.000 OA
ENDROOT
BRANCH   1  17
ATOM     17  N   UNL     1      -9.251  -2.545 125.690  0.00  0.00    +0.000 N 
ATOM     18  H   UNL     1     -10.255  -2.535 125.910  0.00  0.00    +0.000 HD
BRANCH  17  19
ATOM     19  C   UNL     1      -8.878  -3.565 124.705  0.00  0.00    +0.000 C 
BRANCH  19  20
ATOM     20  C   UNL     1      -9.443  -3.205 123.319  0.00  0.00    +0.000 C 
BRANCH  20  21
ATOM     21  N   UNL     1      -9.752  -1.777 123.216  0.00  0.00    +0.000 NA
ATOM     22  H   UNL     1     -10.241  -1.475 124.057  0.00  0.00    +0.000 HD
ATOM     23  H   UNL     1     -10.392  -1.621 122.438  0.00  0.00    +0.000 HD
ENDBRANCH  20  21
ENDBRANCH  19  20
ENDBRANCH  17  19
ENDBRANCH   1  17
BRANCH   4  24
ATOM     24  N   UNL     1      -5.815  -2.445 130.176  0.00  0.00    +0.000 N 
ATOM     25  H   UNL     1      -5.808  -1.629 130.796  0.00  0.00    +0.000 HD
BRANCH  24  26
ATOM     26  C   UNL     1      -4.851  -3.513 130.379  0.00  0.00    +0.000 C 
BRANCH  26  27
ATOM     27  C   UNL     1      -3.722  -3.484 129.343  0.00  0.00    +0.000 C 
BRANCH  27  28
ATOM     28  N   UNL     1      -2.733  -2.453 129.679  0.00  0.00    +0.000 NA
ATOM     29  H   UNL     1      -3.047  -1.552 129.318  0.00  0.00    +0.000 HD
ATOM     30  H   UNL     1      -1.855  -2.661 129.208  0.00  0.00    +0.000 HD
ENDBRANCH  27  28
ENDBRANCH  26  27
ENDBRANCH  24  26
ENDBRANCH   4  24
TORSDOF 8
ENDMDL
MODEL 6
REMARK VINA RESULT:      -5.9      7.225      8.647
REMARK  Name = Pixantrone
REMARK  8 active torsions:
REMARK  status: ('A' for Active; 'I' for Inactive)
REMARK    1  A    between atoms: N_1  and  C_2
REMARK    2  A    between atoms: C_2  and  C_3
REMARK    3  A    between atoms: C_3  and  N_4
REMARK    4  A    between atoms: N_4  and  C_5
REMARK    5  A    between atoms: C_8  and  N_9
REMARK    6  A    between atoms: N_9  and  C_10
REMARK    7  A    between atoms: C_10  and  C_11
REMARK    8  A    between atoms: C_11  and  N_12
REMARK                            x       y       z     vdW  Elec       q    Type
REMARK                         _______ _______ _______ _____ _____    ______ ____
ROOT
ATOM      1  C   UNL     1      -5.471   0.857 126.691  0.00  0.00    +0.000 A 
ATOM      2  C   UNL     1      -5.113   2.191 126.553  0.00  0.00    +0.000 A 
ATOM      3  C   UNL     1      -5.612   2.968 125.510  0.00  0.00    +0.000 A 
ATOM      4  C   UNL     1      -6.520   2.467 124.567  0.00  0.00    +0.000 A 
ATOM      5  C   UNL     1      -6.943   1.130 124.724  0.00  0.00    +0.000 A 
ATOM      6  C   UNL     1      -6.420   0.341 125.779  0.00  0.00    +0.000 A 
ATOM      7  C   UNL     1      -6.890  -1.049 125.953  0.00  0.00    +0.000 C 
ATOM      8  O   UNL     1      -6.483  -1.761 126.872  0.00  0.00    +0.000 OA
ATOM      9  C   UNL     1      -7.865  -1.613 125.026  0.00  0.00    +0.000 A 
ATOM     10  C   UNL     1      -8.354  -0.865 123.970  0.00  0.00    +0.000 A 
ATOM     11  C   UNL     1      -9.259  -1.484 123.122  0.00  0.00    +0.000 A 
ATOM     12  N   UNL     1      -9.678  -2.766 123.282  0.00  0.00    +0.000 NA
ATOM     13  C   UNL     1      -9.179  -3.459 124.329  0.00  0.00    +0.000 A 
ATOM     14  C   UNL     1      -8.278  -2.929 125.222  0.00  0.00    +0.000 A 
ATOM     15  C   UNL     1      -7.924   0.524 123.769  0.00  0.00    +0.000 C 
ATOM     16  O   UNL     1      -8.385   1.147 122.814  0.00  0.00    +0.000 OA
ENDROOT
BRANCH   1  17
ATOM     17  N   UNL     1      -4.818   0.073 127.658  0.00  0.00    +0.000 N 
ATOM     18  H   UNL     1      -4.920  -0.934 127.477  0.00  0.00    +0.000 HD
BRANCH  17  19
ATOM     19  C   UNL     1      -4.989   0.434 129.068  0.00  0.00    +0.000 C 
BRANCH  19  20
ATOM     20  C   UNL     1      -4.778  -0.798 129.967  0.00  0.00    +0.000 C 
BRANCH  20  21
ATOM     21  N   UNL     1      -4.208  -1.921 129.220  0.00  0.00    +0.000 NA
ATOM     22  H   UNL     1      -3.720  -2.542 129.864  0.00  0.00    +0.000 HD
ATOM     23  H   UNL     1      -3.508  -1.576 128.564  0.00  0.00    +0.000 HD
ENDBRANCH  20  21
ENDBRANCH  19  20
ENDBRANCH  17  19
ENDBRANCH   1  17
BRANCH   4  24
ATOM     24  N   UNL     1      -6.990   3.286 123.548  0.00  0.00    +0.000 N 
ATOM     25  H   UNL     1      -8.003   3.432 123.494  0.00  0.00    +0.000 HD
BRANCH  24  26
ATOM     26  C   UNL     1      -6.132   3.801 122.494  0.00  0.00    +0.000 C 
BRANCH  26  27
ATOM     27  C   UNL     1      -6.788   3.713 121.112  0.00  0.00    +0.000 C 
BRANCH  27  28
ATOM     28  N   UNL     1      -8.249   3.769 121.225  0.00  0.00    +0.000 NA
ATOM     29  H   UNL     1      -8.670   3.337 120.402  0.00  0.00    +0.000 HD
ATOM     30  H   UNL     1      -8.551   4.742 121.224  0.00  0.00    +0.000 HD
ENDBRANCH  27  28
ENDBRANCH  26  27
ENDBRANCH  24  26
ENDBRANCH   4  24
TORSDOF 8
ENDMDL
MODEL 7
REMARK VINA RESULT:      -5.9      4.784      8.224
REMARK  Name = Pixantrone
REMARK  8 active torsions:
REMARK  status: ('A' for Active; 'I' for Inactive)
REMARK    1  A    between atoms: N_1  and  C_2
REMARK    2  A    between atoms: C_2  and  C_3
REMARK    3  A    between atoms: C_3  and  N_4
REMARK    4  A    between atoms: N_4  and  C_5
REMARK    5  A    between atoms: C_8  and  N_9
REMARK    6  A    between atoms: N_9  and  C_10
REMARK    7  A    between atoms: C_10  and  C_11
REMARK    8  A    between atoms: C_11  and  N_12
REMARK                            x       y       z     vdW  Elec       q    Type
REMARK                         _______ _______ _______ _____ _____    ______ ____
ROOT
ATOM      1  C   UNL     1      -6.935  -1.243 124.908  0.00  0.00    +0.000 A 
ATOM      2  C   UNL     1      -6.764  -0.809 123.601  0.00  0.00    +0.000 A 
ATOM      3  C   UNL     1      -7.030   0.507 123.235  0.00  0.00    +0.000 A 
ATOM      4  C   UNL     1      -7.452   1.473 124.159  0.00  0.00    +0.000 A 
ATOM      5  C   UNL     1      -7.576   1.068 125.506  0.00  0.00    +0.000 A 
ATOM      6  C   UNL     1      -7.317  -0.277 125.867  0.00  0.00    +0.000 A 
ATOM      7  C   UNL     1      -7.421  -0.685 127.283  0.00  0.00    +0.000 C 
ATOM      8  O   UNL     1      -7.177  -1.837 127.646  0.00  0.00    +0.000 OA
ATOM      9  C   UNL     1      -7.817   0.286 128.298  0.00  0.00    +0.000 A 
ATOM     10  C   UNL     1      -8.109   1.593 127.952  0.00  0.00    +0.000 A 
ATOM     11  C   UNL     1      -8.501   2.445 128.972  0.00  0.00    +0.000 A 
ATOM     12  N   UNL     1      -8.605   2.059 130.271  0.00  0.00    +0.000 NA
ATOM     13  C   UNL     1      -8.306   0.776 130.565  0.00  0.00    +0.000 A 
ATOM     14  C   UNL     1      -7.908  -0.142 129.620  0.00  0.00    +0.000 A 
ATOM     15  C   UNL     1      -8.005   2.043 126.558  0.00  0.00    +0.000 C 
ATOM     16  O   UNL     1      -8.278   3.214 126.299  0.00  0.00    +0.000 OA
ENDROOT
BRANCH   1  17
ATOM     17  N   UNL     1      -6.811  -2.613 125.193  0.00  0.00    +0.000 N 
ATOM     18  H   UNL     1      -5.829  -2.905 125.283  0.00  0.00    +0.000 HD
BRANCH  17  19
ATOM     19  C   UNL     1      -7.634  -3.554 124.427  0.00  0.00    +0.000 C 
BRANCH  19  20
ATOM     20  C   UNL     1      -9.123  -3.369 124.772  0.00  0.00    +0.000 C 
BRANCH  20  21
ATOM     21  N   UNL     1      -9.938  -3.184 123.569  0.00  0.00    +0.000 NA
ATOM     22  H   UNL     1      -9.541  -3.729 122.805  0.00  0.00    +0.000 HD
ATOM     23  H   UNL     1      -9.900  -2.208 123.278  0.00  0.00    +0.000 HD
ENDBRANCH  20  21
ENDBRANCH  19  20
ENDBRANCH  17  19
ENDBRANCH   1  17
BRANCH   4  24
ATOM     24  N   UNL     1      -7.701   2.776 123.744  0.00  0.00    +0.000 N 
ATOM     25  H   UNL     1      -8.654   3.132 123.867  0.00  0.00    +0.000 HD
BRANCH  24  26
ATOM     26  C   UNL     1      -6.723   3.570 123.019  0.00  0.00    +0.000 C 
BRANCH  26  27
ATOM     27  C   UNL     1      -5.821   4.381 123.955  0.00  0.00    +0.000 C 
BRANCH  27  28
ATOM     28  N   UNL     1      -6.614   5.313 124.764  0.00  0.00    +0.000 NA
ATOM     29  H   UNL     1      -6.210   5.379 125.698  0.00  0.00    +0.000 HD
ATOM     30  H   UNL     1      -7.554   4.940 124.883  0.00  0.00    +0.000 HD
ENDBRANCH  27  28
ENDBRANCH  26  27
ENDBRANCH  24  26
ENDBRANCH   4  24
TORSDOF 8
ENDMDL
MODEL 8
REMARK VINA RESULT:      -5.8      6.902      8.214
REMARK  Name = Pixantrone
REMARK  8 active torsions:
REMARK  status: ('A' for Active; 'I' for Inactive)
REMARK    1  A    between atoms: N_1  and  C_2
REMARK    2  A    between atoms: C_2  and  C_3
REMARK    3  A    between atoms: C_3  and  N_4
REMARK    4  A    between atoms: N_4  and  C_5
REMARK    5  A    between atoms: C_8  and  N_9
REMARK    6  A    between atoms: N_9  and  C_10
REMARK    7  A    between atoms: C_10  and  C_11
REMARK    8  A    between atoms: C_11  and  N_12
REMARK                            x       y       z     vdW  Elec       q    Type
REMARK                         _______ _______ _______ _____ _____    ______ ____
ROOT
ATOM      1  C   UNL     1      -6.879   0.136 125.148  0.00  0.00    +0.000 A 
ATOM      2  C   UNL     1      -7.551   0.152 123.934  0.00  0.00    +0.000 A 
ATOM      3  C   UNL     1      -7.633   1.311 123.168  0.00  0.00    +0.000 A 
ATOM      4  C   UNL     1      -7.022   2.512 123.555  0.00  0.00    +0.000 A 
ATOM      5  C   UNL     1      -6.283   2.503 124.758  0.00  0.00    +0.000 A 
ATOM      6  C   UNL     1      -6.217   1.323 125.539  0.00  0.00    +0.000 A 
ATOM      7  C   UNL     1      -5.417   1.314 126.781  0.00  0.00    +0.000 C 
ATOM      8  O   UNL     1      -5.309   0.302 127.476  0.00  0.00    +0.000 OA
ATOM      9  C   UNL     1      -4.725   2.523 127.215  0.00  0.00    +0.000 A 
ATOM     10  C   UNL     1      -4.813   3.691 126.480  0.00  0.00    +0.000 A 
ATOM     11  C   UNL     1      -4.146   4.801 126.974  0.00  0.00    +0.000 A 
ATOM     12  N   UNL     1      -3.422   4.788 128.124  0.00  0.00    +0.000 NA
ATOM     13  C   UNL     1      -3.358   3.625 128.807  0.00  0.00    +0.000 A 
ATOM     14  C   UNL     1      -3.987   2.473 128.395  0.00  0.00    +0.000 A 
ATOM     15  C   UNL     1      -5.586   3.740 125.232  0.00  0.00    +0.000 C 
ATOM     16  O   UNL     1      -5.637   4.803 124.617  0.00  0.00    +0.000 OA
ENDROOT
BRANCH   1  17
ATOM     17  N   UNL     1      -6.963  -1.009 125.959  0.00  0.00    +0.000 N 
ATOM     18  H   UNL     1      -6.479  -1.815 125.545  0.00  0.00    +0.000 HD
BRANCH  17  19
ATOM     19  C   UNL     1      -8.264  -1.345 126.545  0.00  0.00    +0.000 C 
BRANCH  19  20
ATOM     20  C   UNL     1      -8.665  -2.784 126.171  0.00  0.00    +0.000 C 
BRANCH  20  21
ATOM     21  N   UNL     1      -9.901  -2.814 125.386  0.00  0.00    +0.000 NA
ATOM     22  H   UNL     1     -10.644  -2.352 125.908  0.00  0.00    +0.000 HD
ATOM     23  H   UNL     1     -10.198  -3.780 125.253  0.00  0.00    +0.000 HD
ENDBRANCH  20  21
ENDBRANCH  19  20
ENDBRANCH  17  19
ENDBRANCH   1  17
BRANCH   4  24
ATOM     24  N   UNL     1      -7.131   3.641 122.752  0.00  0.00    +0.000 N 
ATOM     25  H   UNL     1      -7.516   4.487 123.183  0.00  0.00    +0.000 HD
BRANCH  24  26
ATOM     26  C   UNL     1      -6.869   3.617 121.322  0.00  0.00    +0.000 C 
BRANCH  26  27
ATOM     27  C   UNL     1      -5.388   3.838 120.997  0.00  0.00    +0.000 C 
BRANCH  27  28
ATOM     28  N   UNL     1      -4.835   4.932 121.804  0.00  0.00    +0.000 NA
ATOM     29  H   UNL     1      -3.907   5.174 121.456  0.00  0.00    +0.000 HD
ATOM     30  H   UNL     1      -4.708   4.612 122.762  0.00  0.00    +0.000 HD
ENDBRANCH  27  28
ENDBRANCH  26  27
ENDBRANCH  24  26
ENDBRANCH   4  24
TORSDOF 8
ENDMDL
MODEL 9
REMARK VINA RESULT:      -5.7      5.639      9.152
REMARK  Name = Pixantrone
REMARK  8 active torsions:
REMARK  status: ('A' for Active; 'I' for Inactive)
REMARK    1  A    between atoms: N_1  and  C_2
REMARK    2  A    between atoms: C_2  and  C_3
REMARK    3  A    between atoms: C_3  and  N_4
REMARK    4  A    between atoms: N_4  and  C_5
REMARK    5  A    between atoms: C_8  and  N_9
REMARK    6  A    between atoms: N_9  and  C_10
REMARK    7  A    between atoms: C_10  and  C_11
REMARK    8  A    between atoms: C_11  and  N_12
REMARK                            x       y       z     vdW  Elec       q    Type
REMARK                         _______ _______ _______ _____ _____    ______ ____
ROOT
ATOM      1  C   UNL     1      -6.204  -1.541 125.018  0.00  0.00    +0.000 A 
ATOM      2  C   UNL     1      -6.431  -1.009 123.757  0.00  0.00    +0.000 A 
ATOM      3  C   UNL     1      -7.213   0.130 123.583  0.00  0.00    +0.000 A 
ATOM      4  C   UNL     1      -7.785   0.820 124.660  0.00  0.00    +0.000 A 
ATOM      5  C   UNL     1      -7.518   0.330 125.957  0.00  0.00    +0.000 A 
ATOM      6  C   UNL     1      -6.733  -0.838 126.125  0.00  0.00    +0.000 A 
ATOM      7  C   UNL     1      -6.435  -1.327 127.486  0.00  0.00    +0.000 C 
ATOM      8  O   UNL     1      -5.733  -2.322 127.679  0.00  0.00    +0.000 OA
ATOM      9  C   UNL     1      -6.970  -0.627 128.649  0.00  0.00    +0.000 A 
ATOM     10  C   UNL     1      -7.768   0.492 128.497  0.00  0.00    +0.000 A 
ATOM     11  C   UNL     1      -8.256   1.083 129.652  0.00  0.00    +0.000 A 
ATOM     12  N   UNL     1      -7.986   0.621 130.901  0.00  0.00    +0.000 NA
ATOM     13  C   UNL     1      -7.198  -0.472 131.004  0.00  0.00    +0.000 A 
ATOM     14  C   UNL     1      -6.669  -1.125 129.915  0.00  0.00    +0.000 A 
ATOM     15  C   UNL     1      -8.078   1.019 127.162  0.00  0.00    +0.000 C 
ATOM     16  O   UNL     1      -8.795   2.015 127.078  0.00  0.00    +0.000 OA
ENDROOT
BRANCH   1  17
ATOM     17  N   UNL     1      -5.547  -2.779 125.128  0.00  0.00    +0.000 N 
ATOM     18  H   UNL     1      -4.610  -2.687 125.541  0.00  0.00    +0.000 HD
BRANCH  17  19
ATOM     19  C   UNL     1      -5.593  -3.688 123.978  0.00  0.00    +0.000 C 
BRANCH  19  20
ATOM     20  C   UNL     1      -4.172  -4.145 123.599  0.00  0.00    +0.000 C 
BRANCH  20  21
ATOM     21  N   UNL     1      -4.167  -5.511 123.071  0.00  0.00    +0.000 NA
ATOM     22  H   UNL     1      -3.457  -5.589 122.344  0.00  0.00    +0.000 HD
ATOM     23  H   UNL     1      -5.061  -5.709 122.625  0.00  0.00    +0.000 HD
ENDBRANCH  20  21
ENDBRANCH  19  20
ENDBRANCH  17  19
ENDBRANCH   1  17
BRANCH   4  24
ATOM     24  N   UNL     1      -8.555   1.954 124.433  0.00  0.00    +0.000 N 
ATOM     25  H   UNL     1      -9.467   2.002 124.897  0.00  0.00    +0.000 HD
BRANCH  24  26
ATOM     26  C   UNL     1      -8.186   2.973 123.465  0.00  0.00    +0.000 C 
BRANCH  26  27
ATOM     27  C   UNL     1      -8.923   2.805 122.131  0.00  0.00    +0.000 C 
BRANCH  27  28
ATOM     28  N   UNL     1      -8.650   3.937 121.239  0.00  0.00    +0.000 NA
ATOM     29  H   UNL     1      -9.385   4.636 121.344  0.00  0.00    +0.000 HD
ATOM     30  H   UNL     1      -8.690   3.622 120.272  0.00  0.00    +0.000 HD
ENDBRANCH  27  28
ENDBRANCH  26  27
ENDBRANCH  24  26
ENDBRANCH   4  24
TORSDOF 8
ENDMDL
