MODEL 1
REMARK VINA RESULT:      -7.4      0.000      0.000
REMARK  Name = Pizotifen
REMARK  1 active torsions:
REMARK  status: ('A' for Active; 'I' for Inactive)
REMARK    1  A    between atoms: C_1  and  N_2
REMARK                            x       y       z     vdW  Elec       q    Type
REMARK                         _______ _______ _______ _____ _____    ______ ____
ROOT
ATOM      1  C   UNL     1      -4.689   3.034 127.592  0.00  0.00    +0.000 C 
ATOM      2  N   UNL     1      -5.916   2.459 128.150  0.00  0.00    +0.000 NA
ATOM      3  C   UNL     1      -6.720   1.829 127.094  0.00  0.00    +0.000 C 
ATOM      4  C   UNL     1      -6.031   0.625 126.453  0.00  0.00    +0.000 C 
ATOM      5  C   UNL     1      -5.685  -0.429 127.492  0.00  0.00    +0.000 C 
ATOM      6  C   UNL     1      -4.905   0.196 128.652  0.00  0.00    +0.000 C 
ATOM      7  C   UNL     1      -5.613   1.454 129.186  0.00  0.00    +0.000 C 
ATOM      8  C   UNL     1      -6.090  -1.730 127.401  0.00  0.00    +0.000 C 
ATOM      9  C   UNL     1      -6.884  -2.220 126.288  0.00  0.00    +0.000 A 
ATOM     10  C   UNL     1      -8.017  -3.013 126.424  0.00  0.00    +0.000 A 
ATOM     11  C   UNL     1      -8.667  -3.606 127.645  0.00  0.00    +0.000 C 
ATOM     12  C   UNL     1      -8.232  -2.977 128.965  0.00  0.00    +0.000 C 
ATOM     13  C   UNL     1      -6.777  -3.235 129.289  0.00  0.00    +0.000 A 
ATOM     14  C   UNL     1      -6.435  -4.069 130.361  0.00  0.00    +0.000 A 
ATOM     15  C   UNL     1      -5.097  -4.289 130.688  0.00  0.00    +0.000 A 
ATOM     16  C   UNL     1      -4.084  -3.705 129.933  0.00  0.00    +0.000 A 
ATOM     17  C   UNL     1      -4.410  -2.902 128.844  0.00  0.00    +0.000 A 
ATOM     18  C   UNL     1      -5.753  -2.638 128.529  0.00  0.00    +0.000 A 
ATOM     19  S   UNL     1      -8.753  -3.330 124.901  0.00  0.00    +0.000 S 
ATOM     20  C   UNL     1      -7.572  -2.435 124.064  0.00  0.00    +0.000 A 
ATOM     21  C   UNL     1      -6.599  -1.961 124.908  0.00  0.00    +0.000 A 
ENDROOT
TORSDOF 0
ENDMDL
MODEL 2
REMARK VINA RESULT:      -7.1      2.730      5.199
REMARK  Name = Pizotifen
REMARK  1 active torsions:
REMARK  status: ('A' for Active; 'I' for Inactive)
REMARK    1  A    between atoms: C_1  and  N_2
REMARK                            x       y       z     vdW  Elec       q    Type
REMARK                         _______ _______ _______ _____ _____    ______ ____
ROOT
ATOM      1  C   UNL     1      -4.836  -4.773 132.667  0.00  0.00    +0.000 C 
ATOM      2  N   UNL     1      -4.377  -3.753 131.719  0.00  0.00    +0.000 NA
ATOM      3  C   UNL     1      -4.857  -4.054 130.363  0.00  0.00    +0.000 C 
ATOM      4  C   UNL     1      -6.379  -3.988 130.236  0.00  0.00    +0.000 C 
ATOM      5  C   UNL     1      -6.906  -2.623 130.646  0.00  0.00    +0.000 C 
ATOM      6  C   UNL     1      -6.374  -2.232 132.028  0.00  0.00    +0.000 C 
ATOM      7  C   UNL     1      -4.847  -2.410 132.108  0.00  0.00    +0.000 C 
ATOM      8  C   UNL     1      -7.691  -1.851 129.837  0.00  0.00    +0.000 C 
ATOM      9  C   UNL     1      -8.096  -2.280 128.510  0.00  0.00    +0.000 A 
ATOM     10  C   UNL     1      -8.025  -1.484 127.374  0.00  0.00    +0.000 A 
ATOM     11  C   UNL     1      -7.609  -0.048 127.198  0.00  0.00    +0.000 C 
ATOM     12  C   UNL     1      -6.824   0.534 128.371  0.00  0.00    +0.000 C 
ATOM     13  C   UNL     1      -7.650   0.651 129.632  0.00  0.00    +0.000 A 
ATOM     14  C   UNL     1      -8.000   1.914 130.126  0.00  0.00    +0.000 A 
ATOM     15  C   UNL     1      -8.735   2.034 131.305  0.00  0.00    +0.000 A 
ATOM     16  C   UNL     1      -9.155   0.897 131.990  0.00  0.00    +0.000 A 
ATOM     17  C   UNL     1      -8.844  -0.364 131.491  0.00  0.00    +0.000 A 
ATOM     18  C   UNL     1      -8.069  -0.500 130.328  0.00  0.00    +0.000 A 
ATOM     19  S   UNL     1      -8.504  -2.348 125.965  0.00  0.00    +0.000 S 
ATOM     20  C   UNL     1      -8.818  -3.764 126.854  0.00  0.00    +0.000 A 
ATOM     21  C   UNL     1      -8.632  -3.572 128.200  0.00  0.00    +0.000 A 
ENDROOT
TORSDOF 0
ENDMDL
MODEL 3
REMARK VINA RESULT:      -7.0      2.597      5.492
REMARK  Name = Pizotifen
REMARK  1 active torsions:
REMARK  status: ('A' for Active; 'I' for Inactive)
REMARK    1  A    between atoms: C_1  and  N_2
REMARK                            x       y       z     vdW  Elec       q    Type
REMARK                         _______ _______ _______ _____ _____    ______ ____
ROOT
ATOM      1  C   UNL     1      -6.955  -2.451 130.476  0.00  0.00    +0.000 C 
ATOM      2  N   UNL     1      -7.882  -1.786 129.556  0.00  0.00    +0.000 NA
ATOM      3  C   UNL     1      -7.522  -0.371 129.391  0.00  0.00    +0.000 C 
ATOM      4  C   UNL     1      -6.163  -0.170 128.722  0.00  0.00    +0.000 C 
ATOM      5  C   UNL     1      -6.115  -0.844 127.360  0.00  0.00    +0.000 C 
ATOM      6  C   UNL     1      -6.552  -2.308 127.468  0.00  0.00    +0.000 C 
ATOM      7  C   UNL     1      -7.882  -2.438 128.232  0.00  0.00    +0.000 C 
ATOM      8  C   UNL     1      -5.788  -0.183 126.211  0.00  0.00    +0.000 C 
ATOM      9  C   UNL     1      -5.447   1.229 126.197  0.00  0.00    +0.000 A 
ATOM     10  C   UNL     1      -5.962   2.150 125.294  0.00  0.00    +0.000 A 
ATOM     11  C   UNL     1      -6.892   1.973 124.124  0.00  0.00    +0.000 C 
ATOM     12  C   UNL     1      -7.660   0.654 124.117  0.00  0.00    +0.000 C 
ATOM     13  C   UNL     1      -6.763  -0.548 123.927  0.00  0.00    +0.000 A 
ATOM     14  C   UNL     1      -6.830  -1.292 122.742  0.00  0.00    +0.000 A 
ATOM     15  C   UNL     1      -6.030  -2.421 122.568  0.00  0.00    +0.000 A 
ATOM     16  C   UNL     1      -5.133  -2.806 123.561  0.00  0.00    +0.000 A 
ATOM     17  C   UNL     1      -5.032  -2.056 124.729  0.00  0.00    +0.000 A 
ATOM     18  C   UNL     1      -5.861  -0.941 124.934  0.00  0.00    +0.000 A 
ATOM     19  S   UNL     1      -5.406   3.744 125.630  0.00  0.00    +0.000 S 
ATOM     20  C   UNL     1      -4.477   3.216 126.954  0.00  0.00    +0.000 A 
ATOM     21  C   UNL     1      -4.528   1.853 127.102  0.00  0.00    +0.000 A 
ENDROOT
TORSDOF 0
ENDMDL
MODEL 4
REMARK VINA RESULT:      -7.0      5.871      8.354
REMARK  Name = Pizotifen
REMARK  1 active torsions:
REMARK  status: ('A' for Active; 'I' for Inactive)
REMARK    1  A    between atoms: C_1  and  N_2
REMARK                            x       y       z     vdW  Elec       q    Type
REMARK                         _______ _______ _______ _____ _____    ______ ____
ROOT
ATOM      1  C   UNL     1     -12.416   7.989 130.356  0.00  0.00    +0.000 C 
ATOM      2  N   UNL     1     -11.777   7.206 129.295  0.00  0.00    +0.000 NA
ATOM      3  C   UNL     1     -10.366   7.589 129.147  0.00  0.00    +0.000 C 
ATOM      4  C   UNL     1      -9.523   7.262 130.378  0.00  0.00    +0.000 C 
ATOM      5  C   UNL     1      -9.591   5.781 130.714  0.00  0.00    +0.000 C 
ATOM      6  C   UNL     1     -11.046   5.316 130.809  0.00  0.00    +0.000 C 
ATOM      7  C   UNL     1     -11.855   5.760 129.576  0.00  0.00    +0.000 C 
ATOM      8  C   UNL     1      -8.483   4.991 130.839  0.00  0.00    +0.000 C 
ATOM      9  C   UNL     1      -7.137   5.510 130.668  0.00  0.00    +0.000 A 
ATOM     10  C   UNL     1      -6.153   4.897 129.903  0.00  0.00    +0.000 A 
ATOM     11  C   UNL     1      -6.158   3.598 129.143  0.00  0.00    +0.000 C 
ATOM     12  C   UNL     1      -7.547   3.021 128.881  0.00  0.00    +0.000 C 
ATOM     13  C   UNL     1      -8.252   2.589 130.147  0.00  0.00    +0.000 A 
ATOM     14  C   UNL     1      -8.482   1.230 130.393  0.00  0.00    +0.000 A 
ATOM     15  C   UNL     1      -9.160   0.822 131.542  0.00  0.00    +0.000 A 
ATOM     16  C   UNL     1      -9.590   1.762 132.474  0.00  0.00    +0.000 A 
ATOM     17  C   UNL     1      -9.337   3.113 132.259  0.00  0.00    +0.000 A 
ATOM     18  C   UNL     1      -8.694   3.541 131.087  0.00  0.00    +0.000 A 
ATOM     19  S   UNL     1      -4.711   5.836 129.856  0.00  0.00    +0.000 S 
ATOM     20  C   UNL     1      -5.380   7.041 130.855  0.00  0.00    +0.000 A 
ATOM     21  C   UNL     1      -6.644   6.711 131.275  0.00  0.00    +0.000 A 
ENDROOT
TORSDOF 0
ENDMDL
MODEL 5
REMARK VINA RESULT:      -6.7      9.401     11.813
REMARK  Name = Pizotifen
REMARK  1 active torsions:
REMARK  status: ('A' for Active; 'I' for Inactive)
REMARK    1  A    between atoms: C_1  and  N_2
REMARK                            x       y       z     vdW  Elec       q    Type
REMARK                         _______ _______ _______ _____ _____    ______ ____
ROOT
ATOM      1  C   UNL     1      -1.541  11.718 135.059  0.00  0.00    +0.000 C 
ATOM      2  N   UNL     1      -0.708  10.562 134.715  0.00  0.00    +0.000 NA
ATOM      3  C   UNL     1      -1.164   9.364 135.432  0.00  0.00    +0.000 C 
ATOM      4  C   UNL     1      -2.566   8.916 135.022  0.00  0.00    +0.000 C 
ATOM      5  C   UNL     1      -2.643   8.647 133.527  0.00  0.00    +0.000 C 
ATOM      6  C   UNL     1      -2.110   9.844 132.736  0.00  0.00    +0.000 C 
ATOM      7  C   UNL     1      -0.736  10.294 133.265  0.00  0.00    +0.000 C 
ATOM      8  C   UNL     1      -3.071   7.460 133.003  0.00  0.00    +0.000 C 
ATOM      9  C   UNL     1      -3.501   6.352 133.838  0.00  0.00    +0.000 A 
ATOM     10  C   UNL     1      -3.093   5.036 133.664  0.00  0.00    +0.000 A 
ATOM     11  C   UNL     1      -2.217   4.404 132.616  0.00  0.00    +0.000 C 
ATOM     12  C   UNL     1      -1.368   5.390 131.818  0.00  0.00    +0.000 C 
ATOM     13  C   UNL     1      -2.195   6.311 130.950  0.00  0.00    +0.000 A 
ATOM     14  C   UNL     1      -2.144   6.193 129.556  0.00  0.00    +0.000 A 
ATOM     15  C   UNL     1      -2.879   7.057 128.744  0.00  0.00    +0.000 A 
ATOM     16  C   UNL     1      -3.697   8.030 129.313  0.00  0.00    +0.000 A 
ATOM     17  C   UNL     1      -3.784   8.135 130.698  0.00  0.00    +0.000 A 
ATOM     18  C   UNL     1      -3.017   7.299 131.526  0.00  0.00    +0.000 A 
ATOM     19  S   UNL     1      -3.730   4.009 134.889  0.00  0.00    +0.000 S 
ATOM     20  C   UNL     1      -4.554   5.296 135.638  0.00  0.00    +0.000 A 
ATOM     21  C   UNL     1      -4.409   6.468 134.940  0.00  0.00    +0.000 A 
ENDROOT
TORSDOF 0
ENDMDL
MODEL 6
REMARK VINA RESULT:      -6.6     10.869     13.912
REMARK  Name = Pizotifen
REMARK  1 active torsions:
REMARK  status: ('A' for Active; 'I' for Inactive)
REMARK    1  A    between atoms: C_1  and  N_2
REMARK                            x       y       z     vdW  Elec       q    Type
REMARK                         _______ _______ _______ _____ _____    ______ ____
ROOT
ATOM      1  C   UNL     1      -2.337  14.108 132.951  0.00  0.00    +0.000 C 
ATOM      2  N   UNL     1      -1.148  13.292 133.212  0.00  0.00    +0.000 NA
ATOM      3  C   UNL     1      -1.213  12.695 134.553  0.00  0.00    +0.000 C 
ATOM      4  C   UNL     1      -2.361  11.698 134.711  0.00  0.00    +0.000 C 
ATOM      5  C   UNL     1      -2.264  10.580 133.686  0.00  0.00    +0.000 C 
ATOM      6  C   UNL     1      -2.121  11.154 132.274  0.00  0.00    +0.000 C 
ATOM      7  C   UNL     1      -1.008  12.215 132.213  0.00  0.00    +0.000 C 
ATOM      8  C   UNL     1      -2.241   9.256 134.024  0.00  0.00    +0.000 C 
ATOM      9  C   UNL     1      -2.318   8.806 135.403  0.00  0.00    +0.000 A 
ATOM     10  C   UNL     1      -1.484   7.845 135.960  0.00  0.00    +0.000 A 
ATOM     11  C   UNL     1      -0.393   7.009 135.348  0.00  0.00    +0.000 C 
ATOM     12  C   UNL     1       0.117   7.517 134.002  0.00  0.00    +0.000 C 
ATOM     13  C   UNL     1      -0.924   7.434 132.909  0.00  0.00    +0.000 A 
ATOM     14  C   UNL     1      -0.763   6.525 131.855  0.00  0.00    +0.000 A 
ATOM     15  C   UNL     1      -1.701   6.462 130.825  0.00  0.00    +0.000 A 
ATOM     16  C   UNL     1      -2.826   7.282 130.847  0.00  0.00    +0.000 A 
ATOM     17  C   UNL     1      -3.016   8.164 131.907  0.00  0.00    +0.000 A 
ATOM     18  C   UNL     1      -2.059   8.268 132.929  0.00  0.00    +0.000 A 
ATOM     19  S   UNL     1      -1.804   7.626 137.637  0.00  0.00    +0.000 S 
ATOM     20  C   UNL     1      -3.050   8.785 137.623  0.00  0.00    +0.000 A 
ATOM     21  C   UNL     1      -3.270   9.282 136.362  0.00  0.00    +0.000 A 
ENDROOT
TORSDOF 0
ENDMDL
MODEL 7
REMARK VINA RESULT:      -6.6      6.803      9.790
REMARK  Name = Pizotifen
REMARK  1 active torsions:
REMARK  status: ('A' for Active; 'I' for Inactive)
REMARK    1  A    between atoms: C_1  and  N_2
REMARK                            x       y       z     vdW  Elec       q    Type
REMARK                         _______ _______ _______ _____ _____    ______ ____
ROOT
ATOM      1  C   UNL     1      -3.991   4.222 126.889  0.00  0.00    +0.000 C 
ATOM      2  N   UNL     1      -3.983   3.575 128.204  0.00  0.00    +0.000 NA
ATOM      3  C   UNL     1      -3.062   4.267 129.116  0.00  0.00    +0.000 C 
ATOM      4  C   UNL     1      -3.494   5.698 129.435  0.00  0.00    +0.000 C 
ATOM      5  C   UNL     1      -4.889   5.731 130.037  0.00  0.00    +0.000 C 
ATOM      6  C   UNL     1      -5.875   4.959 129.156  0.00  0.00    +0.000 C 
ATOM      7  C   UNL     1      -5.332   3.563 128.803  0.00  0.00    +0.000 C 
ATOM      8  C   UNL     1      -5.171   6.320 131.237  0.00  0.00    +0.000 C 
ATOM      9  C   UNL     1      -4.153   6.977 132.038  0.00  0.00    +0.000 A 
ATOM     10  C   UNL     1      -3.986   6.786 133.403  0.00  0.00    +0.000 A 
ATOM     11  C   UNL     1      -4.775   5.968 134.390  0.00  0.00    +0.000 C 
ATOM     12  C   UNL     1      -5.689   4.920 133.760  0.00  0.00    +0.000 C 
ATOM     13  C   UNL     1      -6.818   5.530 132.959  0.00  0.00    +0.000 A 
ATOM     14  C   UNL     1      -8.138   5.418 133.412  0.00  0.00    +0.000 A 
ATOM     15  C   UNL     1      -9.191   5.949 132.666  0.00  0.00    +0.000 A 
ATOM     16  C   UNL     1      -8.937   6.624 131.475  0.00  0.00    +0.000 A 
ATOM     17  C   UNL     1      -7.626   6.773 131.032  0.00  0.00    +0.000 A 
ATOM     18  C   UNL     1      -6.561   6.207 131.751  0.00  0.00    +0.000 A 
ATOM     19  S   UNL     1      -2.628   7.657 134.003  0.00  0.00    +0.000 S 
ATOM     20  C   UNL     1      -2.271   8.296 132.467  0.00  0.00    +0.000 A 
ATOM     21  C   UNL     1      -3.198   7.916 131.529  0.00  0.00    +0.000 A 
ENDROOT
TORSDOF 0
ENDMDL
MODEL 8
REMARK VINA RESULT:      -6.6      2.102      4.925
REMARK  Name = Pizotifen
REMARK  1 active torsions:
REMARK  status: ('A' for Active; 'I' for Inactive)
REMARK    1  A    between atoms: C_1  and  N_2
REMARK                            x       y       z     vdW  Elec       q    Type
REMARK                         _______ _______ _______ _____ _____    ______ ____
ROOT
ATOM      1  C   UNL     1      -7.511  -3.045 132.066  0.00  0.00    +0.000 C 
ATOM      2  N   UNL     1      -6.382  -2.932 131.138  0.00  0.00    +0.000 NA
ATOM      3  C   UNL     1      -6.659  -3.663 129.894  0.00  0.00    +0.000 C 
ATOM      4  C   UNL     1      -7.824  -3.075 129.099  0.00  0.00    +0.000 C 
ATOM      5  C   UNL     1      -7.576  -1.614 128.758  0.00  0.00    +0.000 C 
ATOM      6  C   UNL     1      -7.212  -0.822 130.017  0.00  0.00    +0.000 C 
ATOM      7  C   UNL     1      -6.095  -1.522 130.813  0.00  0.00    +0.000 C 
ATOM      8  C   UNL     1      -7.615  -1.127 127.483  0.00  0.00    +0.000 C 
ATOM      9  C   UNL     1      -7.909  -1.971 126.338  0.00  0.00    +0.000 A 
ATOM     10  C   UNL     1      -7.178  -1.971 125.157  0.00  0.00    +0.000 A 
ATOM     11  C   UNL     1      -6.011  -1.129 124.718  0.00  0.00    +0.000 C 
ATOM     12  C   UNL     1      -5.293  -0.398 125.849  0.00  0.00    +0.000 C 
ATOM     13  C   UNL     1      -6.153   0.662 126.502  0.00  0.00    +0.000 A 
ATOM     14  C   UNL     1      -5.835   2.017 126.343  0.00  0.00    +0.000 A 
ATOM     15  C   UNL     1      -6.602   3.001 126.967  0.00  0.00    +0.000 A 
ATOM     16  C   UNL     1      -7.711   2.649 127.731  0.00  0.00    +0.000 A 
ATOM     17  C   UNL     1      -8.058   1.309 127.867  0.00  0.00    +0.000 A 
ATOM     18  C   UNL     1      -7.271   0.305 127.280  0.00  0.00    +0.000 A 
ATOM     19  S   UNL     1      -7.757  -3.159 124.055  0.00  0.00    +0.000 S 
ATOM     20  C   UNL     1      -8.978  -3.663 125.129  0.00  0.00    +0.000 A 
ATOM     21  C   UNL     1      -8.995  -2.903 126.272  0.00  0.00    +0.000 A 
ENDROOT
TORSDOF 0
ENDMDL
MODEL 9
REMARK VINA RESULT:      -6.5      3.682      6.124
REMARK  Name = Pizotifen
REMARK  1 active torsions:
REMARK  status: ('A' for Active; 'I' for Inactive)
REMARK    1  A    between atoms: C_1  and  N_2
REMARK                            x       y       z     vdW  Elec       q    Type
REMARK                         _______ _______ _______ _____ _____    ______ ____
ROOT
ATOM      1  C   UNL     1      -8.046  -3.367 123.963  0.00  0.00    +0.000 C 
ATOM      2  N   UNL     1      -6.772  -2.785 124.392  0.00  0.00    +0.000 NA
ATOM      3  C   UNL     1      -6.372  -1.693 123.495  0.00  0.00    +0.000 C 
ATOM      4  C   UNL     1      -7.328  -0.502 123.535  0.00  0.00    +0.000 C 
ATOM      5  C   UNL     1      -7.459   0.052 124.944  0.00  0.00    +0.000 C 
ATOM      6  C   UNL     1      -7.806  -1.066 125.932  0.00  0.00    +0.000 C 
ATOM      7  C   UNL     1      -6.857  -2.267 125.771  0.00  0.00    +0.000 C 
ATOM      8  C   UNL     1      -7.225   1.361 125.258  0.00  0.00    +0.000 C 
ATOM      9  C   UNL     1      -6.837   2.341 124.259  0.00  0.00    +0.000 A 
ATOM     10  C   UNL     1      -5.795   3.246 124.414  0.00  0.00    +0.000 A 
ATOM     11  C   UNL     1      -4.880   3.510 125.579  0.00  0.00    +0.000 C 
ATOM     12  C   UNL     1      -4.852   2.401 126.628  0.00  0.00    +0.000 C 
ATOM     13  C   UNL     1      -6.169   2.247 127.356  0.00  0.00    +0.000 A 
ATOM     14  C   UNL     1      -6.265   2.588 128.711  0.00  0.00    +0.000 A 
ATOM     15  C   UNL     1      -7.467   2.420 129.400  0.00  0.00    +0.000 A 
ATOM     16  C   UNL     1      -8.593   1.938 128.740  0.00  0.00    +0.000 A 
ATOM     17  C   UNL     1      -8.520   1.628 127.385  0.00  0.00    +0.000 A 
ATOM     18  C   UNL     1      -7.307   1.752 126.690  0.00  0.00    +0.000 A 
ATOM     19  S   UNL     1      -5.565   4.194 122.996  0.00  0.00    +0.000 S 
ATOM     20  C   UNL     1      -6.845   3.420 122.185  0.00  0.00    +0.000 A 
ATOM     21  C   UNL     1      -7.483   2.510 122.991  0.00  0.00    +0.000 A 
ENDROOT
TORSDOF 0
ENDMDL
