MODEL 1
REMARK VINA RESULT:      -8.0      0.000      0.000
REMARK  Name = Plerixafor
REMARK  4 active torsions:
REMARK  status: ('A' for Active; 'I' for Inactive)
REMARK    1  A    between atoms: C_1  and  N_2
REMARK    2  A    between atoms: C_1  and  C_16
REMARK    3  A    between atoms: C_19  and  C_20
REMARK    4  A    between atoms: C_20  and  N_21
REMARK                            x       y       z     vdW  Elec       q    Type
REMARK                         _______ _______ _______ _____ _____    ______ ____
ROOT
ATOM      1  C   UNL     1      -8.783   3.134 129.985  0.00  0.00    +0.000 A 
ATOM      2  C   UNL     1      -8.313   4.288 129.354  0.00  0.00    +0.000 A 
ATOM      3  C   UNL     1      -7.942   4.270 127.986  0.00  0.00    +0.000 A 
ATOM      4  C   UNL     1      -7.930   3.075 127.295  0.00  0.00    +0.000 A 
ATOM      5  C   UNL     1      -8.351   1.961 127.989  0.00  0.00    +0.000 A 
ATOM      6  C   UNL     1      -8.774   1.989 129.254  0.00  0.00    +0.000 A 
ENDROOT
BRANCH   1   7
ATOM      7  C   UNL     1      -9.204   2.981 131.427  0.00  0.00    +0.000 C 
BRANCH   7   8
ATOM      8  N   UNL     1      -8.172   3.511 132.395  0.00  0.00    +0.000 NA
ATOM      9  C   UNL     1      -7.829   2.393 133.338  0.00  0.00    +0.000 C 
ATOM     10  C   UNL     1      -7.268   1.120 132.684  0.00  0.00    +0.000 C 
ATOM     11  C   UNL     1      -5.802   1.298 132.399  0.00  0.00    +0.000 C 
ATOM     12  N   UNL     1      -5.584   2.302 131.365  0.00  0.00    +0.000 NA
ATOM     13  C   UNL     1      -4.150   2.533 131.223  0.00  0.00    +0.000 C 
ATOM     14  C   UNL     1      -3.783   3.923 130.678  0.00  0.00    +0.000 C 
ATOM     15  N   UNL     1      -4.240   5.037 131.509  0.00  0.00    +0.000 NA
ATOM     16  C   UNL     1      -3.532   5.160 132.781  0.00  0.00    +0.000 C 
ATOM     17  C   UNL     1      -4.067   6.292 133.674  0.00  0.00    +0.000 C 
ATOM     18  C   UNL     1      -5.355   5.955 134.434  0.00  0.00    +0.000 C 
ATOM     19  N   UNL     1      -6.484   5.872 133.530  0.00  0.00    +0.000 NA
ATOM     20  C   UNL     1      -7.686   5.372 134.158  0.00  0.00    +0.000 C 
ATOM     21  C   UNL     1      -8.584   4.845 133.010  0.00  0.00    +0.000 C 
ATOM     22  H   UNL     1      -6.110   3.149 131.595  0.00  0.00    +0.000 HD
ATOM     23  H   UNL     1      -5.232   4.909 131.636  0.00  0.00    +0.000 HD
ATOM     24  H   UNL     1      -6.295   5.204 132.799  0.00  0.00    +0.000 HD
ENDBRANCH   7   8
ENDBRANCH   1   7
BRANCH   4  25
ATOM     25  C   UNL     1      -7.524   2.887 125.842  0.00  0.00    +0.000 C 
BRANCH  25  26
ATOM     26  N   UNL     1      -7.651   1.448 125.418  0.00  0.00    +0.000 NA
ATOM     27  C   UNL     1      -6.240   1.015 125.095  0.00  0.00    +0.000 C 
ATOM     28  C   UNL     1      -5.310   0.686 126.256  0.00  0.00    +0.000 C 
ATOM     29  C   UNL     1      -5.395  -0.775 126.567  0.00  0.00    +0.000 C 
ATOM     30  N   UNL     1      -6.679  -1.041 127.186  0.00  0.00    +0.000 NA
ATOM     31  C   UNL     1      -6.814  -2.470 127.425  0.00  0.00    +0.000 C 
ATOM     32  C   UNL     1      -8.275  -2.931 127.517  0.00  0.00    +0.000 C 
ATOM     33  N   UNL     1      -9.058  -2.693 126.303  0.00  0.00    +0.000 NA
ATOM     34  C   UNL     1      -8.680  -3.548 125.177  0.00  0.00    +0.000 C 
ATOM     35  C   UNL     1      -9.465  -3.255 123.887  0.00  0.00    +0.000 C 
ATOM     36  C   UNL     1      -8.970  -2.039 123.105  0.00  0.00    +0.000 C 
ATOM     37  N   UNL     1      -9.298  -0.823 123.817  0.00  0.00    +0.000 NA
ATOM     38  C   UNL     1      -8.696   0.347 123.232  0.00  0.00    +0.000 C 
ATOM     39  C   UNL     1      -8.735   1.435 124.330  0.00  0.00    +0.000 C 
ATOM     40  H   UNL     1      -7.428  -0.647 126.614  0.00  0.00    +0.000 HD
ATOM     41  H   UNL     1      -8.962  -1.714 126.093  0.00  0.00    +0.000 HD
ATOM     42  H   UNL     1      -8.917  -0.854 124.749  0.00  0.00    +0.000 HD
ENDBRANCH  25  26
ENDBRANCH   4  25
TORSDOF 4
ENDMDL
MODEL 2
REMARK VINA RESULT:      -7.8      4.379      6.908
REMARK  Name = Plerixafor
REMARK  4 active torsions:
REMARK  status: ('A' for Active; 'I' for Inactive)
REMARK    1  A    between atoms: C_1  and  N_2
REMARK    2  A    between atoms: C_1  and  C_16
REMARK    3  A    between atoms: C_19  and  C_20
REMARK    4  A    between atoms: C_20  and  N_21
REMARK                            x       y       z     vdW  Elec       q    Type
REMARK                         _______ _______ _______ _____ _____    ______ ____
ROOT
ATOM      1  C   UNL     1      -5.917  -3.370 129.549  0.00  0.00    +0.000 A 
ATOM      2  C   UNL     1      -5.286  -2.688 128.506  0.00  0.00    +0.000 A 
ATOM      3  C   UNL     1      -6.036  -1.937 127.566  0.00  0.00    +0.000 A 
ATOM      4  C   UNL     1      -7.415  -1.972 127.607  0.00  0.00    +0.000 A 
ATOM      5  C   UNL     1      -7.980  -2.707 128.626  0.00  0.00    +0.000 A 
ATOM      6  C   UNL     1      -7.275  -3.353 129.557  0.00  0.00    +0.000 A 
ENDROOT
BRANCH   1   7
ATOM      7  C   UNL     1      -5.271  -4.219 130.617  0.00  0.00    +0.000 C 
BRANCH   7   8
ATOM      8  N   UNL     1      -4.623  -3.394 131.705  0.00  0.00    +0.000 NA
ATOM      9  C   UNL     1      -5.694  -3.052 132.702  0.00  0.00    +0.000 C 
ATOM     10  C   UNL     1      -6.398  -4.250 133.359  0.00  0.00    +0.000 C 
ATOM     11  C   UNL     1      -5.554  -4.783 134.483  0.00  0.00    +0.000 C 
ATOM     12  N   UNL     1      -4.323  -5.381 133.981  0.00  0.00    +0.000 NA
ATOM     13  C   UNL     1      -3.482  -5.758 135.113  0.00  0.00    +0.000 C 
ATOM     14  C   UNL     1      -1.978  -5.808 134.796  0.00  0.00    +0.000 C 
ATOM     15  N   UNL     1      -1.415  -4.536 134.344  0.00  0.00    +0.000 NA
ATOM     16  C   UNL     1      -1.336  -3.516 135.389  0.00  0.00    +0.000 C 
ATOM     17  C   UNL     1      -0.805  -2.163 134.885  0.00  0.00    +0.000 C 
ATOM     18  C   UNL     1      -1.834  -1.308 134.140  0.00  0.00    +0.000 C 
ATOM     19  N   UNL     1      -2.149  -1.883 132.849  0.00  0.00    +0.000 NA
ATOM     20  C   UNL     1      -3.251  -1.226 132.181  0.00  0.00    +0.000 C 
ATOM     21  C   UNL     1      -3.794  -2.243 131.145  0.00  0.00    +0.000 C 
ATOM     22  H   UNL     1      -3.866  -4.731 133.335  0.00  0.00    +0.000 HD
ATOM     23  H   UNL     1      -1.976  -4.238 133.563  0.00  0.00    +0.000 HD
ATOM     24  H   UNL     1      -2.465  -2.835 132.960  0.00  0.00    +0.000 HD
ENDBRANCH   7   8
ENDBRANCH   1   7
BRANCH   4  25
ATOM     25  C   UNL     1      -8.355  -1.254 126.652  0.00  0.00    +0.000 C 
BRANCH  25  26
ATOM     26  N   UNL     1      -7.837   0.114 126.296  0.00  0.00    +0.000 NA
ATOM     27  C   UNL     1      -8.676   1.069 127.112  0.00  0.00    +0.000 C 
ATOM     28  C   UNL     1      -8.344   1.228 128.590  0.00  0.00    +0.000 C 
ATOM     29  C   UNL     1      -7.378   2.357 128.768  0.00  0.00    +0.000 C 
ATOM     30  N   UNL     1      -6.085   1.942 128.259  0.00  0.00    +0.000 NA
ATOM     31  C   UNL     1      -5.150   3.053 128.350  0.00  0.00    +0.000 C 
ATOM     32  C   UNL     1      -3.986   2.945 127.355  0.00  0.00    +0.000 C 
ATOM     33  N   UNL     1      -4.396   2.933 125.950  0.00  0.00    +0.000 NA
ATOM     34  C   UNL     1      -4.911   4.217 125.472  0.00  0.00    +0.000 C 
ATOM     35  C   UNL     1      -5.393   4.183 124.011  0.00  0.00    +0.000 C 
ATOM     36  C   UNL     1      -6.782   3.576 123.815  0.00  0.00    +0.000 C 
ATOM     37  N   UNL     1      -6.735   2.147 124.042  0.00  0.00    +0.000 NA
ATOM     38  C   UNL     1      -8.041   1.542 124.059  0.00  0.00    +0.000 C 
ATOM     39  C   UNL     1      -7.863   0.175 124.762  0.00  0.00    +0.000 C 
ATOM     40  H   UNL     1      -6.188   1.567 127.315  0.00  0.00    +0.000 HD
ATOM     41  H   UNL     1      -5.068   2.189 125.859  0.00  0.00    +0.000 HD
ATOM     42  H   UNL     1      -6.363   1.953 124.957  0.00  0.00    +0.000 HD
ENDBRANCH  25  26
ENDBRANCH   4  25
TORSDOF 4
ENDMDL
MODEL 3
REMARK VINA RESULT:      -7.8      3.364      5.757
REMARK  Name = Plerixafor
REMARK  4 active torsions:
REMARK  status: ('A' for Active; 'I' for Inactive)
REMARK    1  A    between atoms: C_1  and  N_2
REMARK    2  A    between atoms: C_1  and  C_16
REMARK    3  A    between atoms: C_19  and  C_20
REMARK    4  A    between atoms: C_20  and  N_21
REMARK                            x       y       z     vdW  Elec       q    Type
REMARK                         _______ _______ _______ _____ _____    ______ ____
ROOT
ATOM      1  C   UNL     1      -9.028   1.679 130.411  0.00  0.00    +0.000 A 
ATOM      2  C   UNL     1      -8.467   1.695 129.131  0.00  0.00    +0.000 A 
ATOM      3  C   UNL     1      -7.770   0.568 128.627  0.00  0.00    +0.000 A 
ATOM      4  C   UNL     1      -7.536  -0.516 129.450  0.00  0.00    +0.000 A 
ATOM      5  C   UNL     1      -8.066  -0.448 130.720  0.00  0.00    +0.000 A 
ATOM      6  C   UNL     1      -8.789   0.579 131.170  0.00  0.00    +0.000 A 
ENDROOT
BRANCH   1   7
ATOM      7  C   UNL     1      -9.784   2.791 131.097  0.00  0.00    +0.000 C 
BRANCH   7   8
ATOM      8  N   UNL     1      -8.924   4.005 131.360  0.00  0.00    +0.000 NA
ATOM      9  C   UNL     1      -9.074   4.351 132.814  0.00  0.00    +0.000 C 
ATOM     10  C   UNL     1      -8.669   3.249 133.805  0.00  0.00    +0.000 C 
ATOM     11  C   UNL     1      -7.176   3.249 133.984  0.00  0.00    +0.000 C 
ATOM     12  N   UNL     1      -6.499   2.834 132.761  0.00  0.00    +0.000 NA
ATOM     13  C   UNL     1      -5.058   2.981 132.944  0.00  0.00    +0.000 C 
ATOM     14  C   UNL     1      -4.272   3.191 131.639  0.00  0.00    +0.000 C 
ATOM     15  N   UNL     1      -4.658   4.387 130.889  0.00  0.00    +0.000 NA
ATOM     16  C   UNL     1      -4.267   5.642 131.528  0.00  0.00    +0.000 C 
ATOM     17  C   UNL     1      -4.737   6.892 130.765  0.00  0.00    +0.000 C 
ATOM     18  C   UNL     1      -6.211   7.254 130.974  0.00  0.00    +0.000 C 
ATOM     19  N   UNL     1      -7.079   6.294 130.324  0.00  0.00    +0.000 NA
ATOM     20  C   UNL     1      -8.477   6.475 130.645  0.00  0.00    +0.000 C 
ATOM     21  C   UNL     1      -9.166   5.119 130.346  0.00  0.00    +0.000 C 
ATOM     22  H   UNL     1      -6.864   3.370 131.970  0.00  0.00    +0.000 HD
ATOM     23  H   UNL     1      -5.653   4.325 130.748  0.00  0.00    +0.000 HD
ATOM     24  H   UNL     1      -6.873   5.362 130.652  0.00  0.00    +0.000 HD
ENDBRANCH   7   8
ENDBRANCH   1   7
BRANCH   4  25
ATOM     25  C   UNL     1      -6.776  -1.777 129.070  0.00  0.00    +0.000 C 
BRANCH  25  26
ATOM     26  N   UNL     1      -6.078  -2.377 130.262  0.00  0.00    +0.000 NA
ATOM     27  C   UNL     1      -4.638  -1.942 130.125  0.00  0.00    +0.000 C 
ATOM     28  C   UNL     1      -4.282  -0.514 130.520  0.00  0.00    +0.000 C 
ATOM     29  C   UNL     1      -3.869  -0.480 131.957  0.00  0.00    +0.000 C 
ATOM     30  N   UNL     1      -5.045  -0.687 132.781  0.00  0.00    +0.000 NA
ATOM     31  C   UNL     1      -4.652  -0.736 134.181  0.00  0.00    +0.000 C 
ATOM     32  C   UNL     1      -5.651  -1.502 135.061  0.00  0.00    +0.000 C 
ATOM     33  N   UNL     1      -5.828  -2.906 134.685  0.00  0.00    +0.000 NA
ATOM     34  C   UNL     1      -4.666  -3.748 134.974  0.00  0.00    +0.000 C 
ATOM     35  C   UNL     1      -4.836  -5.210 134.526  0.00  0.00    +0.000 C 
ATOM     36  C   UNL     1      -4.612  -5.446 133.033  0.00  0.00    +0.000 C 
ATOM     37  N   UNL     1      -5.702  -4.877 132.271  0.00  0.00    +0.000 NA
ATOM     38  C   UNL     1      -5.462  -4.898 130.852  0.00  0.00    +0.000 C 
ATOM     39  C   UNL     1      -6.443  -3.868 130.243  0.00  0.00    +0.000 C 
ATOM     40  H   UNL     1      -5.548  -1.518 132.464  0.00  0.00    +0.000 HD
ATOM     41  H   UNL     1      -6.074  -2.909 133.710  0.00  0.00    +0.000 HD
ATOM     42  H   UNL     1      -5.804  -3.899 132.488  0.00  0.00    +0.000 HD
ENDBRANCH  25  26
ENDBRANCH   4  25
TORSDOF 4
ENDMDL
MODEL 4
REMARK VINA RESULT:      -7.8      3.950      5.529
REMARK  Name = Plerixafor
REMARK  4 active torsions:
REMARK  status: ('A' for Active; 'I' for Inactive)
REMARK    1  A    between atoms: C_1  and  N_2
REMARK    2  A    between atoms: C_1  and  C_16
REMARK    3  A    between atoms: C_19  and  C_20
REMARK    4  A    between atoms: C_20  and  N_21
REMARK                            x       y       z     vdW  Elec       q    Type
REMARK                         _______ _______ _______ _____ _____    ______ ____
ROOT
ATOM      1  C   UNL     1      -6.482  -3.079 130.616  0.00  0.00    +0.000 A 
ATOM      2  C   UNL     1      -7.619  -2.961 129.812  0.00  0.00    +0.000 A 
ATOM      3  C   UNL     1      -7.841  -1.801 129.029  0.00  0.00    +0.000 A 
ATOM      4  C   UNL     1      -6.988  -0.722 129.147  0.00  0.00    +0.000 A 
ATOM      5  C   UNL     1      -5.916  -0.878 129.999  0.00  0.00    +0.000 A 
ATOM      6  C   UNL     1      -5.663  -1.997 130.679  0.00  0.00    +0.000 A 
ENDROOT
BRANCH   1   7
ATOM      7  C   UNL     1      -6.107  -4.232 131.514  0.00  0.00    +0.000 C 
BRANCH   7   8
ATOM      8  N   UNL     1      -6.025  -3.835 132.970  0.00  0.00    +0.000 NA
ATOM      9  C   UNL     1      -5.356  -4.964 133.702  0.00  0.00    +0.000 C 
ATOM     10  C   UNL     1      -3.942  -5.324 133.220  0.00  0.00    +0.000 C 
ATOM     11  C   UNL     1      -2.942  -4.374 133.819  0.00  0.00    +0.000 C 
ATOM     12  N   UNL     1      -3.117  -3.026 133.294  0.00  0.00    +0.000 NA
ATOM     13  C   UNL     1      -2.217  -2.120 134.004  0.00  0.00    +0.000 C 
ATOM     14  C   UNL     1      -2.688  -0.656 134.035  0.00  0.00    +0.000 C 
ATOM     15  N   UNL     1      -3.981  -0.452 134.686  0.00  0.00    +0.000 NA
ATOM     16  C   UNL     1      -3.958  -0.655 136.134  0.00  0.00    +0.000 C 
ATOM     17  C   UNL     1      -5.337  -0.504 136.797  0.00  0.00    +0.000 C 
ATOM     18  C   UNL     1      -6.256  -1.722 136.650  0.00  0.00    +0.000 C 
ATOM     19  N   UNL     1      -6.714  -1.864 135.283  0.00  0.00    +0.000 NA
ATOM     20  C   UNL     1      -7.428  -3.098 135.042  0.00  0.00    +0.000 C 
ATOM     21  C   UNL     1      -7.362  -3.342 133.513  0.00  0.00    +0.000 C 
ATOM     22  H   UNL     1      -4.101  -2.756 133.365  0.00  0.00    +0.000 HD
ATOM     23  H   UNL     1      -4.632  -1.069 134.226  0.00  0.00    +0.000 HD
ATOM     24  H   UNL     1      -5.925  -1.913 134.656  0.00  0.00    +0.000 HD
ENDBRANCH   7   8
ENDBRANCH   1   7
BRANCH   4  25
ATOM     25  C   UNL     1      -7.112   0.600 128.406  0.00  0.00    +0.000 C 
BRANCH  25  26
ATOM     26  N   UNL     1      -7.506   0.389 126.968  0.00  0.00    +0.000 NA
ATOM     27  C   UNL     1      -6.207   0.445 126.200  0.00  0.00    +0.000 C 
ATOM     28  C   UNL     1      -5.306  -0.782 126.229  0.00  0.00    +0.000 C 
ATOM     29  C   UNL     1      -5.634  -1.672 125.071  0.00  0.00    +0.000 C 
ATOM     30  N   UNL     1      -6.921  -2.294 125.318  0.00  0.00    +0.000 NA
ATOM     31  C   UNL     1      -7.296  -3.102 124.167  0.00  0.00    +0.000 C 
ATOM     32  C   UNL     1      -8.811  -3.320 124.051  0.00  0.00    +0.000 C 
ATOM     33  N   UNL     1      -9.585  -2.087 123.894  0.00  0.00    +0.000 NA
ATOM     34  C   UNL     1      -9.406  -1.437 122.594  0.00  0.00    +0.000 C 
ATOM     35  C   UNL     1     -10.176  -0.113 122.455  0.00  0.00    +0.000 C 
ATOM     36  C   UNL     1      -9.504   1.086 123.125  0.00  0.00    +0.000 C 
ATOM     37  N   UNL     1      -9.586   0.959 124.564  0.00  0.00    +0.000 NA
ATOM     38  C   UNL     1      -8.810   1.955 125.257  0.00  0.00    +0.000 C 
ATOM     39  C   UNL     1      -8.616   1.415 126.693  0.00  0.00    +0.000 C 
ATOM     40  H   UNL     1      -7.610  -1.580 125.561  0.00  0.00    +0.000 HD
ATOM     41  H   UNL     1      -9.326  -1.492 124.662  0.00  0.00    +0.000 HD
ATOM     42  H   UNL     1      -9.181   0.085 124.859  0.00  0.00    +0.000 HD
ENDBRANCH  25  26
ENDBRANCH   4  25
TORSDOF 4
ENDMDL
MODEL 5
REMARK VINA RESULT:      -7.7      2.085      8.471
REMARK  Name = Plerixafor
REMARK  4 active torsions:
REMARK  status: ('A' for Active; 'I' for Inactive)
REMARK    1  A    between atoms: C_1  and  N_2
REMARK    2  A    between atoms: C_1  and  C_16
REMARK    3  A    between atoms: C_19  and  C_20
REMARK    4  A    between atoms: C_20  and  N_21
REMARK                            x       y       z     vdW  Elec       q    Type
REMARK                         _______ _______ _______ _____ _____    ______ ____
ROOT
ATOM      1  C   UNL     1      -7.181  -1.744 128.272  0.00  0.00    +0.000 A 
ATOM      2  C   UNL     1      -7.118  -2.556 129.408  0.00  0.00    +0.000 A 
ATOM      3  C   UNL     1      -7.595  -2.094 130.660  0.00  0.00    +0.000 A 
ATOM      4  C   UNL     1      -8.018  -0.787 130.792  0.00  0.00    +0.000 A 
ATOM      5  C   UNL     1      -8.004  -0.019 129.648  0.00  0.00    +0.000 A 
ATOM      6  C   UNL     1      -7.628  -0.474 128.452  0.00  0.00    +0.000 A 
ENDROOT
BRANCH   1   7
ATOM      7  C   UNL     1      -6.708  -2.077 126.878  0.00  0.00    +0.000 C 
BRANCH   7   8
ATOM      8  N   UNL     1      -6.349  -0.848 126.076  0.00  0.00    +0.000 NA
ATOM      9  C   UNL     1      -5.867  -1.318 124.732  0.00  0.00    +0.000 C 
ATOM     10  C   UNL     1      -6.871  -2.148 123.918  0.00  0.00    +0.000 C 
ATOM     11  C   UNL     1      -7.843  -1.234 123.224  0.00  0.00    +0.000 C 
ATOM     12  N   UNL     1      -8.704  -0.554 124.183  0.00  0.00    +0.000 NA
ATOM     13  C   UNL     1      -9.532   0.417 123.472  0.00  0.00    +0.000 C 
ATOM     14  C   UNL     1     -10.005   1.598 124.336  0.00  0.00    +0.000 C 
ATOM     15  N   UNL     1      -8.924   2.402 124.904  0.00  0.00    +0.000 NA
ATOM     16  C   UNL     1      -8.191   3.195 123.917  0.00  0.00    +0.000 C 
ATOM     17  C   UNL     1      -7.014   3.983 124.516  0.00  0.00    +0.000 C 
ATOM     18  C   UNL     1      -5.752   3.154 124.774  0.00  0.00    +0.000 C 
ATOM     19  N   UNL     1      -5.951   2.237 125.878  0.00  0.00    +0.000 NA
ATOM     20  C   UNL     1      -4.864   1.298 126.046  0.00  0.00    +0.000 C 
ATOM     21  C   UNL     1      -5.445   0.107 126.849  0.00  0.00    +0.000 C 
ATOM     22  H   UNL     1      -8.131  -0.135 124.920  0.00  0.00    +0.000 HD
ATOM     23  H   UNL     1      -8.324   1.763 125.400  0.00  0.00    +0.000 HD
ATOM     24  H   UNL     1      -6.753   1.651 125.703  0.00  0.00    +0.000 HD
ENDBRANCH   7   8
ENDBRANCH   1   7
BRANCH   4  25
ATOM     25  C   UNL     1      -8.520  -0.135 132.071  0.00  0.00    +0.000 C 
BRANCH  25  26
ATOM     26  N   UNL     1      -8.171   1.329 132.115  0.00  0.00    +0.000 NA
ATOM     27  C   UNL     1      -6.983   1.416 133.043  0.00  0.00    +0.000 C 
ATOM     28  C   UNL     1      -5.619   1.014 132.497  0.00  0.00    +0.000 C 
ATOM     29  C   UNL     1      -4.926   2.218 131.942  0.00  0.00    +0.000 C 
ATOM     30  N   UNL     1      -5.588   2.606 130.712  0.00  0.00    +0.000 NA
ATOM     31  C   UNL     1      -4.980   3.824 130.198  0.00  0.00    +0.000 C 
ATOM     32  C   UNL     1      -5.916   4.627 129.284  0.00  0.00    +0.000 C 
ATOM     33  N   UNL     1      -7.144   5.085 129.936  0.00  0.00    +0.000 NA
ATOM     34  C   UNL     1      -6.930   6.139 130.929  0.00  0.00    +0.000 C 
ATOM     35  C   UNL     1      -8.216   6.577 131.652  0.00  0.00    +0.000 C 
ATOM     36  C   UNL     1      -8.665   5.639 132.772  0.00  0.00    +0.000 C 
ATOM     37  N   UNL     1      -9.163   4.401 132.213  0.00  0.00    +0.000 NA
ATOM     38  C   UNL     1      -9.427   3.402 133.215  0.00  0.00    +0.000 C 
ATOM     39  C   UNL     1      -9.481   2.052 132.461  0.00  0.00    +0.000 C 
ATOM     40  H   UNL     1      -6.595   2.684 130.870  0.00  0.00    +0.000 HD
ATOM     41  H   UNL     1      -7.577   4.267 130.329  0.00  0.00    +0.000 HD
ATOM     42  H   UNL     1      -8.463   3.979 131.625  0.00  0.00    +0.000 HD
ENDBRANCH  25  26
ENDBRANCH   4  25
TORSDOF 4
ENDMDL
MODEL 6
REMARK VINA RESULT:      -7.4      4.038      6.288
REMARK  Name = Plerixafor
REMARK  4 active torsions:
REMARK  status: ('A' for Active; 'I' for Inactive)
REMARK    1  A    between atoms: C_1  and  N_2
REMARK    2  A    between atoms: C_1  and  C_16
REMARK    3  A    between atoms: C_19  and  C_20
REMARK    4  A    between atoms: C_20  and  N_21
REMARK                            x       y       z     vdW  Elec       q    Type
REMARK                         _______ _______ _______ _____ _____    ______ ____
ROOT
ATOM      1  C   UNL     1      -7.422  -2.633 130.990  0.00  0.00    +0.000 A 
ATOM      2  C   UNL     1      -8.047  -1.818 130.043  0.00  0.00    +0.000 A 
ATOM      3  C   UNL     1      -7.516  -1.681 128.736  0.00  0.00    +0.000 A 
ATOM      4  C   UNL     1      -6.304  -2.263 128.425  0.00  0.00    +0.000 A 
ATOM      5  C   UNL     1      -5.709  -3.009 129.419  0.00  0.00    +0.000 A 
ATOM      6  C   UNL     1      -6.244  -3.203 130.625  0.00  0.00    +0.000 A 
ENDROOT
BRANCH   1   7
ATOM      7  C   UNL     1      -7.847  -2.875 132.418  0.00  0.00    +0.000 C 
BRANCH   7   8
ATOM      8  N   UNL     1      -6.789  -2.470 133.418  0.00  0.00    +0.000 NA
ATOM      9  C   UNL     1      -7.237  -2.964 134.765  0.00  0.00    +0.000 C 
ATOM     10  C   UNL     1      -7.451  -4.481 134.879  0.00  0.00    +0.000 C 
ATOM     11  C   UNL     1      -6.131  -5.168 135.091  0.00  0.00    +0.000 C 
ATOM     12  N   UNL     1      -5.285  -5.060 133.909  0.00  0.00    +0.000 NA
ATOM     13  C   UNL     1      -3.971  -5.621 134.214  0.00  0.00    +0.000 C 
ATOM     14  C   UNL     1      -2.826  -5.052 133.359  0.00  0.00    +0.000 C 
ATOM     15  N   UNL     1      -2.634  -3.608 133.493  0.00  0.00    +0.000 NA
ATOM     16  C   UNL     1      -2.101  -3.196 134.791  0.00  0.00    +0.000 C 
ATOM     17  C   UNL     1      -1.967  -1.672 134.943  0.00  0.00    +0.000 C 
ATOM     18  C   UNL     1      -3.277  -0.942 135.260  0.00  0.00    +0.000 C 
ATOM     19  N   UNL     1      -4.163  -0.944 134.113  0.00  0.00    +0.000 NA
ATOM     20  C   UNL     1      -5.485  -0.439 134.409  0.00  0.00    +0.000 C 
ATOM     21  C   UNL     1      -6.415  -0.996 133.302  0.00  0.00    +0.000 C 
ATOM     22  H   UNL     1      -5.247  -4.084 133.603  0.00  0.00    +0.000 HD
ATOM     23  H   UNL     1      -3.526  -3.183 133.296  0.00  0.00    +0.000 HD
ATOM     24  H   UNL     1      -4.327  -1.890 133.803  0.00  0.00    +0.000 HD
ENDBRANCH   7   8
ENDBRANCH   1   7
BRANCH   4  25
ATOM     25  C   UNL     1      -5.589  -2.177 127.086  0.00  0.00    +0.000 C 
BRANCH  25  26
ATOM     26  N   UNL     1      -5.955  -0.917 126.347  0.00  0.00    +0.000 NA
ATOM     27  C   UNL     1      -5.558  -1.180 124.914  0.00  0.00    +0.000 C 
ATOM     28  C   UNL     1      -6.475  -2.051 124.066  0.00  0.00    +0.000 C 
ATOM     29  C   UNL     1      -7.462  -1.188 123.346  0.00  0.00    +0.000 C 
ATOM     30  N   UNL     1      -8.417  -0.676 124.310  0.00  0.00    +0.000 NA
ATOM     31  C   UNL     1      -9.339   0.230 123.643  0.00  0.00    +0.000 C 
ATOM     32  C   UNL     1      -9.985   1.244 124.598  0.00  0.00    +0.000 C 
ATOM     33  N   UNL     1      -9.031   2.129 125.269  0.00  0.00    +0.000 NA
ATOM     34  C   UNL     1      -8.405   3.108 124.379  0.00  0.00    +0.000 C 
ATOM     35  C   UNL     1      -7.361   3.998 125.076  0.00  0.00    +0.000 C 
ATOM     36  C   UNL     1      -5.998   3.338 125.279  0.00  0.00    +0.000 C 
ATOM     37  N   UNL     1      -6.090   2.310 126.292  0.00  0.00    +0.000 NA
ATOM     38  C   UNL     1      -4.890   1.521 126.399  0.00  0.00    +0.000 C 
ATOM     39  C   UNL     1      -5.300   0.226 127.138  0.00  0.00    +0.000 C 
ATOM     40  H   UNL     1      -7.921  -0.253 125.098  0.00  0.00    +0.000 HD
ATOM     41  H   UNL     1      -8.359   1.531 125.719  0.00  0.00    +0.000 HD
ATOM     42  H   UNL     1      -6.801   1.641 126.044  0.00  0.00    +0.000 HD
ENDBRANCH  25  26
ENDBRANCH   4  25
TORSDOF 4
ENDMDL
MODEL 7
REMARK VINA RESULT:      -7.2      3.256      7.336
REMARK  Name = Plerixafor
REMARK  4 active torsions:
REMARK  status: ('A' for Active; 'I' for Inactive)
REMARK    1  A    between atoms: C_1  and  N_2
REMARK    2  A    between atoms: C_1  and  C_16
REMARK    3  A    between atoms: C_19  and  C_20
REMARK    4  A    between atoms: C_20  and  N_21
REMARK                            x       y       z     vdW  Elec       q    Type
REMARK                         _______ _______ _______ _____ _____    ______ ____
ROOT
ATOM      1  C   UNL     1      -7.635  -1.722 130.346  0.00  0.00    +0.000 A 
ATOM      2  C   UNL     1      -7.279  -1.529 129.009  0.00  0.00    +0.000 A 
ATOM      3  C   UNL     1      -7.373  -0.249 128.408  0.00  0.00    +0.000 A 
ATOM      4  C   UNL     1      -7.934   0.798 129.111  0.00  0.00    +0.000 A 
ATOM      5  C   UNL     1      -8.317   0.531 130.407  0.00  0.00    +0.000 A 
ATOM      6  C   UNL     1      -8.159  -0.653 131.000  0.00  0.00    +0.000 A 
ENDROOT
BRANCH   1   7
ATOM      7  C   UNL     1      -7.606  -3.013 131.128  0.00  0.00    +0.000 C 
BRANCH   7   8
ATOM      8  N   UNL     1      -6.933  -2.866 132.472  0.00  0.00    +0.000 NA
ATOM      9  C   UNL     1      -5.729  -3.764 132.468  0.00  0.00    +0.000 C 
ATOM     10  C   UNL     1      -4.688  -3.477 131.375  0.00  0.00    +0.000 C 
ATOM     11  C   UNL     1      -3.806  -2.335 131.798  0.00  0.00    +0.000 C 
ATOM     12  N   UNL     1      -4.554  -1.085 131.854  0.00  0.00    +0.000 NA
ATOM     13  C   UNL     1      -3.690  -0.040 132.398  0.00  0.00    +0.000 C 
ATOM     14  C   UNL     1      -4.444   1.109 133.086  0.00  0.00    +0.000 C 
ATOM     15  N   UNL     1      -5.262   0.697 134.227  0.00  0.00    +0.000 NA
ATOM     16  C   UNL     1      -4.487   0.277 135.394  0.00  0.00    +0.000 C 
ATOM     17  C   UNL     1      -5.357  -0.218 136.561  0.00  0.00    +0.000 C 
ATOM     18  C   UNL     1      -5.883  -1.649 136.407  0.00  0.00    +0.000 C 
ATOM     19  N   UNL     1      -6.893  -1.721 135.371  0.00  0.00    +0.000 NA
ATOM     20  C   UNL     1      -7.289  -3.074 135.049  0.00  0.00    +0.000 C 
ATOM     21  C   UNL     1      -7.913  -3.014 133.632  0.00  0.00    +0.000 C 
ATOM     22  H   UNL     1      -5.412  -1.224 132.395  0.00  0.00    +0.000 HD
ATOM     23  H   UNL     1      -5.871  -0.032 133.892  0.00  0.00    +0.000 HD
ATOM     24  H   UNL     1      -6.526  -1.362 134.502  0.00  0.00    +0.000 HD
ENDBRANCH   7   8
ENDBRANCH   1   7
BRANCH   4  25
ATOM     25  C   UNL     1      -8.137   2.213 128.594  0.00  0.00    +0.000 C 
BRANCH  25  26
ATOM     26  N   UNL     1      -7.659   3.236 129.591  0.00  0.00    +0.000 NA
ATOM     27  C   UNL     1      -8.732   4.300 129.597  0.00  0.00    +0.000 C 
ATOM     28  C   UNL     1     -10.015   4.017 130.366  0.00  0.00    +0.000 C 
ATOM     29  C   UNL     1      -9.884   4.529 131.766  0.00  0.00    +0.000 C 
ATOM     30  N   UNL     1      -8.961   3.673 132.486  0.00  0.00    +0.000 NA
ATOM     31  C   UNL     1      -8.758   4.201 133.826  0.00  0.00    +0.000 C 
ATOM     32  C   UNL     1      -7.427   3.760 134.453  0.00  0.00    +0.000 C 
ATOM     33  N   UNL     1      -6.241   4.193 133.711  0.00  0.00    +0.000 NA
ATOM     34  C   UNL     1      -5.993   5.634 133.780  0.00  0.00    +0.000 C 
ATOM     35  C   UNL     1      -4.780   6.092 132.952  0.00  0.00    +0.000 C 
ATOM     36  C   UNL     1      -5.048   6.229 131.454  0.00  0.00    +0.000 C 
ATOM     37  N   UNL     1      -5.213   4.922 130.858  0.00  0.00    +0.000 NA
ATOM     38  C   UNL     1      -5.655   4.984 129.489  0.00  0.00    +0.000 C 
ATOM     39  C   UNL     1      -6.225   3.582 129.166  0.00  0.00    +0.000 C 
ATOM     40  H   UNL     1      -8.097   3.567 131.950  0.00  0.00    +0.000 HD
ATOM     41  H   UNL     1      -6.364   3.867 132.767  0.00  0.00    +0.000 HD
ATOM     42  H   UNL     1      -5.946   4.415 131.329  0.00  0.00    +0.000 HD
ENDBRANCH  25  26
ENDBRANCH   4  25
TORSDOF 4
ENDMDL
MODEL 8
REMARK VINA RESULT:      -7.2      2.579      4.953
REMARK  Name = Plerixafor
REMARK  4 active torsions:
REMARK  status: ('A' for Active; 'I' for Inactive)
REMARK    1  A    between atoms: C_1  and  N_2
REMARK    2  A    between atoms: C_1  and  C_16
REMARK    3  A    between atoms: C_19  and  C_20
REMARK    4  A    between atoms: C_20  and  N_21
REMARK                            x       y       z     vdW  Elec       q    Type
REMARK                         _______ _______ _______ _____ _____    ______ ____
ROOT
ATOM      1  C   UNL     1      -4.065   5.371 131.429  0.00  0.00    +0.000 A 
ATOM      2  C   UNL     1      -2.851   5.605 130.779  0.00  0.00    +0.000 A 
ATOM      3  C   UNL     1      -2.798   5.781 129.374  0.00  0.00    +0.000 A 
ATOM      4  C   UNL     1      -3.940   5.602 128.619  0.00  0.00    +0.000 A 
ATOM      5  C   UNL     1      -5.096   5.317 129.313  0.00  0.00    +0.000 A 
ATOM      6  C   UNL     1      -5.163   5.227 130.642  0.00  0.00    +0.000 A 
ENDROOT
BRANCH   1   7
ATOM      7  C   UNL     1      -4.290   5.151 132.906  0.00  0.00    +0.000 C 
BRANCH   7   8
ATOM      8  N   UNL     1      -5.259   4.027 133.187  0.00  0.00    +0.000 NA
ATOM      9  C   UNL     1      -5.729   4.187 134.605  0.00  0.00    +0.000 C 
ATOM     10  C   UNL     1      -6.428   5.517 134.928  0.00  0.00    +0.000 C 
ATOM     11  C   UNL     1      -7.863   5.460 134.483  0.00  0.00    +0.000 C 
ATOM     12  N   UNL     1      -7.963   5.400 133.030  0.00  0.00    +0.000 NA
ATOM     13  C   UNL     1      -9.362   5.209 132.659  0.00  0.00    +0.000 C 
ATOM     14  C   UNL     1      -9.568   4.524 131.297  0.00  0.00    +0.000 C 
ATOM     15  N   UNL     1      -8.991   3.183 131.204  0.00  0.00    +0.000 NA
ATOM     16  C   UNL     1      -9.686   2.179 132.008  0.00  0.00    +0.000 C 
ATOM     17  C   UNL     1      -9.029   0.789 131.954  0.00  0.00    +0.000 C 
ATOM     18  C   UNL     1      -7.791   0.630 132.842  0.00  0.00    +0.000 C 
ATOM     19  N   UNL     1      -6.675   1.390 132.317  0.00  0.00    +0.000 NA
ATOM     20  C   UNL     1      -5.538   1.432 133.210  0.00  0.00    +0.000 C 
ATOM     21  C   UNL     1      -4.702   2.666 132.783  0.00  0.00    +0.000 C 
ATOM     22  H   UNL     1      -7.346   4.664 132.676  0.00  0.00    +0.000 HD
ATOM     23  H   UNL     1      -8.021   3.272 131.461  0.00  0.00    +0.000 HD
ATOM     24  H   UNL     1      -6.935   2.359 132.208  0.00  0.00    +0.000 HD
ENDBRANCH   7   8
ENDBRANCH   1   7
BRANCH   4  25
ATOM     25  C   UNL     1      -4.038   5.718 127.106  0.00  0.00    +0.000 C 
BRANCH  25  26
ATOM     26  N   UNL     1      -4.984   4.694 126.536  0.00  0.00    +0.000 NA
ATOM     27  C   UNL     1      -4.119   3.493 126.235  0.00  0.00    +0.000 C 
ATOM     28  C   UNL     1      -3.707   2.599 127.398  0.00  0.00    +0.000 C 
ATOM     29  C   UNL     1      -4.704   1.496 127.559  0.00  0.00    +0.000 C 
ATOM     30  N   UNL     1      -5.931   2.057 128.092  0.00  0.00    +0.000 NA
ATOM     31  C   UNL     1      -6.941   1.014 128.182  0.00  0.00    +0.000 C 
ATOM     32  C   UNL     1      -8.376   1.560 128.163  0.00  0.00    +0.000 C 
ATOM     33  N   UNL     1      -8.723   2.294 126.945  0.00  0.00    +0.000 NA
ATOM     34  C   UNL     1      -8.847   1.447 125.758  0.00  0.00    +0.000 C 
ATOM     35  C   UNL     1      -9.156   2.229 124.470  0.00  0.00    +0.000 C 
ATOM     36  C   UNL     1      -7.944   2.909 123.834  0.00  0.00    +0.000 C 
ATOM     37  N   UNL     1      -7.518   4.027 124.648  0.00  0.00    +0.000 NA
ATOM     38  C   UNL     1      -6.270   4.594 124.208  0.00  0.00    +0.000 C 
ATOM     39  C   UNL     1      -5.734   5.414 125.406  0.00  0.00    +0.000 C 
ATOM     40  H   UNL     1      -6.218   2.860 127.529  0.00  0.00    +0.000 HD
ATOM     41  H   UNL     1      -8.024   3.009 126.837  0.00  0.00    +0.000 HD
ATOM     42  H   UNL     1      -7.329   3.719 125.588  0.00  0.00    +0.000 HD
ENDBRANCH  25  26
ENDBRANCH   4  25
TORSDOF 4
ENDMDL
MODEL 9
REMARK VINA RESULT:      -7.2      4.044      6.613
REMARK  Name = Plerixafor
REMARK  4 active torsions:
REMARK  status: ('A' for Active; 'I' for Inactive)
REMARK    1  A    between atoms: C_1  and  N_2
REMARK    2  A    between atoms: C_1  and  C_16
REMARK    3  A    between atoms: C_19  and  C_20
REMARK    4  A    between atoms: C_20  and  N_21
REMARK                            x       y       z     vdW  Elec       q    Type
REMARK                         _______ _______ _______ _____ _____    ______ ____
ROOT
ATOM      1  C   UNL     1      -9.243   1.855 131.010  0.00  0.00    +0.000 A 
ATOM      2  C   UNL     1      -8.307   1.615 130.001  0.00  0.00    +0.000 A 
ATOM      3  C   UNL     1      -7.691   0.345 129.866  0.00  0.00    +0.000 A 
ATOM      4  C   UNL     1      -7.925  -0.633 130.811  0.00  0.00    +0.000 A 
ATOM      5  C   UNL     1      -8.815  -0.317 131.814  0.00  0.00    +0.000 A 
ATOM      6  C   UNL     1      -9.455   0.851 131.900  0.00  0.00    +0.000 A 
ENDROOT
BRANCH   1   7
ATOM      7  C   UNL     1      -9.974   3.144 131.297  0.00  0.00    +0.000 C 
BRANCH   7   8
ATOM      8  N   UNL     1      -9.040   4.316 131.484  0.00  0.00    +0.000 NA
ATOM      9  C   UNL     1      -9.237   4.825 132.884  0.00  0.00    +0.000 C 
ATOM     10  C   UNL     1      -8.967   3.809 134.006  0.00  0.00    +0.000 C 
ATOM     11  C   UNL     1      -7.490   3.723 134.270  0.00  0.00    +0.000 C 
ATOM     12  N   UNL     1      -6.785   3.135 133.139  0.00  0.00    +0.000 NA
ATOM     13  C   UNL     1      -5.348   3.199 133.389  0.00  0.00    +0.000 C 
ATOM     14  C   UNL     1      -4.483   3.214 132.118  0.00  0.00    +0.000 C 
ATOM     15  N   UNL     1      -4.738   4.347 131.228  0.00  0.00    +0.000 NA
ATOM     16  C   UNL     1      -4.287   5.633 131.757  0.00  0.00    +0.000 C 
ATOM     17  C   UNL     1      -4.622   6.823 130.843  0.00  0.00    +0.000 C 
ATOM     18  C   UNL     1      -6.073   7.308 130.928  0.00  0.00    +0.000 C 
ATOM     19  N   UNL     1      -6.977   6.347 130.330  0.00  0.00    +0.000 NA
ATOM     20  C   UNL     1      -8.372   6.658 130.548  0.00  0.00    +0.000 C 
ATOM     21  C   UNL     1      -9.145   5.330 130.350  0.00  0.00    +0.000 C 
ATOM     22  H   UNL     1      -7.067   3.608 132.276  0.00  0.00    +0.000 HD
ATOM     23  H   UNL     1      -5.727   4.340 131.036  0.00  0.00    +0.000 HD
ATOM     24  H   UNL     1      -6.859   5.443 130.763  0.00  0.00    +0.000 HD
ENDBRANCH   7   8
ENDBRANCH   1   7
BRANCH   4  25
ATOM     25  C   UNL     1      -7.314  -2.026 130.825  0.00  0.00    +0.000 C 
BRANCH  25  26
ATOM     26  N   UNL     1      -6.226  -2.137 131.860  0.00  0.00    +0.000 NA
ATOM     27  C   UNL     1      -6.952  -2.152 133.184  0.00  0.00    +0.000 C 
ATOM     28  C   UNL     1      -7.623  -3.450 133.617  0.00  0.00    +0.000 C 
ATOM     29  C   UNL     1      -6.670  -4.255 134.442  0.00  0.00    +0.000 C 
ATOM     30  N   UNL     1      -5.635  -4.780 133.572  0.00  0.00    +0.000 NA
ATOM     31  C   UNL     1      -4.653  -5.501 134.368  0.00  0.00    +0.000 C 
ATOM     32  C   UNL     1      -3.277  -5.588 133.694  0.00  0.00    +0.000 C 
ATOM     33  N   UNL     1      -2.651  -4.290 133.437  0.00  0.00    +0.000 NA
ATOM     34  C   UNL     1      -2.204  -3.598 134.647  0.00  0.00    +0.000 C 
ATOM     35  C   UNL     1      -1.599  -2.210 134.377  0.00  0.00    +0.000 C 
ATOM     36  C   UNL     1      -2.627  -1.103 134.146  0.00  0.00    +0.000 C 
ATOM     37  N   UNL     1      -3.277  -1.288 132.867  0.00  0.00    +0.000 NA
ATOM     38  C   UNL     1      -4.387  -0.392 132.670  0.00  0.00    +0.000 C 
ATOM     39  C   UNL     1      -5.232  -1.013 131.533  0.00  0.00    +0.000 C 
ATOM     40  H   UNL     1      -5.236  -4.025 133.012  0.00  0.00    +0.000 HD
ATOM     41  H   UNL     1      -3.318  -3.754 132.910  0.00  0.00    +0.000 HD
ATOM     42  H   UNL     1      -3.691  -2.205 132.818  0.00  0.00    +0.000 HD
ENDBRANCH  25  26
ENDBRANCH   4  25
TORSDOF 4
ENDMDL
