MODEL 1
REMARK VINA RESULT:      -7.3      0.000      0.000
REMARK  Name = Podofilox
REMARK  8 active torsions:
REMARK  status: ('A' for Active; 'I' for Inactive)
REMARK    1  A    between atoms: C_9  and  C_10
REMARK    2  A    between atoms: C_12  and  O_13
REMARK    3  A    between atoms: O_13  and  C_14
REMARK    4  A    between atoms: C_15  and  O_16
REMARK    5  A    between atoms: O_16  and  C_17
REMARK    6  A    between atoms: C_18  and  O_19
REMARK    7  A    between atoms: O_19  and  C_20
REMARK    8  A    between atoms: C_31  and  O_32
REMARK                            x       y       z     vdW  Elec       q    Type
REMARK                         _______ _______ _______ _____ _____    ______ ____
ROOT
ATOM      1  C   UNL     1      -7.404   3.917 125.690  0.00  0.00    +0.000 C 
ATOM      2  C   UNL     1      -8.288   3.595 124.526  0.00  0.00    +0.000 C 
ATOM      3  O   UNL     1      -9.092   2.495 124.986  0.00  0.00    +0.000 OA
ATOM      4  C   UNL     1      -8.634   2.032 126.196  0.00  0.00    +0.000 C 
ATOM      5  O   UNL     1      -9.207   1.190 126.874  0.00  0.00    +0.000 OA
ATOM      6  C   UNL     1      -7.295   2.633 126.472  0.00  0.00    +0.000 C 
ATOM      7  C   UNL     1      -6.891   2.903 127.932  0.00  0.00    +0.000 C 
ATOM      8  C   UNL     1      -5.630   3.780 127.941  0.00  0.00    +0.000 A 
ATOM      9  C   UNL     1      -4.867   3.830 129.126  0.00  0.00    +0.000 A 
ATOM     10  C   UNL     1      -3.792   4.688 129.170  0.00  0.00    +0.000 A 
ATOM     11  C   UNL     1      -3.441   5.462 128.089  0.00  0.00    +0.000 A 
ATOM     12  O   UNL     1      -2.370   6.262 128.358  0.00  0.00    +0.000 OA
ATOM     13  C   UNL     1      -2.275   6.079 129.785  0.00  0.00    +0.000 C 
ATOM     14  O   UNL     1      -2.985   4.911 130.244  0.00  0.00    +0.000 OA
ATOM     15  C   UNL     1      -4.140   5.427 126.903  0.00  0.00    +0.000 A 
ATOM     16  C   UNL     1      -5.269   4.593 126.814  0.00  0.00    +0.000 A 
ATOM     17  C   UNL     1      -6.053   4.563 125.499  0.00  0.00    +0.000 C 
ENDROOT
BRANCH   7  18
ATOM     18  C   UNL     1      -8.004   3.541 128.757  0.00  0.00    +0.000 A 
ATOM     19  C   UNL     1      -8.345   4.883 128.615  0.00  0.00    +0.000 A 
ATOM     20  C   UNL     1      -9.310   5.460 129.459  0.00  0.00    +0.000 A 
ATOM     21  C   UNL     1      -9.891   4.700 130.506  0.00  0.00    +0.000 A 
ATOM     22  C   UNL     1      -9.544   3.354 130.651  0.00  0.00    +0.000 A 
ATOM     23  C   UNL     1      -8.702   2.793 129.712  0.00  0.00    +0.000 A 
BRANCH  20  24
ATOM     24  O   UNL     1      -9.583   6.772 129.135  0.00  0.00    +0.000 OA
ATOM     25  C   UNL     1     -10.615   6.991 128.181  0.00  0.00    +0.000 C 
ENDBRANCH  20  24
BRANCH  21  26
ATOM     26  O   UNL     1     -10.805   5.335 131.302  0.00  0.00    +0.000 OA
ATOM     27  C   UNL     1     -10.374   6.103 132.408  0.00  0.00    +0.000 C 
ENDBRANCH  21  26
BRANCH  22  28
ATOM     28  O   UNL     1     -10.066   2.626 131.680  0.00  0.00    +0.000 OA
ATOM     29  C   UNL     1      -9.372   2.499 132.909  0.00  0.00    +0.000 C 
ENDBRANCH  22  28
ENDBRANCH   7  18
BRANCH  17  30
ATOM     30  O   UNL     1      -6.283   5.883 125.012  0.00  0.00    +0.000 OA
ATOM     31  H   UNL     1      -7.245   6.038 125.008  0.00  0.00    +0.000 HD
ENDBRANCH  17  30
TORSDOF 5
ENDMDL
MODEL 2
REMARK VINA RESULT:      -7.3      0.244      2.327
REMARK  Name = Podofilox
REMARK  8 active torsions:
REMARK  status: ('A' for Active; 'I' for Inactive)
REMARK    1  A    between atoms: C_9  and  C_10
REMARK    2  A    between atoms: C_12  and  O_13
REMARK    3  A    between atoms: O_13  and  C_14
REMARK    4  A    between atoms: C_15  and  O_16
REMARK    5  A    between atoms: O_16  and  C_17
REMARK    6  A    between atoms: C_18  and  O_19
REMARK    7  A    between atoms: O_19  and  C_20
REMARK    8  A    between atoms: C_31  and  O_32
REMARK                            x       y       z     vdW  Elec       q    Type
REMARK                         _______ _______ _______ _____ _____    ______ ____
ROOT
ATOM      1  C   UNL     1      -7.421   3.936 125.806  0.00  0.00    +0.000 C 
ATOM      2  C   UNL     1      -8.337   3.592 124.674  0.00  0.00    +0.000 C 
ATOM      3  O   UNL     1      -9.120   2.493 125.174  0.00  0.00    +0.000 OA
ATOM      4  C   UNL     1      -8.622   2.051 126.376  0.00  0.00    +0.000 C 
ATOM      5  O   UNL     1      -9.169   1.215 127.083  0.00  0.00    +0.000 OA
ATOM      6  C   UNL     1      -7.279   2.663 126.603  0.00  0.00    +0.000 C 
ATOM      7  C   UNL     1      -6.833   2.957 128.046  0.00  0.00    +0.000 C 
ATOM      8  C   UNL     1      -5.578   3.842 128.004  0.00  0.00    +0.000 A 
ATOM      9  C   UNL     1      -4.779   3.913 129.164  0.00  0.00    +0.000 A 
ATOM     10  C   UNL     1      -3.710   4.778 129.163  0.00  0.00    +0.000 A 
ATOM     11  C   UNL     1      -3.396   5.539 128.062  0.00  0.00    +0.000 A 
ATOM     12  O   UNL     1      -2.324   6.349 128.286  0.00  0.00    +0.000 OA
ATOM     13  C   UNL     1      -2.184   6.187 129.712  0.00  0.00    +0.000 C 
ATOM     14  O   UNL     1      -2.872   5.021 130.209  0.00  0.00    +0.000 OA
ATOM     15  C   UNL     1      -4.132   5.482 126.898  0.00  0.00    +0.000 A 
ATOM     16  C   UNL     1      -5.257   4.641 126.855  0.00  0.00    +0.000 A 
ATOM     17  C   UNL     1      -6.080   4.587 125.565  0.00  0.00    +0.000 C 
ENDROOT
BRANCH   7  18
ATOM     18  C   UNL     1      -7.924   3.600 128.895  0.00  0.00    +0.000 A 
ATOM     19  C   UNL     1      -8.678   2.861 129.803  0.00  0.00    +0.000 A 
ATOM     20  C   UNL     1      -9.739   3.466 130.499  0.00  0.00    +0.000 A 
ATOM     21  C   UNL     1     -10.095   4.813 130.230  0.00  0.00    +0.000 A 
ATOM     22  C   UNL     1      -9.340   5.552 129.315  0.00  0.00    +0.000 A 
ATOM     23  C   UNL     1      -8.222   4.961 128.763  0.00  0.00    +0.000 A 
BRANCH  20  24
ATOM     24  O   UNL     1     -10.329   2.618 131.411  0.00  0.00    +0.000 OA
ATOM     25  C   UNL     1      -9.561   2.282 132.560  0.00  0.00    +0.000 C 
ENDBRANCH  20  24
BRANCH  21  26
ATOM     26  O   UNL     1     -11.153   5.328 130.928  0.00  0.00    +0.000 OA
ATOM     27  C   UNL     1     -10.930   6.135 132.066  0.00  0.00    +0.000 C 
ENDBRANCH  21  26
BRANCH  22  28
ATOM     28  O   UNL     1      -9.700   6.834 129.018  0.00  0.00    +0.000 OA
ATOM     29  C   UNL     1     -10.567   7.117 127.934  0.00  0.00    +0.000 C 
ENDBRANCH  22  28
ENDBRANCH   7  18
BRANCH  17  30
ATOM     30  O   UNL     1      -6.333   5.898 125.067  0.00  0.00    +0.000 OA
ATOM     31  H   UNL     1      -5.922   5.969 124.186  0.00  0.00    +0.000 HD
ENDBRANCH  17  30
TORSDOF 5
ENDMDL
MODEL 3
REMARK VINA RESULT:      -7.2      2.248      7.031
REMARK  Name = Podofilox
REMARK  8 active torsions:
REMARK  status: ('A' for Active; 'I' for Inactive)
REMARK    1  A    between atoms: C_9  and  C_10
REMARK    2  A    between atoms: C_12  and  O_13
REMARK    3  A    between atoms: O_13  and  C_14
REMARK    4  A    between atoms: C_15  and  O_16
REMARK    5  A    between atoms: O_16  and  C_17
REMARK    6  A    between atoms: C_18  and  O_19
REMARK    7  A    between atoms: O_19  and  C_20
REMARK    8  A    between atoms: C_31  and  O_32
REMARK                            x       y       z     vdW  Elec       q    Type
REMARK                         _______ _______ _______ _____ _____    ______ ____
ROOT
ATOM      1  C   UNL     1      -8.396   3.795 132.971  0.00  0.00    +0.000 C 
ATOM      2  C   UNL     1      -7.516   3.233 134.044  0.00  0.00    +0.000 C 
ATOM      3  O   UNL     1      -7.327   1.859 133.662  0.00  0.00    +0.000 OA
ATOM      4  C   UNL     1      -8.151   1.529 132.614  0.00  0.00    +0.000 C 
ATOM      5  O   UNL     1      -8.104   0.466 132.009  0.00  0.00    +0.000 OA
ATOM      6  C   UNL     1      -9.160   2.614 132.426  0.00  0.00    +0.000 C 
ATOM      7  C   UNL     1      -9.686   2.898 131.008  0.00  0.00    +0.000 C 
ATOM      8  C   UNL     1     -10.463   4.223 131.027  0.00  0.00    +0.000 A 
ATOM      9  C   UNL     1     -11.349   4.486 129.961  0.00  0.00    +0.000 A 
ATOM     10  C   UNL     1     -11.973   5.712 129.924  0.00  0.00    +0.000 A 
ATOM     11  C   UNL     1     -11.772   6.655 130.904  0.00  0.00    +0.000 A 
ATOM     12  O   UNL     1     -12.459   7.806 130.656  0.00  0.00    +0.000 OA
ATOM     13  C   UNL     1     -12.885   7.554 129.302  0.00  0.00    +0.000 C 
ATOM     14  O   UNL     1     -12.807   6.159 128.945  0.00  0.00    +0.000 OA
ATOM     15  C   UNL     1     -10.937   6.432 131.977  0.00  0.00    +0.000 A 
ATOM     16  C   UNL     1     -10.246   5.210 132.047  0.00  0.00    +0.000 A 
ATOM     17  C   UNL     1      -9.310   4.967 133.235  0.00  0.00    +0.000 C 
ENDROOT
BRANCH   7  18
ATOM     18  C   UNL     1      -8.587   2.926 129.952  0.00  0.00    +0.000 A 
ATOM     19  C   UNL     1      -7.660   3.963 129.884  0.00  0.00    +0.000 A 
ATOM     20  C   UNL     1      -6.721   4.005 128.839  0.00  0.00    +0.000 A 
ATOM     21  C   UNL     1      -6.755   3.033 127.807  0.00  0.00    +0.000 A 
ATOM     22  C   UNL     1      -7.689   1.995 127.873  0.00  0.00    +0.000 A 
ATOM     23  C   UNL     1      -8.495   1.913 128.990  0.00  0.00    +0.000 A 
BRANCH  20  24
ATOM     24  O   UNL     1      -5.832   5.052 128.965  0.00  0.00    +0.000 OA
ATOM     25  C   UNL     1      -4.724   4.847 129.832  0.00  0.00    +0.000 C 
ENDBRANCH  20  24
BRANCH  21  26
ATOM     26  O   UNL     1      -5.826   3.151 126.810  0.00  0.00    +0.000 OA
ATOM     27  C   UNL     1      -4.592   2.467 126.902  0.00  0.00    +0.000 C 
ENDBRANCH  21  26
BRANCH  22  28
ATOM     28  O   UNL     1      -7.757   1.079 126.864  0.00  0.00    +0.000 OA
ATOM     29  C   UNL     1      -8.994   0.755 126.255  0.00  0.00    +0.000 C 
ENDBRANCH  22  28
ENDBRANCH   7  18
BRANCH  17  30
ATOM     30  O   UNL     1      -8.480   6.102 133.469  0.00  0.00    +0.000 OA
ATOM     31  H   UNL     1      -9.017   6.777 133.924  0.00  0.00    +0.000 HD
ENDBRANCH  17  30
TORSDOF 5
ENDMDL
MODEL 4
REMARK VINA RESULT:      -7.1      2.702      6.914
REMARK  Name = Podofilox
REMARK  8 active torsions:
REMARK  status: ('A' for Active; 'I' for Inactive)
REMARK    1  A    between atoms: C_9  and  C_10
REMARK    2  A    between atoms: C_12  and  O_13
REMARK    3  A    between atoms: O_13  and  C_14
REMARK    4  A    between atoms: C_15  and  O_16
REMARK    5  A    between atoms: O_16  and  C_17
REMARK    6  A    between atoms: C_18  and  O_19
REMARK    7  A    between atoms: O_19  and  C_20
REMARK    8  A    between atoms: C_31  and  O_32
REMARK                            x       y       z     vdW  Elec       q    Type
REMARK                         _______ _______ _______ _____ _____    ______ ____
ROOT
ATOM      1  C   UNL     1      -8.440   4.286 132.945  0.00  0.00    +0.000 C 
ATOM      2  C   UNL     1      -8.225   3.545 134.227  0.00  0.00    +0.000 C 
ATOM      3  O   UNL     1      -7.514   2.357 133.833  0.00  0.00    +0.000 OA
ATOM      4  C   UNL     1      -7.476   2.246 132.465  0.00  0.00    +0.000 C 
ATOM      5  O   UNL     1      -6.827   1.403 131.859  0.00  0.00    +0.000 OA
ATOM      6  C   UNL     1      -8.429   3.230 131.869  0.00  0.00    +0.000 C 
ATOM      7  C   UNL     1      -8.101   3.839 130.495  0.00  0.00    +0.000 C 
ATOM      8  C   UNL     1      -9.051   5.018 130.239  0.00  0.00    +0.000 A 
ATOM      9  C   UNL     1      -9.200   5.473 128.912  0.00  0.00    +0.000 A 
ATOM     10  C   UNL     1      -9.974   6.588 128.691  0.00  0.00    +0.000 A 
ATOM     11  C   UNL     1     -10.614   7.239 129.719  0.00  0.00    +0.000 A 
ATOM     12  O   UNL     1     -11.297   8.336 129.286  0.00  0.00    +0.000 OA
ATOM     13  C   UNL     1     -10.794   8.425 127.938  0.00  0.00    +0.000 C 
ATOM     14  O   UNL     1     -10.179   7.200 127.492  0.00  0.00    +0.000 OA
ATOM     15  C   UNL     1     -10.519   6.816 131.027  0.00  0.00    +0.000 A 
ATOM     16  C   UNL     1      -9.713   5.701 131.315  0.00  0.00    +0.000 A 
ATOM     17  C   UNL     1      -9.599   5.238 132.770  0.00  0.00    +0.000 C 
ENDROOT
BRANCH   7  18
ATOM     18  C   UNL     1      -6.645   4.273 130.359  0.00  0.00    +0.000 A 
ATOM     19  C   UNL     1      -6.154   5.405 131.003  0.00  0.00    +0.000 A 
ATOM     20  C   UNL     1      -4.833   5.829 130.779  0.00  0.00    +0.000 A 
ATOM     21  C   UNL     1      -4.013   5.149 129.843  0.00  0.00    +0.000 A 
ATOM     22  C   UNL     1      -4.508   4.015 129.193  0.00  0.00    +0.000 A 
ATOM     23  C   UNL     1      -5.759   3.553 129.551  0.00  0.00    +0.000 A 
BRANCH  20  24
ATOM     24  O   UNL     1      -4.486   6.917 131.551  0.00  0.00    +0.000 OA
ATOM     25  C   UNL     1      -3.846   6.642 132.791  0.00  0.00    +0.000 C 
ENDBRANCH  20  24
BRANCH  21  26
ATOM     26  O   UNL     1      -2.746   5.632 129.659  0.00  0.00    +0.000 OA
ATOM     27  C   UNL     1      -2.491   6.600 128.661  0.00  0.00    +0.000 C 
ENDBRANCH  21  26
BRANCH  22  28
ATOM     28  O   UNL     1      -3.742   3.379 128.260  0.00  0.00    +0.000 OA
ATOM     29  C   UNL     1      -3.892   3.659 126.879  0.00  0.00    +0.000 C 
ENDBRANCH  22  28
ENDBRANCH   7  18
BRANCH  17  30
ATOM     30  O   UNL     1      -9.369   6.344 133.640  0.00  0.00    +0.000 OA
ATOM     31  H   UNL     1      -9.835   6.168 134.478  0.00  0.00    +0.000 HD
ENDBRANCH  17  30
TORSDOF 5
ENDMDL
MODEL 5
REMARK VINA RESULT:      -7.1      3.210      7.072
REMARK  Name = Podofilox
REMARK  8 active torsions:
REMARK  status: ('A' for Active; 'I' for Inactive)
REMARK    1  A    between atoms: C_9  and  C_10
REMARK    2  A    between atoms: C_12  and  O_13
REMARK    3  A    between atoms: O_13  and  C_14
REMARK    4  A    between atoms: C_15  and  O_16
REMARK    5  A    between atoms: O_16  and  C_17
REMARK    6  A    between atoms: C_18  and  O_19
REMARK    7  A    between atoms: O_19  and  C_20
REMARK    8  A    between atoms: C_31  and  O_32
REMARK                            x       y       z     vdW  Elec       q    Type
REMARK                         _______ _______ _______ _____ _____    ______ ____
ROOT
ATOM      1  C   UNL     1      -5.926  -1.190 125.788  0.00  0.00    +0.000 C 
ATOM      2  C   UNL     1      -5.206  -2.269 125.041  0.00  0.00    +0.000 C 
ATOM      3  O   UNL     1      -5.753  -2.202 123.712  0.00  0.00    +0.000 OA
ATOM      4  C   UNL     1      -6.830  -1.351 123.672  0.00  0.00    +0.000 C 
ATOM      5  O   UNL     1      -7.403  -1.011 122.645  0.00  0.00    +0.000 OA
ATOM      6  C   UNL     1      -7.240  -1.018 125.069  0.00  0.00    +0.000 C 
ATOM      7  C   UNL     1      -7.852   0.365 125.352  0.00  0.00    +0.000 C 
ATOM      8  C   UNL     1      -7.909   0.578 126.872  0.00  0.00    +0.000 A 
ATOM      9  C   UNL     1      -8.770   1.579 127.369  0.00  0.00    +0.000 A 
ATOM     10  C   UNL     1      -8.752   1.838 128.720  0.00  0.00    +0.000 A 
ATOM     11  C   UNL     1      -7.945   1.133 129.581  0.00  0.00    +0.000 A 
ATOM     12  O   UNL     1      -8.058   1.572 130.866  0.00  0.00    +0.000 OA
ATOM     13  C   UNL     1      -8.818   2.778 130.650  0.00  0.00    +0.000 C 
ATOM     14  O   UNL     1      -9.466   2.804 129.362  0.00  0.00    +0.000 OA
ATOM     15  C   UNL     1      -7.108   0.128 129.145  0.00  0.00    +0.000 A 
ATOM     16  C   UNL     1      -7.060  -0.155 127.768  0.00  0.00    +0.000 A 
ATOM     17  C   UNL     1      -6.121  -1.264 127.284  0.00  0.00    +0.000 C 
ENDROOT
BRANCH   7  18
ATOM     18  C   UNL     1      -7.105   1.506 124.670  0.00  0.00    +0.000 A 
ATOM     19  C   UNL     1      -6.121   2.237 125.330  0.00  0.00    +0.000 A 
ATOM     20  C   UNL     1      -5.520   3.342 124.704  0.00  0.00    +0.000 A 
ATOM     21  C   UNL     1      -5.961   3.764 123.423  0.00  0.00    +0.000 A 
ATOM     22  C   UNL     1      -6.952   3.033 122.763  0.00  0.00    +0.000 A 
ATOM     23  C   UNL     1      -7.410   1.873 123.355  0.00  0.00    +0.000 A 
BRANCH  20  24
ATOM     24  O   UNL     1      -4.517   3.904 125.463  0.00  0.00    +0.000 OA
ATOM     25  C   UNL     1      -3.817   3.031 126.341  0.00  0.00    +0.000 C 
ENDBRANCH  20  24
BRANCH  21  26
ATOM     26  O   UNL     1      -5.348   4.862 122.885  0.00  0.00    +0.000 OA
ATOM     27  C   UNL     1      -4.407   4.712 121.841  0.00  0.00    +0.000 C 
ENDBRANCH  21  26
BRANCH  22  28
ATOM     28  O   UNL     1      -7.412   3.455 121.549  0.00  0.00    +0.000 OA
ATOM     29  C   UNL     1      -8.794   3.419 121.240  0.00  0.00    +0.000 C 
ENDBRANCH  22  28
ENDBRANCH   7  18
BRANCH  17  30
ATOM     30  O   UNL     1      -4.834  -1.139 127.882  0.00  0.00    +0.000 OA
ATOM     31  H   UNL     1      -4.784  -0.262 128.305  0.00  0.00    +0.000 HD
ENDBRANCH  17  30
TORSDOF 5
ENDMDL
MODEL 6
REMARK VINA RESULT:      -7.0      4.837      6.966
REMARK  Name = Podofilox
REMARK  8 active torsions:
REMARK  status: ('A' for Active; 'I' for Inactive)
REMARK    1  A    between atoms: C_9  and  C_10
REMARK    2  A    between atoms: C_12  and  O_13
REMARK    3  A    between atoms: O_13  and  C_14
REMARK    4  A    between atoms: C_15  and  O_16
REMARK    5  A    between atoms: O_16  and  C_17
REMARK    6  A    between atoms: C_18  and  O_19
REMARK    7  A    between atoms: O_19  and  C_20
REMARK    8  A    between atoms: C_31  and  O_32
REMARK                            x       y       z     vdW  Elec       q    Type
REMARK                         _______ _______ _______ _____ _____    ______ ____
ROOT
ATOM      1  C   UNL     1      -7.750  -1.659 124.680  0.00  0.00    +0.000 C 
ATOM      2  C   UNL     1      -8.074  -2.739 123.696  0.00  0.00    +0.000 C 
ATOM      3  O   UNL     1      -6.918  -3.595 123.718  0.00  0.00    +0.000 OA
ATOM      4  C   UNL     1      -5.904  -3.023 124.447  0.00  0.00    +0.000 C 
ATOM      5  O   UNL     1      -4.857  -3.588 124.735  0.00  0.00    +0.000 OA
ATOM      6  C   UNL     1      -6.244  -1.593 124.716  0.00  0.00    +0.000 C 
ATOM      7  C   UNL     1      -5.746  -0.947 126.021  0.00  0.00    +0.000 C 
ATOM      8  C   UNL     1      -6.461   0.400 126.208  0.00  0.00    +0.000 A 
ATOM      9  C   UNL     1      -5.894   1.331 127.103  0.00  0.00    +0.000 A 
ATOM     10  C   UNL     1      -6.582   2.497 127.346  0.00  0.00    +0.000 A 
ATOM     11  C   UNL     1      -7.775   2.777 126.723  0.00  0.00    +0.000 A 
ATOM     12  O   UNL     1      -8.301   3.965 127.133  0.00  0.00    +0.000 OA
ATOM     13  C   UNL     1      -7.436   4.249 128.251  0.00  0.00    +0.000 C 
ATOM     14  O   UNL     1      -6.219   3.476 128.221  0.00  0.00    +0.000 OA
ATOM     15  C   UNL     1      -8.353   1.910 125.822  0.00  0.00    +0.000 A 
ATOM     16  C   UNL     1      -7.711   0.686 125.562  0.00  0.00    +0.000 A 
ATOM     17  C   UNL     1      -8.359  -0.282 124.568  0.00  0.00    +0.000 C 
ENDROOT
BRANCH   7  18
ATOM     18  C   UNL     1      -5.933  -1.838 127.244  0.00  0.00    +0.000 A 
ATOM     19  C   UNL     1      -7.194  -2.249 127.667  0.00  0.00    +0.000 A 
ATOM     20  C   UNL     1      -7.336  -2.989 128.853  0.00  0.00    +0.000 A 
ATOM     21  C   UNL     1      -6.205  -3.263 129.665  0.00  0.00    +0.000 A 
ATOM     22  C   UNL     1      -4.940  -2.845 129.242  0.00  0.00    +0.000 A 
ATOM     23  C   UNL     1      -4.831  -2.248 128.003  0.00  0.00    +0.000 A 
BRANCH  20  24
ATOM     24  O   UNL     1      -8.637  -3.380 129.084  0.00  0.00    +0.000 OA
ATOM     25  C   UNL     1      -9.278  -4.110 128.045  0.00  0.00    +0.000 C 
ENDBRANCH  20  24
BRANCH  21  26
ATOM     26  O   UNL     1      -6.422  -3.968 130.817  0.00  0.00    +0.000 OA
ATOM     27  C   UNL     1      -6.738  -3.291 132.017  0.00  0.00    +0.000 C 
ENDBRANCH  21  26
BRANCH  22  28
ATOM     28  O   UNL     1      -3.853  -3.067 130.037  0.00  0.00    +0.000 OA
ATOM     29  C   UNL     1      -3.341  -2.045 130.874  0.00  0.00    +0.000 C 
ENDBRANCH  22  28
ENDBRANCH   7  18
BRANCH  17  30
ATOM     30  O   UNL     1      -9.754  -0.417 124.826  0.00  0.00    +0.000 OA
ATOM     31  H   UNL     1      -9.900  -0.261 125.776  0.00  0.00    +0.000 HD
ENDBRANCH  17  30
TORSDOF 5
ENDMDL
MODEL 7
REMARK VINA RESULT:      -7.0      2.925      6.969
REMARK  Name = Podofilox
REMARK  8 active torsions:
REMARK  status: ('A' for Active; 'I' for Inactive)
REMARK    1  A    between atoms: C_9  and  C_10
REMARK    2  A    between atoms: C_12  and  O_13
REMARK    3  A    between atoms: O_13  and  C_14
REMARK    4  A    between atoms: C_15  and  O_16
REMARK    5  A    between atoms: O_16  and  C_17
REMARK    6  A    between atoms: C_18  and  O_19
REMARK    7  A    between atoms: O_19  and  C_20
REMARK    8  A    between atoms: C_31  and  O_32
REMARK                            x       y       z     vdW  Elec       q    Type
REMARK                         _______ _______ _______ _____ _____    ______ ____
ROOT
ATOM      1  C   UNL     1      -7.188   5.588 131.946  0.00  0.00    +0.000 C 
ATOM      2  C   UNL     1      -5.948   5.640 132.782  0.00  0.00    +0.000 C 
ATOM      3  O   UNL     1      -6.033   4.469 133.613  0.00  0.00    +0.000 OA
ATOM      4  C   UNL     1      -7.262   3.870 133.484  0.00  0.00    +0.000 C 
ATOM      5  O   UNL     1      -7.558   2.789 133.977  0.00  0.00    +0.000 OA
ATOM      6  C   UNL     1      -8.182   4.797 132.758  0.00  0.00    +0.000 C 
ATOM      7  C   UNL     1      -9.282   4.198 131.864  0.00  0.00    +0.000 C 
ATOM      8  C   UNL     1      -9.887   5.321 131.009  0.00  0.00    +0.000 A 
ATOM      9  C   UNL     1     -11.146   5.095 130.414  0.00  0.00    +0.000 A 
ATOM     10  C   UNL     1     -11.648   6.059 129.571  0.00  0.00    +0.000 A 
ATOM     11  C   UNL     1     -10.968   7.228 129.323  0.00  0.00    +0.000 A 
ATOM     12  O   UNL     1     -11.625   8.026 128.435  0.00  0.00    +0.000 OA
ATOM     13  C   UNL     1     -12.638   7.107 127.978  0.00  0.00    +0.000 C 
ATOM     14  O   UNL     1     -12.811   5.984 128.866  0.00  0.00    +0.000 OA
ATOM     15  C   UNL     1      -9.748   7.504 129.903  0.00  0.00    +0.000 A 
ATOM     16  C   UNL     1      -9.172   6.538 130.747  0.00  0.00    +0.000 A 
ATOM     17  C   UNL     1      -7.812   6.841 131.381  0.00  0.00    +0.000 C 
ENDROOT
BRANCH   7  18
ATOM     18  C   UNL     1      -8.789   3.052 130.987  0.00  0.00    +0.000 A 
ATOM     19  C   UNL     1      -8.934   1.721 131.369  0.00  0.00    +0.000 A 
ATOM     20  C   UNL     1      -8.383   0.696 130.582  0.00  0.00    +0.000 A 
ATOM     21  C   UNL     1      -7.614   1.011 129.432  0.00  0.00    +0.000 A 
ATOM     22  C   UNL     1      -7.465   2.348 129.052  0.00  0.00    +0.000 A 
ATOM     23  C   UNL     1      -8.143   3.310 129.773  0.00  0.00    +0.000 A 
BRANCH  20  24
ATOM     24  O   UNL     1      -8.683  -0.562 131.060  0.00  0.00    +0.000 OA
ATOM     25  C   UNL     1      -7.987  -0.983 132.227  0.00  0.00    +0.000 C 
ENDBRANCH  20  24
BRANCH  21  26
ATOM     26  O   UNL     1      -7.089  -0.038 128.728  0.00  0.00    +0.000 OA
ATOM     27  C   UNL     1      -5.801  -0.531 129.040  0.00  0.00    +0.000 C 
ENDBRANCH  21  26
BRANCH  22  28
ATOM     28  O   UNL     1      -6.693   2.663 127.972  0.00  0.00    +0.000 OA
ATOM     29  C   UNL     1      -7.273   2.861 126.694  0.00  0.00    +0.000 C 
ENDBRANCH  22  28
ENDBRANCH   7  18
BRANCH  17  30
ATOM     30  O   UNL     1      -6.904   7.364 130.415  0.00  0.00    +0.000 OA
ATOM     31  H   UNL     1      -6.291   7.966 130.874  0.00  0.00    +0.000 HD
ENDBRANCH  17  30
TORSDOF 5
ENDMDL
MODEL 8
REMARK VINA RESULT:      -7.0      2.693      6.959
REMARK  Name = Podofilox
REMARK  8 active torsions:
REMARK  status: ('A' for Active; 'I' for Inactive)
REMARK    1  A    between atoms: C_9  and  C_10
REMARK    2  A    between atoms: C_12  and  O_13
REMARK    3  A    between atoms: O_13  and  C_14
REMARK    4  A    between atoms: C_15  and  O_16
REMARK    5  A    between atoms: O_16  and  C_17
REMARK    6  A    between atoms: C_18  and  O_19
REMARK    7  A    between atoms: O_19  and  C_20
REMARK    8  A    between atoms: C_31  and  O_32
REMARK                            x       y       z     vdW  Elec       q    Type
REMARK                         _______ _______ _______ _____ _____    ______ ____
ROOT
ATOM      1  C   UNL     1      -8.487   4.387 132.757  0.00  0.00    +0.000 C 
ATOM      2  C   UNL     1      -8.088   3.589 133.958  0.00  0.00    +0.000 C 
ATOM      3  O   UNL     1      -7.358   2.474 133.415  0.00  0.00    +0.000 OA
ATOM      4  C   UNL     1      -7.466   2.444 132.046  0.00  0.00    +0.000 C 
ATOM      5  O   UNL     1      -6.841   1.680 131.322  0.00  0.00    +0.000 OA
ATOM      6  C   UNL     1      -8.534   3.397 131.620  0.00  0.00    +0.000 C 
ATOM      7  C   UNL     1      -8.397   4.103 130.260  0.00  0.00    +0.000 C 
ATOM      8  C   UNL     1      -9.436   5.232 130.184  0.00  0.00    +0.000 A 
ATOM      9  C   UNL     1      -9.757   5.751 128.912  0.00  0.00    +0.000 A 
ATOM     10  C   UNL     1     -10.614   6.825 128.848  0.00  0.00    +0.000 A 
ATOM     11  C   UNL     1     -11.172   7.374 129.978  0.00  0.00    +0.000 A 
ATOM     12  O   UNL     1     -11.961   8.448 129.691  0.00  0.00    +0.000 OA
ATOM     13  C   UNL     1     -11.616   8.646 128.305  0.00  0.00    +0.000 C 
ATOM     14  O   UNL     1     -10.985   7.490 127.718  0.00  0.00    +0.000 OA
ATOM     15  C   UNL     1     -10.908   6.884 131.238  0.00  0.00    +0.000 A 
ATOM     16  C   UNL     1     -10.011   5.808 131.366  0.00  0.00    +0.000 A 
ATOM     17  C   UNL     1      -9.710   5.271 132.768  0.00  0.00    +0.000 C 
ENDROOT
BRANCH   7  18
ATOM     18  C   UNL     1      -6.993   4.637 129.997  0.00  0.00    +0.000 A 
ATOM     19  C   UNL     1      -6.168   4.083 129.021  0.00  0.00    +0.000 A 
ATOM     20  C   UNL     1      -4.847   4.537 128.871  0.00  0.00    +0.000 A 
ATOM     21  C   UNL     1      -4.320   5.512 129.758  0.00  0.00    +0.000 A 
ATOM     22  C   UNL     1      -5.147   6.064 130.740  0.00  0.00    +0.000 A 
ATOM     23  C   UNL     1      -6.476   5.692 130.758  0.00  0.00    +0.000 A 
BRANCH  20  24
ATOM     24  O   UNL     1      -4.196   3.940 127.814  0.00  0.00    +0.000 OA
ATOM     25  C   UNL     1      -3.991   2.535 127.902  0.00  0.00    +0.000 C 
ENDBRANCH  20  24
BRANCH  21  26
ATOM     26  O   UNL     1      -3.019   5.889 129.567  0.00  0.00    +0.000 OA
ATOM     27  C   UNL     1      -2.696   6.875 128.608  0.00  0.00    +0.000 C 
ENDBRANCH  21  26
BRANCH  22  28
ATOM     28  O   UNL     1      -4.639   6.970 131.624  0.00  0.00    +0.000 OA
ATOM     29  C   UNL     1      -4.106   6.556 132.869  0.00  0.00    +0.000 C 
ENDBRANCH  22  28
ENDBRANCH   7  18
BRANCH  17  30
ATOM     30  O   UNL     1      -9.449   6.338 133.677  0.00  0.00    +0.000 OA
ATOM     31  H   UNL     1      -9.266   5.949 134.551  0.00  0.00    +0.000 HD
ENDBRANCH  17  30
TORSDOF 5
ENDMDL
MODEL 9
REMARK VINA RESULT:      -6.9      4.570      7.000
REMARK  Name = Podofilox
REMARK  8 active torsions:
REMARK  status: ('A' for Active; 'I' for Inactive)
REMARK    1  A    between atoms: C_9  and  C_10
REMARK    2  A    between atoms: C_12  and  O_13
REMARK    3  A    between atoms: O_13  and  C_14
REMARK    4  A    between atoms: C_15  and  O_16
REMARK    5  A    between atoms: O_16  and  C_17
REMARK    6  A    between atoms: C_18  and  O_19
REMARK    7  A    between atoms: O_19  and  C_20
REMARK    8  A    between atoms: C_31  and  O_32
REMARK                            x       y       z     vdW  Elec       q    Type
REMARK                         _______ _______ _______ _____ _____    ______ ____
ROOT
ATOM      1  C   UNL     1      -7.698  -1.725 124.332  0.00  0.00    +0.000 C 
ATOM      2  C   UNL     1      -7.889  -3.051 123.663  0.00  0.00    +0.000 C 
ATOM      3  O   UNL     1      -6.684  -3.776 123.968  0.00  0.00    +0.000 OA
ATOM      4  C   UNL     1      -5.758  -2.953 124.560  0.00  0.00    +0.000 C 
ATOM      5  O   UNL     1      -4.699  -3.337 125.037  0.00  0.00    +0.000 OA
ATOM      6  C   UNL     1      -6.205  -1.535 124.417  0.00  0.00    +0.000 C 
ATOM      7  C   UNL     1      -5.834  -0.527 125.519  0.00  0.00    +0.000 C 
ATOM      8  C   UNL     1      -6.643   0.760 125.303  0.00  0.00    +0.000 A 
ATOM      9  C   UNL     1      -6.196   1.938 125.937  0.00  0.00    +0.000 A 
ATOM     10  C   UNL     1      -6.970   3.070 125.824  0.00  0.00    +0.000 A 
ATOM     11  C   UNL     1      -8.136   3.079 125.095  0.00  0.00    +0.000 A 
ATOM     12  O   UNL     1      -8.761   4.288 125.143  0.00  0.00    +0.000 OA
ATOM     13  C   UNL     1      -7.990   4.926 126.181  0.00  0.00    +0.000 C 
ATOM     14  O   UNL     1      -6.727   4.271 126.417  0.00  0.00    +0.000 OA
ATOM     15  C   UNL     1      -8.598   1.960 124.437  0.00  0.00    +0.000 A 
ATOM     16  C   UNL     1      -7.864   0.765 124.547  0.00  0.00    +0.000 A 
ATOM     17  C   UNL     1      -8.384  -0.480 123.824  0.00  0.00    +0.000 C 
ENDROOT
BRANCH   7  18
ATOM     18  C   UNL     1      -6.043  -1.071 126.928  0.00  0.00    +0.000 A 
ATOM     19  C   UNL     1      -5.040  -1.019 127.892  0.00  0.00    +0.000 A 
ATOM     20  C   UNL     1      -5.234  -1.615 129.149  0.00  0.00    +0.000 A 
ATOM     21  C   UNL     1      -6.426  -2.335 129.422  0.00  0.00    +0.000 A 
ATOM     22  C   UNL     1      -7.431  -2.392 128.453  0.00  0.00    +0.000 A 
ATOM     23  C   UNL     1      -7.255  -1.672 127.289  0.00  0.00    +0.000 A 
BRANCH  20  24
ATOM     24  O   UNL     1      -4.176  -1.405 130.007  0.00  0.00    +0.000 OA
ATOM     25  C   UNL     1      -3.091  -2.319 129.916  0.00  0.00    +0.000 C 
ENDBRANCH  20  24
BRANCH  21  26
ATOM     26  O   UNL     1      -6.536  -2.909 130.659  0.00  0.00    +0.000 OA
ATOM     27  C   UNL     1      -6.070  -4.226 130.878  0.00  0.00    +0.000 C 
ENDBRANCH  21  26
BRANCH  22  28
ATOM     28  O   UNL     1      -8.562  -3.117 128.690  0.00  0.00    +0.000 OA
ATOM     29  C   UNL     1      -9.081  -4.000 127.712  0.00  0.00    +0.000 C 
ENDBRANCH  22  28
ENDBRANCH   7  18
BRANCH  17  30
ATOM     30  O   UNL     1      -9.782  -0.651 124.045  0.00  0.00    +0.000 OA
ATOM     31  H   UNL     1     -10.225   0.188 123.822  0.00  0.00    +0.000 HD
ENDBRANCH  17  30
TORSDOF 5
ENDMDL
