MODEL 1
REMARK VINA RESULT:      -4.8      0.000      0.000
REMARK  Name = Polidocanol
REMARK  39 active torsions:
REMARK  status: ('A' for Active; 'I' for Inactive)
REMARK    1  A    between atoms: C_1  and  C_2
REMARK    2  A    between atoms: C_2  and  C_3
REMARK    3  A    between atoms: C_3  and  C_4
REMARK    4  A    between atoms: C_4  and  C_5
REMARK    5  A    between atoms: C_5  and  C_6
REMARK    6  A    between atoms: C_6  and  C_7
REMARK    7  A    between atoms: C_7  and  C_8
REMARK    8  A    between atoms: C_8  and  C_9
REMARK    9  A    between atoms: C_9  and  C_10
REMARK   10  A    between atoms: C_10  and  C_11
REMARK   11  A    between atoms: C_11  and  C_12
REMARK   12  A    between atoms: C_12  and  O_13
REMARK   13  A    between atoms: O_13  and  C_14
REMARK   14  A    between atoms: C_14  and  C_15
REMARK   15  A    between atoms: C_15  and  O_16
REMARK   16  A    between atoms: O_16  and  C_17
REMARK   17  A    between atoms: C_17  and  C_18
REMARK   18  A    between atoms: C_18  and  O_19
REMARK   19  A    between atoms: O_19  and  C_20
REMARK   20  A    between atoms: C_20  and  C_21
REMARK   21  A    between atoms: C_21  and  O_22
REMARK   22  A    between atoms: O_22  and  C_23
REMARK   23  A    between atoms: C_23  and  C_24
REMARK   24  A    between atoms: C_24  and  O_25
REMARK   25  A    between atoms: O_25  and  C_26
REMARK   26  A    between atoms: C_26  and  C_27
REMARK   27  A    between atoms: C_27  and  O_28
REMARK   28  A    between atoms: O_28  and  C_29
REMARK   29  A    between atoms: C_29  and  C_30
REMARK   30  A    between atoms: C_30  and  O_31
REMARK   31  A    between atoms: O_31  and  C_32
REMARK   32  A    between atoms: C_32  and  C_33
REMARK   33  A    between atoms: C_33  and  O_34
REMARK   34  A    between atoms: O_34  and  C_35
REMARK   35  A    between atoms: C_35  and  C_36
REMARK   36  A    between atoms: C_36  and  O_37
REMARK   37  A    between atoms: O_37  and  C_38
REMARK   38  A    between atoms: C_38  and  C_39
REMARK   39  A    between atoms: C_39  and  O_40
REMARK                            x       y       z     vdW  Elec       q    Type
REMARK                         _______ _______ _______ _____ _____    ______ ____
ROOT
ATOM      1  C   UNL     1      -4.880   4.431 127.211  0.00  0.00    +0.000 C 
ENDROOT
BRANCH   1   2
ATOM      2  O   UNL     1      -3.631   3.794 127.454  0.00  0.00    +0.000 OA
BRANCH   2   3
ATOM      3  C   UNL     1      -2.704   4.706 128.032  0.00  0.00    +0.000 C 
BRANCH   3   4
ATOM      4  C   UNL     1      -3.274   6.109 127.933  0.00  0.00    +0.000 C 
BRANCH   4   5
ATOM      5  O   UNL     1      -2.947   6.820 129.121  0.00  0.00    +0.000 OA
BRANCH   5   6
ATOM      6  C   UNL     1      -3.166   6.009 130.270  0.00  0.00    +0.000 C 
BRANCH   6   7
ATOM      7  C   UNL     1      -4.480   6.416 130.912  0.00  0.00    +0.000 C 
BRANCH   7   8
ATOM      8  O   UNL     1      -5.478   5.469 130.550  0.00  0.00    +0.000 OA
BRANCH   8   9
ATOM      9  C   UNL     1      -5.187   4.193 131.107  0.00  0.00    +0.000 C 
BRANCH   9  10
ATOM     10  C   UNL     1      -6.404   3.299 130.944  0.00  0.00    +0.000 C 
BRANCH  10  11
ATOM     11  O   UNL     1      -7.564   4.117 130.845  0.00  0.00    +0.000 OA
BRANCH  11  12
ATOM     12  C   UNL     1      -8.396   3.686 129.774  0.00  0.00    +0.000 C 
BRANCH  12  13
ATOM     13  C   UNL     1      -9.843   3.972 130.133  0.00  0.00    +0.000 C 
BRANCH  13  14
ATOM     14  O   UNL     1     -10.229   5.209 129.543  0.00  0.00    +0.000 OA
BRANCH  14  15
ATOM     15  C   UNL     1     -11.088   5.938 130.414  0.00  0.00    +0.000 C 
BRANCH  15  16
ATOM     16  C   UNL     1     -12.226   6.529 129.600  0.00  0.00    +0.000 C 
BRANCH  16  17
ATOM     17  O   UNL     1     -11.984   7.920 129.395  0.00  0.00    +0.000 OA
BRANCH  17  18
ATOM     18  C   UNL     1     -11.501   8.160 128.078  0.00  0.00    +0.000 C 
BRANCH  18  19
ATOM     19  C   UNL     1     -12.220   7.249 127.093  0.00  0.00    +0.000 C 
BRANCH  19  20
ATOM     20  O   UNL     1     -11.284   6.577 126.257  0.00  0.00    +0.000 OA
ATOM     21  H   UNL     1     -11.746   6.332 125.442  0.00  0.00    +0.000 HD
ENDBRANCH  19  20
ENDBRANCH  18  19
ENDBRANCH  17  18
ENDBRANCH  16  17
ENDBRANCH  15  16
ENDBRANCH  14  15
ENDBRANCH  13  14
ENDBRANCH  12  13
ENDBRANCH  11  12
ENDBRANCH  10  11
ENDBRANCH   9  10
ENDBRANCH   8   9
ENDBRANCH   7   8
ENDBRANCH   6   7
ENDBRANCH   5   6
ENDBRANCH   4   5
ENDBRANCH   3   4
ENDBRANCH   2   3
ENDBRANCH   1   2
BRANCH   1  22
ATOM     22  C   UNL     1      -5.926   3.366 126.938  0.00  0.00    +0.000 C 
BRANCH  22  23
ATOM     23  O   UNL     1      -6.848   3.868 125.977  0.00  0.00    +0.000 OA
BRANCH  23  24
ATOM     24  C   UNL     1      -6.188   4.706 125.034  0.00  0.00    +0.000 C 
BRANCH  24  25
ATOM     25  C   UNL     1      -6.034   3.946 123.731  0.00  0.00    +0.000 C 
BRANCH  25  26
ATOM     26  O   UNL     1      -7.304   3.430 123.349  0.00  0.00    +0.000 OA
BRANCH  26  27
ATOM     27  C   UNL     1      -7.206   2.050 123.016  0.00  0.00    +0.000 C 
BRANCH  27  28
ATOM     28  C   UNL     1      -8.137   1.268 123.920  0.00  0.00    +0.000 C 
BRANCH  28  29
ATOM     29  O   UNL     1      -7.849  -0.120 123.788  0.00  0.00    +0.000 OA
BRANCH  29  30
ATOM     30  C   UNL     1      -9.052  -0.853 123.600  0.00  0.00    +0.000 C 
BRANCH  30  31
ATOM     31  C   UNL     1      -8.721  -2.139 122.872  0.00  0.00    +0.000 C 
BRANCH  31  32
ATOM     32  C   UNL     1      -8.699  -3.292 123.860  0.00  0.00    +0.000 C 
BRANCH  32  33
ATOM     33  C   UNL     1      -9.445  -2.925 125.129  0.00  0.00    +0.000 C 
BRANCH  33  34
ATOM     34  C   UNL     1      -8.665  -3.400 126.344  0.00  0.00    +0.000 C 
BRANCH  34  35
ATOM     35  C   UNL     1      -8.168  -2.207 127.143  0.00  0.00    +0.000 C 
BRANCH  35  36
ATOM     36  C   UNL     1      -6.763  -2.471 127.657  0.00  0.00    +0.000 C 
BRANCH  36  37
ATOM     37  C   UNL     1      -5.748  -1.730 126.804  0.00  0.00    +0.000 C 
BRANCH  37  38
ATOM     38  C   UNL     1      -5.160  -2.663 125.756  0.00  0.00    +0.000 C 
BRANCH  38  39
ATOM     39  C   UNL     1      -5.309  -2.058 124.368  0.00  0.00    +0.000 C 
BRANCH  39  41
ATOM     40  C   UNL     1      -4.688  -4.436 123.916  0.00  0.00    +0.000 C 
ATOM     41  C   UNL     1      -4.946  -3.077 123.295  0.00  0.00    +0.000 C 
ENDBRANCH  39  41
ENDBRANCH  38  39
ENDBRANCH  37  38
ENDBRANCH  36  37
ENDBRANCH  35  36
ENDBRANCH  34  35
ENDBRANCH  33  34
ENDBRANCH  32  33
ENDBRANCH  31  32
ENDBRANCH  30  31
ENDBRANCH  29  30
ENDBRANCH  28  29
ENDBRANCH  27  28
ENDBRANCH  26  27
ENDBRANCH  25  26
ENDBRANCH  24  25
ENDBRANCH  23  24
ENDBRANCH  22  23
ENDBRANCH   1  22
TORSDOF 38
ENDMDL
MODEL 2
REMARK VINA RESULT:      -4.8      3.082      9.806
REMARK  Name = Polidocanol
REMARK  39 active torsions:
REMARK  status: ('A' for Active; 'I' for Inactive)
REMARK    1  A    between atoms: C_1  and  C_2
REMARK    2  A    between atoms: C_2  and  C_3
REMARK    3  A    between atoms: C_3  and  C_4
REMARK    4  A    between atoms: C_4  and  C_5
REMARK    5  A    between atoms: C_5  and  C_6
REMARK    6  A    between atoms: C_6  and  C_7
REMARK    7  A    between atoms: C_7  and  C_8
REMARK    8  A    between atoms: C_8  and  C_9
REMARK    9  A    between atoms: C_9  and  C_10
REMARK   10  A    between atoms: C_10  and  C_11
REMARK   11  A    between atoms: C_11  and  C_12
REMARK   12  A    between atoms: C_12  and  O_13
REMARK   13  A    between atoms: O_13  and  C_14
REMARK   14  A    between atoms: C_14  and  C_15
REMARK   15  A    between atoms: C_15  and  O_16
REMARK   16  A    between atoms: O_16  and  C_17
REMARK   17  A    between atoms: C_17  and  C_18
REMARK   18  A    between atoms: C_18  and  O_19
REMARK   19  A    between atoms: O_19  and  C_20
REMARK   20  A    between atoms: C_20  and  C_21
REMARK   21  A    between atoms: C_21  and  O_22
REMARK   22  A    between atoms: O_22  and  C_23
REMARK   23  A    between atoms: C_23  and  C_24
REMARK   24  A    between atoms: C_24  and  O_25
REMARK   25  A    between atoms: O_25  and  C_26
REMARK   26  A    between atoms: C_26  and  C_27
REMARK   27  A    between atoms: C_27  and  O_28
REMARK   28  A    between atoms: O_28  and  C_29
REMARK   29  A    between atoms: C_29  and  C_30
REMARK   30  A    between atoms: C_30  and  O_31
REMARK   31  A    between atoms: O_31  and  C_32
REMARK   32  A    between atoms: C_32  and  C_33
REMARK   33  A    between atoms: C_33  and  O_34
REMARK   34  A    between atoms: O_34  and  C_35
REMARK   35  A    between atoms: C_35  and  C_36
REMARK   36  A    between atoms: C_36  and  O_37
REMARK   37  A    between atoms: O_37  and  C_38
REMARK   38  A    between atoms: C_38  and  C_39
REMARK   39  A    between atoms: C_39  and  O_40
REMARK                            x       y       z     vdW  Elec       q    Type
REMARK                         _______ _______ _______ _____ _____    ______ ____
ROOT
ATOM      1  C   UNL     1      -8.624  -1.923 126.444  0.00  0.00    +0.000 C 
ENDROOT
BRANCH   1   2
ATOM      2  O   UNL     1      -9.658  -2.639 125.776  0.00  0.00    +0.000 OA
BRANCH   2   3
ATOM      3  C   UNL     1      -9.168  -3.230 124.578  0.00  0.00    +0.000 C 
BRANCH   3   4
ATOM      4  C   UNL     1      -8.686  -2.129 123.652  0.00  0.00    +0.000 C 
BRANCH   4   5
ATOM      5  O   UNL     1      -9.814  -1.549 123.006  0.00  0.00    +0.000 OA
BRANCH   5   6
ATOM      6  C   UNL     1      -9.516  -0.231 122.559  0.00  0.00    +0.000 C 
BRANCH   6   7
ATOM      7  C   UNL     1     -10.628   0.699 123.007  0.00  0.00    +0.000 C 
BRANCH   7   8
ATOM      8  O   UNL     1     -10.453   0.989 124.389  0.00  0.00    +0.000 OA
BRANCH   8   9
ATOM      9  C   UNL     1      -9.274   1.758 124.597  0.00  0.00    +0.000 C 
BRANCH   9  10
ATOM     10  C   UNL     1      -8.856   1.629 126.051  0.00  0.00    +0.000 C 
BRANCH  10  11
ATOM     11  O   UNL     1      -8.509   2.917 126.545  0.00  0.00    +0.000 OA
BRANCH  11  12
ATOM     12  C   UNL     1      -7.179   2.922 127.052  0.00  0.00    +0.000 C 
BRANCH  12  13
ATOM     13  C   UNL     1      -6.313   3.778 126.145  0.00  0.00    +0.000 C 
BRANCH  13  14
ATOM     14  O   UNL     1      -6.157   3.113 124.895  0.00  0.00    +0.000 OA
BRANCH  14  15
ATOM     15  C   UNL     1      -5.550   3.976 123.937  0.00  0.00    +0.000 C 
BRANCH  15  16
ATOM     16  C   UNL     1      -6.108   3.651 122.562  0.00  0.00    +0.000 C 
BRANCH  16  17
ATOM     17  O   UNL     1      -5.490   4.496 121.593  0.00  0.00    +0.000 OA
BRANCH  17  18
ATOM     18  C   UNL     1      -6.161   4.404 120.341  0.00  0.00    +0.000 C 
BRANCH  18  19
ATOM     19  C   UNL     1      -5.478   5.309 119.325  0.00  0.00    +0.000 C 
BRANCH  19  20
ATOM     20  O   UNL     1      -5.014   6.502 119.949  0.00  0.00    +0.000 OA
ATOM     21  H   UNL     1      -4.046   6.489 119.916  0.00  0.00    +0.000 HD
ENDBRANCH  19  20
ENDBRANCH  18  19
ENDBRANCH  17  18
ENDBRANCH  16  17
ENDBRANCH  15  16
ENDBRANCH  14  15
ENDBRANCH  13  14
ENDBRANCH  12  13
ENDBRANCH  11  12
ENDBRANCH  10  11
ENDBRANCH   9  10
ENDBRANCH   8   9
ENDBRANCH   7   8
ENDBRANCH   6   7
ENDBRANCH   5   6
ENDBRANCH   4   5
ENDBRANCH   3   4
ENDBRANCH   2   3
ENDBRANCH   1   2
BRANCH   1  22
ATOM     22  C   UNL     1      -7.720  -2.916 127.149  0.00  0.00    +0.000 C 
BRANCH  22  23
ATOM     23  O   UNL     1      -8.496  -3.659 128.082  0.00  0.00    +0.000 OA
BRANCH  23  24
ATOM     24  C   UNL     1      -8.303  -3.165 129.403  0.00  0.00    +0.000 C 
BRANCH  24  25
ATOM     25  C   UNL     1      -6.841  -2.804 129.580  0.00  0.00    +0.000 C 
BRANCH  25  26
ATOM     26  O   UNL     1      -6.755  -1.568 130.279  0.00  0.00    +0.000 OA
BRANCH  26  27
ATOM     27  C   UNL     1      -8.009  -0.896 130.267  0.00  0.00    +0.000 C 
BRANCH  27  28
ATOM     28  C   UNL     1      -8.081   0.015 131.476  0.00  0.00    +0.000 C 
BRANCH  28  29
ATOM     29  O   UNL     1      -8.324   1.346 131.036  0.00  0.00    +0.000 OA
BRANCH  29  30
ATOM     30  C   UNL     1      -7.464   2.250 131.716  0.00  0.00    +0.000 C 
BRANCH  30  31
ATOM     31  C   UNL     1      -7.820   2.236 133.189  0.00  0.00    +0.000 C 
BRANCH  31  32
ATOM     32  C   UNL     1      -8.959   3.207 133.446  0.00  0.00    +0.000 C 
BRANCH  32  33
ATOM     33  C   UNL     1      -8.459   4.437 134.181  0.00  0.00    +0.000 C 
BRANCH  33  34
ATOM     34  C   UNL     1      -8.907   5.693 133.454  0.00  0.00    +0.000 C 
BRANCH  34  35
ATOM     35  C   UNL     1      -7.975   5.982 132.289  0.00  0.00    +0.000 C 
BRANCH  35  36
ATOM     36  C   UNL     1      -8.774   6.148 131.009  0.00  0.00    +0.000 C 
BRANCH  36  37
ATOM     37  C   UNL     1     -10.225   6.457 131.336  0.00  0.00    +0.000 C 
BRANCH  37  38
ATOM     38  C   UNL     1     -11.149   5.567 130.518  0.00  0.00    +0.000 C 
BRANCH  38  39
ATOM     39  C   UNL     1     -12.095   6.416 129.681  0.00  0.00    +0.000 C 
BRANCH  39  41
ATOM     40  C   UNL     1     -12.669   8.847 129.756  0.00  0.00    +0.000 C 
ATOM     41  C   UNL     1     -12.696   7.537 130.519  0.00  0.00    +0.000 C 
ENDBRANCH  39  41
ENDBRANCH  38  39
ENDBRANCH  37  38
ENDBRANCH  36  37
ENDBRANCH  35  36
ENDBRANCH  34  35
ENDBRANCH  33  34
ENDBRANCH  32  33
ENDBRANCH  31  32
ENDBRANCH  30  31
ENDBRANCH  29  30
ENDBRANCH  28  29
ENDBRANCH  27  28
ENDBRANCH  26  27
ENDBRANCH  25  26
ENDBRANCH  24  25
ENDBRANCH  23  24
ENDBRANCH  22  23
ENDBRANCH   1  22
TORSDOF 38
ENDMDL
MODEL 3
REMARK VINA RESULT:      -4.7      2.127      5.330
REMARK  Name = Polidocanol
REMARK  39 active torsions:
REMARK  status: ('A' for Active; 'I' for Inactive)
REMARK    1  A    between atoms: C_1  and  C_2
REMARK    2  A    between atoms: C_2  and  C_3
REMARK    3  A    between atoms: C_3  and  C_4
REMARK    4  A    between atoms: C_4  and  C_5
REMARK    5  A    between atoms: C_5  and  C_6
REMARK    6  A    between atoms: C_6  and  C_7
REMARK    7  A    between atoms: C_7  and  C_8
REMARK    8  A    between atoms: C_8  and  C_9
REMARK    9  A    between atoms: C_9  and  C_10
REMARK   10  A    between atoms: C_10  and  C_11
REMARK   11  A    between atoms: C_11  and  C_12
REMARK   12  A    between atoms: C_12  and  O_13
REMARK   13  A    between atoms: O_13  and  C_14
REMARK   14  A    between atoms: C_14  and  C_15
REMARK   15  A    between atoms: C_15  and  O_16
REMARK   16  A    between atoms: O_16  and  C_17
REMARK   17  A    between atoms: C_17  and  C_18
REMARK   18  A    between atoms: C_18  and  O_19
REMARK   19  A    between atoms: O_19  and  C_20
REMARK   20  A    between atoms: C_20  and  C_21
REMARK   21  A    between atoms: C_21  and  O_22
REMARK   22  A    between atoms: O_22  and  C_23
REMARK   23  A    between atoms: C_23  and  C_24
REMARK   24  A    between atoms: C_24  and  O_25
REMARK   25  A    between atoms: O_25  and  C_26
REMARK   26  A    between atoms: C_26  and  C_27
REMARK   27  A    between atoms: C_27  and  O_28
REMARK   28  A    between atoms: O_28  and  C_29
REMARK   29  A    between atoms: C_29  and  C_30
REMARK   30  A    between atoms: C_30  and  O_31
REMARK   31  A    between atoms: O_31  and  C_32
REMARK   32  A    between atoms: C_32  and  C_33
REMARK   33  A    between atoms: C_33  and  O_34
REMARK   34  A    between atoms: O_34  and  C_35
REMARK   35  A    between atoms: C_35  and  C_36
REMARK   36  A    between atoms: C_36  and  O_37
REMARK   37  A    between atoms: O_37  and  C_38
REMARK   38  A    between atoms: C_38  and  C_39
REMARK   39  A    between atoms: C_39  and  O_40
REMARK                            x       y       z     vdW  Elec       q    Type
REMARK                         _______ _______ _______ _____ _____    ______ ____
ROOT
ATOM      1  C   UNL     1      -9.007   4.912 129.636  0.00  0.00    +0.000 C 
ENDROOT
BRANCH   1   2
ATOM      2  O   UNL     1      -8.599   6.271 129.534  0.00  0.00    +0.000 OA
BRANCH   2   3
ATOM      3  C   UNL     1      -8.719   6.929 130.790  0.00  0.00    +0.000 C 
BRANCH   3   4
ATOM      4  C   UNL     1      -8.715   5.884 131.890  0.00  0.00    +0.000 C 
BRANCH   4   5
ATOM      5  O   UNL     1      -7.581   6.099 132.722  0.00  0.00    +0.000 OA
BRANCH   5   6
ATOM      6  C   UNL     1      -6.418   6.333 131.936  0.00  0.00    +0.000 C 
BRANCH   6   7
ATOM      7  C   UNL     1      -5.682   5.018 131.750  0.00  0.00    +0.000 C 
BRANCH   7   8
ATOM      8  O   UNL     1      -5.196   4.951 130.414  0.00  0.00    +0.000 OA
BRANCH   8   9
ATOM      9  C   UNL     1      -4.024   4.147 130.343  0.00  0.00    +0.000 C 
BRANCH   9  10
ATOM     10  C   UNL     1      -4.167   3.175 129.186  0.00  0.00    +0.000 C 
BRANCH  10  11
ATOM     11  O   UNL     1      -3.086   3.375 128.282  0.00  0.00    +0.000 OA
BRANCH  11  12
ATOM     12  C   UNL     1      -3.396   2.847 126.998  0.00  0.00    +0.000 C 
BRANCH  12  13
ATOM     13  C   UNL     1      -4.802   3.276 126.619  0.00  0.00    +0.000 C 
BRANCH  13  14
ATOM     14  O   UNL     1      -4.726   4.200 125.538  0.00  0.00    +0.000 OA
BRANCH  14  15
ATOM     15  C   UNL     1      -5.798   3.996 124.624  0.00  0.00    +0.000 C 
BRANCH  15  16
ATOM     16  C   UNL     1      -5.350   4.429 123.238  0.00  0.00    +0.000 C 
BRANCH  16  17
ATOM     17  O   UNL     1      -6.101   3.715 122.258  0.00  0.00    +0.000 OA
BRANCH  17  18
ATOM     18  C   UNL     1      -5.593   3.964 120.952  0.00  0.00    +0.000 C 
BRANCH  18  19
ATOM     19  C   UNL     1      -4.623   5.136 120.993  0.00  0.00    +0.000 C 
BRANCH  19  20
ATOM     20  O   UNL     1      -4.971   6.110 120.015  0.00  0.00    +0.000 OA
ATOM     21  H   UNL     1      -4.785   6.982 120.394  0.00  0.00    +0.000 HD
ENDBRANCH  19  20
ENDBRANCH  18  19
ENDBRANCH  17  18
ENDBRANCH  16  17
ENDBRANCH  15  16
ENDBRANCH  14  15
ENDBRANCH  13  14
ENDBRANCH  12  13
ENDBRANCH  11  12
ENDBRANCH  10  11
ENDBRANCH   9  10
ENDBRANCH   8   9
ENDBRANCH   7   8
ENDBRANCH   6   7
ENDBRANCH   5   6
ENDBRANCH   4   5
ENDBRANCH   3   4
ENDBRANCH   2   3
ENDBRANCH   1   2
BRANCH   1  22
ATOM     22  C   UNL     1      -8.176   4.079 128.677  0.00  0.00    +0.000 C 
BRANCH  22  23
ATOM     23  O   UNL     1      -8.822   2.826 128.483  0.00  0.00    +0.000 OA
BRANCH  23  24
ATOM     24  C   UNL     1      -7.984   1.936 127.753  0.00  0.00    +0.000 C 
BRANCH  24  25
ATOM     25  C   UNL     1      -8.844   1.135 126.794  0.00  0.00    +0.000 C 
BRANCH  25  26
ATOM     26  O   UNL     1      -9.277   1.991 125.743  0.00  0.00    +0.000 OA
BRANCH  26  27
ATOM     27  C   UNL     1      -9.478   1.252 124.544  0.00  0.00    +0.000 C 
BRANCH  27  28
ATOM     28  C   UNL     1      -8.178   1.233 123.765  0.00  0.00    +0.000 C 
BRANCH  28  29
ATOM     29  O   UNL     1      -7.950  -0.086 123.283  0.00  0.00    +0.000 OA
BRANCH  29  30
ATOM     30  C   UNL     1      -8.897  -0.984 123.847  0.00  0.00    +0.000 C 
BRANCH  30  31
ATOM     31  C   UNL     1      -8.739  -2.332 123.174  0.00  0.00    +0.000 C 
BRANCH  31  32
ATOM     32  C   UNL     1      -7.879  -3.236 124.040  0.00  0.00    +0.000 C 
BRANCH  32  33
ATOM     33  C   UNL     1      -6.412  -2.880 123.894  0.00  0.00    +0.000 C 
BRANCH  33  34
ATOM     34  C   UNL     1      -5.768  -2.761 125.266  0.00  0.00    +0.000 C 
BRANCH  34  35
ATOM     35  C   UNL     1      -5.546  -1.299 125.612  0.00  0.00    +0.000 C 
BRANCH  35  36
ATOM     36  C   UNL     1      -5.857  -1.056 127.078  0.00  0.00    +0.000 C 
BRANCH  36  37
ATOM     37  C   UNL     1      -5.129  -2.072 127.941  0.00  0.00    +0.000 C 
BRANCH  37  38
ATOM     38  C   UNL     1      -6.089  -2.694 128.944  0.00  0.00    +0.000 C 
BRANCH  38  39
ATOM     39  C   UNL     1      -7.523  -2.306 128.612  0.00  0.00    +0.000 C 
BRANCH  39  41
ATOM     40  C   UNL     1      -9.036  -4.092 127.735  0.00  0.00    +0.000 C 
ATOM     41  C   UNL     1      -8.484  -3.428 128.982  0.00  0.00    +0.000 C 
ENDBRANCH  39  41
ENDBRANCH  38  39
ENDBRANCH  37  38
ENDBRANCH  36  37
ENDBRANCH  35  36
ENDBRANCH  34  35
ENDBRANCH  33  34
ENDBRANCH  32  33
ENDBRANCH  31  32
ENDBRANCH  30  31
ENDBRANCH  29  30
ENDBRANCH  28  29
ENDBRANCH  27  28
ENDBRANCH  26  27
ENDBRANCH  25  26
ENDBRANCH  24  25
ENDBRANCH  23  24
ENDBRANCH  22  23
ENDBRANCH   1  22
TORSDOF 38
ENDMDL
MODEL 4
REMARK VINA RESULT:      -4.7      2.614      5.187
REMARK  Name = Polidocanol
REMARK  39 active torsions:
REMARK  status: ('A' for Active; 'I' for Inactive)
REMARK    1  A    between atoms: C_1  and  C_2
REMARK    2  A    between atoms: C_2  and  C_3
REMARK    3  A    between atoms: C_3  and  C_4
REMARK    4  A    between atoms: C_4  and  C_5
REMARK    5  A    between atoms: C_5  and  C_6
REMARK    6  A    between atoms: C_6  and  C_7
REMARK    7  A    between atoms: C_7  and  C_8
REMARK    8  A    between atoms: C_8  and  C_9
REMARK    9  A    between atoms: C_9  and  C_10
REMARK   10  A    between atoms: C_10  and  C_11
REMARK   11  A    between atoms: C_11  and  C_12
REMARK   12  A    between atoms: C_12  and  O_13
REMARK   13  A    between atoms: O_13  and  C_14
REMARK   14  A    between atoms: C_14  and  C_15
REMARK   15  A    between atoms: C_15  and  O_16
REMARK   16  A    between atoms: O_16  and  C_17
REMARK   17  A    between atoms: C_17  and  C_18
REMARK   18  A    between atoms: C_18  and  O_19
REMARK   19  A    between atoms: O_19  and  C_20
REMARK   20  A    between atoms: C_20  and  C_21
REMARK   21  A    between atoms: C_21  and  O_22
REMARK   22  A    between atoms: O_22  and  C_23
REMARK   23  A    between atoms: C_23  and  C_24
REMARK   24  A    between atoms: C_24  and  O_25
REMARK   25  A    between atoms: O_25  and  C_26
REMARK   26  A    between atoms: C_26  and  C_27
REMARK   27  A    between atoms: C_27  and  O_28
REMARK   28  A    between atoms: O_28  and  C_29
REMARK   29  A    between atoms: C_29  and  C_30
REMARK   30  A    between atoms: C_30  and  O_31
REMARK   31  A    between atoms: O_31  and  C_32
REMARK   32  A    between atoms: C_32  and  C_33
REMARK   33  A    between atoms: C_33  and  O_34
REMARK   34  A    between atoms: O_34  and  C_35
REMARK   35  A    between atoms: C_35  and  C_36
REMARK   36  A    between atoms: C_36  and  O_37
REMARK   37  A    between atoms: O_37  and  C_38
REMARK   38  A    between atoms: C_38  and  C_39
REMARK   39  A    between atoms: C_39  and  O_40
REMARK                            x       y       z     vdW  Elec       q    Type
REMARK                         _______ _______ _______ _____ _____    ______ ____
ROOT
ATOM      1  C   UNL     1      -9.502   0.937 124.974  0.00  0.00    +0.000 C 
ENDROOT
BRANCH   1   2
ATOM      2  O   UNL     1      -9.480   2.356 125.076  0.00  0.00    +0.000 OA
BRANCH   2   3
ATOM      3  C   UNL     1      -8.336   2.891 124.419  0.00  0.00    +0.000 C 
BRANCH   3   4
ATOM      4  C   UNL     1      -7.570   3.757 125.401  0.00  0.00    +0.000 C 
BRANCH   4   5
ATOM      5  O   UNL     1      -8.407   4.030 126.519  0.00  0.00    +0.000 OA
BRANCH   5   6
ATOM      6  C   UNL     1      -7.676   3.913 127.735  0.00  0.00    +0.000 C 
BRANCH   6   7
ATOM      7  C   UNL     1      -8.174   2.692 128.487  0.00  0.00    +0.000 C 
BRANCH   7   8
ATOM      8  O   UNL     1      -8.587   3.094 129.789  0.00  0.00    +0.000 OA
BRANCH   8   9
ATOM      9  C   UNL     1      -7.463   3.249 130.648  0.00  0.00    +0.000 C 
BRANCH   9  10
ATOM     10  C   UNL     1      -7.621   4.540 131.432  0.00  0.00    +0.000 C 
BRANCH  10  11
ATOM     11  O   UNL     1      -8.694   4.387 132.355  0.00  0.00    +0.000 OA
BRANCH  11  12
ATOM     12  C   UNL     1      -9.547   5.526 132.331  0.00  0.00    +0.000 C 
BRANCH  12  13
ATOM     13  C   UNL     1      -8.971   6.549 131.368  0.00  0.00    +0.000 C 
BRANCH  13  14
ATOM     14  O   UNL     1      -9.972   6.905 130.420  0.00  0.00    +0.000 OA
BRANCH  14  15
ATOM     15  C   UNL     1     -11.223   6.316 130.763  0.00  0.00    +0.000 C 
BRANCH  15  16
ATOM     16  C   UNL     1     -12.183   6.493 129.599  0.00  0.00    +0.000 C 
BRANCH  16  17
ATOM     17  O   UNL     1     -12.332   7.884 129.320  0.00  0.00    +0.000 OA
BRANCH  17  18
ATOM     18  C   UNL     1     -11.956   8.174 127.979  0.00  0.00    +0.000 C 
BRANCH  18  19
ATOM     19  C   UNL     1     -12.616   7.179 127.034  0.00  0.00    +0.000 C 
BRANCH  19  20
ATOM     20  O   UNL     1     -11.651   6.594 126.167  0.00  0.00    +0.000 OA
ATOM     21  H   UNL     1     -11.952   6.739 125.258  0.00  0.00    +0.000 HD
ENDBRANCH  19  20
ENDBRANCH  18  19
ENDBRANCH  17  18
ENDBRANCH  16  17
ENDBRANCH  15  16
ENDBRANCH  14  15
ENDBRANCH  13  14
ENDBRANCH  12  13
ENDBRANCH  11  12
ENDBRANCH  10  11
ENDBRANCH   9  10
ENDBRANCH   8   9
ENDBRANCH   7   8
ENDBRANCH   6   7
ENDBRANCH   5   6
ENDBRANCH   4   5
ENDBRANCH   3   4
ENDBRANCH   2   3
ENDBRANCH   1   2
BRANCH   1  22
ATOM     22  C   UNL     1      -9.041   0.540 123.584  0.00  0.00    +0.000 C 
BRANCH  22  23
ATOM     23  O   UNL     1      -9.767  -0.614 123.174  0.00  0.00    +0.000 OA
BRANCH  23  24
ATOM     24  C   UNL     1      -8.879  -1.673 122.834  0.00  0.00    +0.000 C 
BRANCH  24  25
ATOM     25  C   UNL     1      -9.427  -2.969 123.399  0.00  0.00    +0.000 C 
BRANCH  25  26
ATOM     26  O   UNL     1      -8.417  -3.591 124.184  0.00  0.00    +0.000 OA
BRANCH  26  27
ATOM     27  C   UNL     1      -7.264  -2.761 124.270  0.00  0.00    +0.000 C 
BRANCH  27  28
ATOM     28  C   UNL     1      -6.877  -2.623 125.728  0.00  0.00    +0.000 C 
BRANCH  28  29
ATOM     29  O   UNL     1      -8.047  -2.359 126.493  0.00  0.00    +0.000 OA
BRANCH  29  30
ATOM     30  C   UNL     1      -7.746  -1.464 127.555  0.00  0.00    +0.000 C 
BRANCH  30  31
ATOM     31  C   UNL     1      -7.271  -2.274 128.744  0.00  0.00    +0.000 C 
BRANCH  31  32
ATOM     32  C   UNL     1      -7.550  -1.508 130.025  0.00  0.00    +0.000 C 
BRANCH  32  33
ATOM     33  C   UNL     1      -6.559  -0.372 130.198  0.00  0.00    +0.000 C 
BRANCH  33  34
ATOM     34  C   UNL     1      -6.043  -0.348 131.627  0.00  0.00    +0.000 C 
BRANCH  34  35
ATOM     35  C   UNL     1      -4.541  -0.576 131.643  0.00  0.00    +0.000 C 
BRANCH  35  36
ATOM     36  C   UNL     1      -4.033  -0.804 130.230  0.00  0.00    +0.000 C 
BRANCH  36  37
ATOM     37  C   UNL     1      -3.232  -2.094 130.166  0.00  0.00    +0.000 C 
BRANCH  37  38
ATOM     38  C   UNL     1      -3.804  -3.116 131.137  0.00  0.00    +0.000 C 
BRANCH  38  39
ATOM     39  C   UNL     1      -4.685  -4.111 130.395  0.00  0.00    +0.000 C 
BRANCH  39  41
ATOM     40  C   UNL     1      -6.072  -4.004 132.472  0.00  0.00    +0.000 C 
ATOM     41  C   UNL     1      -5.541  -4.906 131.373  0.00  0.00    +0.000 C 
ENDBRANCH  39  41
ENDBRANCH  38  39
ENDBRANCH  37  38
ENDBRANCH  36  37
ENDBRANCH  35  36
ENDBRANCH  34  35
ENDBRANCH  33  34
ENDBRANCH  32  33
ENDBRANCH  31  32
ENDBRANCH  30  31
ENDBRANCH  29  30
ENDBRANCH  28  29
ENDBRANCH  27  28
ENDBRANCH  26  27
ENDBRANCH  25  26
ENDBRANCH  24  25
ENDBRANCH  23  24
ENDBRANCH  22  23
ENDBRANCH   1  22
TORSDOF 38
ENDMDL
MODEL 5
REMARK VINA RESULT:      -4.6      2.996      6.460
REMARK  Name = Polidocanol
REMARK  39 active torsions:
REMARK  status: ('A' for Active; 'I' for Inactive)
REMARK    1  A    between atoms: C_1  and  C_2
REMARK    2  A    between atoms: C_2  and  C_3
REMARK    3  A    between atoms: C_3  and  C_4
REMARK    4  A    between atoms: C_4  and  C_5
REMARK    5  A    between atoms: C_5  and  C_6
REMARK    6  A    between atoms: C_6  and  C_7
REMARK    7  A    between atoms: C_7  and  C_8
REMARK    8  A    between atoms: C_8  and  C_9
REMARK    9  A    between atoms: C_9  and  C_10
REMARK   10  A    between atoms: C_10  and  C_11
REMARK   11  A    between atoms: C_11  and  C_12
REMARK   12  A    between atoms: C_12  and  O_13
REMARK   13  A    between atoms: O_13  and  C_14
REMARK   14  A    between atoms: C_14  and  C_15
REMARK   15  A    between atoms: C_15  and  O_16
REMARK   16  A    between atoms: O_16  and  C_17
REMARK   17  A    between atoms: C_17  and  C_18
REMARK   18  A    between atoms: C_18  and  O_19
REMARK   19  A    between atoms: O_19  and  C_20
REMARK   20  A    between atoms: C_20  and  C_21
REMARK   21  A    between atoms: C_21  and  O_22
REMARK   22  A    between atoms: O_22  and  C_23
REMARK   23  A    between atoms: C_23  and  C_24
REMARK   24  A    between atoms: C_24  and  O_25
REMARK   25  A    between atoms: O_25  and  C_26
REMARK   26  A    between atoms: C_26  and  C_27
REMARK   27  A    between atoms: C_27  and  O_28
REMARK   28  A    between atoms: O_28  and  C_29
REMARK   29  A    between atoms: C_29  and  C_30
REMARK   30  A    between atoms: C_30  and  O_31
REMARK   31  A    between atoms: O_31  and  C_32
REMARK   32  A    between atoms: C_32  and  C_33
REMARK   33  A    between atoms: C_33  and  O_34
REMARK   34  A    between atoms: O_34  and  C_35
REMARK   35  A    between atoms: C_35  and  C_36
REMARK   36  A    between atoms: C_36  and  O_37
REMARK   37  A    between atoms: O_37  and  C_38
REMARK   38  A    between atoms: C_38  and  C_39
REMARK   39  A    between atoms: C_39  and  O_40
REMARK                            x       y       z     vdW  Elec       q    Type
REMARK                         _______ _______ _______ _____ _____    ______ ____
ROOT
ATOM      1  C   UNL     1      -8.995   3.264 132.813  0.00  0.00    +0.000 C 
ENDROOT
BRANCH   1   2
ATOM      2  O   UNL     1      -8.420   2.403 133.789  0.00  0.00    +0.000 OA
BRANCH   2   3
ATOM      3  C   UNL     1      -7.014   2.601 133.870  0.00  0.00    +0.000 C 
BRANCH   3   4
ATOM      4  C   UNL     1      -6.740   4.079 134.074  0.00  0.00    +0.000 C 
BRANCH   4   5
ATOM      5  O   UNL     1      -5.825   4.517 133.076  0.00  0.00    +0.000 OA
BRANCH   5   6
ATOM      6  C   UNL     1      -6.038   5.890 132.765  0.00  0.00    +0.000 C 
BRANCH   6   7
ATOM      7  C   UNL     1      -5.423   6.183 131.409  0.00  0.00    +0.000 C 
BRANCH   7   8
ATOM      8  O   UNL     1      -6.440   6.670 130.541  0.00  0.00    +0.000 OA
BRANCH   8   9
ATOM      9  C   UNL     1      -7.670   6.819 131.241  0.00  0.00    +0.000 C 
BRANCH   9  10
ATOM     10  C   UNL     1      -8.742   6.019 130.521  0.00  0.00    +0.000 C 
BRANCH  10  11
ATOM     11  O   UNL     1      -8.254   5.650 129.236  0.00  0.00    +0.000 OA
BRANCH  11  12
ATOM     12  C   UNL     1      -8.468   4.264 128.994  0.00  0.00    +0.000 C 
BRANCH  12  13
ATOM     13  C   UNL     1      -7.421   3.771 128.012  0.00  0.00    +0.000 C 
BRANCH  13  14
ATOM     14  O   UNL     1      -6.407   4.763 127.882  0.00  0.00    +0.000 OA
BRANCH  14  15
ATOM     15  C   UNL     1      -5.426   4.361 126.932  0.00  0.00    +0.000 C 
BRANCH  15  16
ATOM     16  C   UNL     1      -4.067   4.869 127.384  0.00  0.00    +0.000 C 
BRANCH  16  17
ATOM     17  O   UNL     1      -4.169   6.253 127.711  0.00  0.00    +0.000 OA
BRANCH  17  18
ATOM     18  C   UNL     1      -2.888   6.797 128.011  0.00  0.00    +0.000 C 
BRANCH  18  19
ATOM     19  C   UNL     1      -3.027   7.891 129.061  0.00  0.00    +0.000 C 
BRANCH  19  20
ATOM     20  O   UNL     1      -4.384   8.308 129.174  0.00  0.00    +0.000 OA
ATOM     21  H   UNL     1      -4.739   8.385 128.276  0.00  0.00    +0.000 HD
ENDBRANCH  19  20
ENDBRANCH  18  19
ENDBRANCH  17  18
ENDBRANCH  16  17
ENDBRANCH  15  16
ENDBRANCH  14  15
ENDBRANCH  13  14
ENDBRANCH  12  13
ENDBRANCH  11  12
ENDBRANCH  10  11
ENDBRANCH   9  10
ENDBRANCH   8   9
ENDBRANCH   7   8
ENDBRANCH   6   7
ENDBRANCH   5   6
ENDBRANCH   4   5
ENDBRANCH   3   4
ENDBRANCH   2   3
ENDBRANCH   1   2
BRANCH   1  22
ATOM     22  C   UNL     1      -9.832   2.432 131.859  0.00  0.00    +0.000 C 
BRANCH  22  23
ATOM     23  O   UNL     1      -9.566   1.055 132.101  0.00  0.00    +0.000 OA
BRANCH  23  24
ATOM     24  C   UNL     1      -8.669   0.536 131.125  0.00  0.00    +0.000 C 
BRANCH  24  25
ATOM     25  C   UNL     1      -8.193  -0.831 131.578  0.00  0.00    +0.000 C 
BRANCH  25  26
ATOM     26  O   UNL     1      -7.729  -0.732 132.919  0.00  0.00    +0.000 OA
BRANCH  26  27
ATOM     27  C   UNL     1      -6.509  -1.446 133.083  0.00  0.00    +0.000 C 
BRANCH  27  28
ATOM     28  C   UNL     1      -6.813  -2.777 133.740  0.00  0.00    +0.000 C 
BRANCH  28  29
ATOM     29  O   UNL     1      -6.900  -3.779 132.732  0.00  0.00    +0.000 OA
BRANCH  29  30
ATOM     30  C   UNL     1      -5.785  -3.690 131.857  0.00  0.00    +0.000 C 
BRANCH  30  31
ATOM     31  C   UNL     1      -6.237  -4.073 130.463  0.00  0.00    +0.000 C 
BRANCH  31  32
ATOM     32  C   UNL     1      -5.777  -3.019 129.471  0.00  0.00    +0.000 C 
BRANCH  32  33
ATOM     33  C   UNL     1      -6.908  -2.633 128.536  0.00  0.00    +0.000 C 
BRANCH  33  34
ATOM     34  C   UNL     1      -8.152  -3.442 128.864  0.00  0.00    +0.000 C 
BRANCH  34  35
ATOM     35  C   UNL     1      -8.827  -3.904 127.584  0.00  0.00    +0.000 C 
BRANCH  35  36
ATOM     36  C   UNL     1      -8.426  -3.003 126.429  0.00  0.00    +0.000 C 
BRANCH  36  37
ATOM     37  C   UNL     1      -8.096  -3.841 125.205  0.00  0.00    +0.000 C 
BRANCH  37  38
ATOM     38  C   UNL     1      -7.581  -2.952 124.083  0.00  0.00    +0.000 C 
BRANCH  38  39
ATOM     39  C   UNL     1      -6.139  -2.546 124.352  0.00  0.00    +0.000 C 
BRANCH  39  41
ATOM     40  C   UNL     1      -4.536  -4.411 123.908  0.00  0.00    +0.000 C 
ATOM     41  C   UNL     1      -5.202  -3.176 123.330  0.00  0.00    +0.000 C 
ENDBRANCH  39  41
ENDBRANCH  38  39
ENDBRANCH  37  38
ENDBRANCH  36  37
ENDBRANCH  35  36
ENDBRANCH  34  35
ENDBRANCH  33  34
ENDBRANCH  32  33
ENDBRANCH  31  32
ENDBRANCH  30  31
ENDBRANCH  29  30
ENDBRANCH  28  29
ENDBRANCH  27  28
ENDBRANCH  26  27
ENDBRANCH  25  26
ENDBRANCH  24  25
ENDBRANCH  23  24
ENDBRANCH  22  23
ENDBRANCH   1  22
TORSDOF 38
ENDMDL
MODEL 6
REMARK VINA RESULT:      -4.6      2.397      3.785
REMARK  Name = Polidocanol
REMARK  39 active torsions:
REMARK  status: ('A' for Active; 'I' for Inactive)
REMARK    1  A    between atoms: C_1  and  C_2
REMARK    2  A    between atoms: C_2  and  C_3
REMARK    3  A    between atoms: C_3  and  C_4
REMARK    4  A    between atoms: C_4  and  C_5
REMARK    5  A    between atoms: C_5  and  C_6
REMARK    6  A    between atoms: C_6  and  C_7
REMARK    7  A    between atoms: C_7  and  C_8
REMARK    8  A    between atoms: C_8  and  C_9
REMARK    9  A    between atoms: C_9  and  C_10
REMARK   10  A    between atoms: C_10  and  C_11
REMARK   11  A    between atoms: C_11  and  C_12
REMARK   12  A    between atoms: C_12  and  O_13
REMARK   13  A    between atoms: O_13  and  C_14
REMARK   14  A    between atoms: C_14  and  C_15
REMARK   15  A    between atoms: C_15  and  O_16
REMARK   16  A    between atoms: O_16  and  C_17
REMARK   17  A    between atoms: C_17  and  C_18
REMARK   18  A    between atoms: C_18  and  O_19
REMARK   19  A    between atoms: O_19  and  C_20
REMARK   20  A    between atoms: C_20  and  C_21
REMARK   21  A    between atoms: C_21  and  O_22
REMARK   22  A    between atoms: O_22  and  C_23
REMARK   23  A    between atoms: C_23  and  C_24
REMARK   24  A    between atoms: C_24  and  O_25
REMARK   25  A    between atoms: O_25  and  C_26
REMARK   26  A    between atoms: C_26  and  C_27
REMARK   27  A    between atoms: C_27  and  O_28
REMARK   28  A    between atoms: O_28  and  C_29
REMARK   29  A    between atoms: C_29  and  C_30
REMARK   30  A    between atoms: C_30  and  O_31
REMARK   31  A    between atoms: O_31  and  C_32
REMARK   32  A    between atoms: C_32  and  C_33
REMARK   33  A    between atoms: C_33  and  O_34
REMARK   34  A    between atoms: O_34  and  C_35
REMARK   35  A    between atoms: C_35  and  C_36
REMARK   36  A    between atoms: C_36  and  O_37
REMARK   37  A    between atoms: O_37  and  C_38
REMARK   38  A    between atoms: C_38  and  C_39
REMARK   39  A    between atoms: C_39  and  O_40
REMARK                            x       y       z     vdW  Elec       q    Type
REMARK                         _______ _______ _______ _____ _____    ______ ____
ROOT
ATOM      1  C   UNL     1      -4.579   2.351 127.252  0.00  0.00    +0.000 C 
ENDROOT
BRANCH   1   2
ATOM      2  O   UNL     1      -4.964   1.907 128.548  0.00  0.00    +0.000 OA
BRANCH   2   3
ATOM      3  C   UNL     1      -6.236   1.269 128.505  0.00  0.00    +0.000 C 
BRANCH   3   4
ATOM      4  C   UNL     1      -6.890   1.395 129.869  0.00  0.00    +0.000 C 
BRANCH   4   5
ATOM      5  O   UNL     1      -8.150   0.735 129.833  0.00  0.00    +0.000 OA
BRANCH   5   6
ATOM      6  C   UNL     1      -8.296  -0.131 130.953  0.00  0.00    +0.000 C 
BRANCH   6   7
ATOM      7  C   UNL     1      -8.146   0.684 132.224  0.00  0.00    +0.000 C 
BRANCH   7   8
ATOM      8  O   UNL     1      -9.407   1.257 132.551  0.00  0.00    +0.000 OA
BRANCH   8   9
ATOM      9  C   UNL     1      -9.256   2.618 132.940  0.00  0.00    +0.000 C 
BRANCH   9  10
ATOM     10  C   UNL     1      -7.817   2.849 133.365  0.00  0.00    +0.000 C 
BRANCH  10  11
ATOM     11  O   UNL     1      -7.393   4.119 132.881  0.00  0.00    +0.000 OA
BRANCH  11  12
ATOM     12  C   UNL     1      -8.471   4.806 132.255  0.00  0.00    +0.000 C 
BRANCH  12  13
ATOM     13  C   UNL     1      -8.954   5.907 133.182  0.00  0.00    +0.000 C 
BRANCH  13  14
ATOM     14  O   UNL     1     -10.170   6.441 132.668  0.00  0.00    +0.000 OA
BRANCH  14  15
ATOM     15  C   UNL     1     -10.157   6.445 131.244  0.00  0.00    +0.000 C 
BRANCH  15  16
ATOM     16  C   UNL     1     -11.552   6.116 130.740  0.00  0.00    +0.000 C 
BRANCH  16  17
ATOM     17  O   UNL     1     -11.757   6.748 129.478  0.00  0.00    +0.000 OA
BRANCH  17  18
ATOM     18  C   UNL     1     -10.518   6.957 128.810  0.00  0.00    +0.000 C 
BRANCH  18  19
ATOM     19  C   UNL     1     -10.488   8.356 128.210  0.00  0.00    +0.000 C 
BRANCH  19  20
ATOM     20  O   UNL     1     -10.882   8.323 126.843  0.00  0.00    +0.000 OA
ATOM     21  H   UNL     1     -10.473   7.542 126.441  0.00  0.00    +0.000 HD
ENDBRANCH  19  20
ENDBRANCH  18  19
ENDBRANCH  17  18
ENDBRANCH  16  17
ENDBRANCH  15  16
ENDBRANCH  14  15
ENDBRANCH  13  14
ENDBRANCH  12  13
ENDBRANCH  11  12
ENDBRANCH  10  11
ENDBRANCH   9  10
ENDBRANCH   8   9
ENDBRANCH   7   8
ENDBRANCH   6   7
ENDBRANCH   5   6
ENDBRANCH   4   5
ENDBRANCH   3   4
ENDBRANCH   2   3
ENDBRANCH   1   2
BRANCH   1  22
ATOM     22  C   UNL     1      -5.809   2.858 126.524  0.00  0.00    +0.000 C 
BRANCH  22  23
ATOM     23  O   UNL     1      -5.625   2.664 125.126  0.00  0.00    +0.000 OA
BRANCH  23  24
ATOM     24  C   UNL     1      -6.096   3.791 124.395  0.00  0.00    +0.000 C 
BRANCH  24  25
ATOM     25  C   UNL     1      -7.582   3.622 124.144  0.00  0.00    +0.000 C 
BRANCH  25  26
ATOM     26  O   UNL     1      -7.767   3.067 122.847  0.00  0.00    +0.000 OA
BRANCH  26  27
ATOM     27  C   UNL     1      -9.018   2.394 122.762  0.00  0.00    +0.000 C 
BRANCH  27  28
ATOM     28  C   UNL     1      -9.403   1.914 124.146  0.00  0.00    +0.000 C 
BRANCH  28  29
ATOM     29  O   UNL     1      -9.836   0.561 124.061  0.00  0.00    +0.000 OA
BRANCH  29  30
ATOM     30  C   UNL     1      -8.925  -0.195 123.275  0.00  0.00    +0.000 C 
BRANCH  30  31
ATOM     31  C   UNL     1      -9.613  -1.473 122.839  0.00  0.00    +0.000 C 
BRANCH  31  32
ATOM     32  C   UNL     1      -8.633  -2.630 122.919  0.00  0.00    +0.000 C 
BRANCH  32  33
ATOM     33  C   UNL     1      -7.385  -2.226 123.680  0.00  0.00    +0.000 C 
BRANCH  33  34
ATOM     34  C   UNL     1      -7.170  -3.163 124.857  0.00  0.00    +0.000 C 
BRANCH  34  35
ATOM     35  C   UNL     1      -8.485  -3.810 125.256  0.00  0.00    +0.000 C 
BRANCH  35  36
ATOM     36  C   UNL     1      -9.028  -3.156 126.515  0.00  0.00    +0.000 C 
BRANCH  36  37
ATOM     37  C   UNL     1      -8.821  -4.072 127.709  0.00  0.00    +0.000 C 
BRANCH  37  38
ATOM     38  C   UNL     1      -8.347  -3.269 128.911  0.00  0.00    +0.000 C 
BRANCH  38  39
ATOM     39  C   UNL     1      -6.973  -2.672 128.638  0.00  0.00    +0.000 C 
BRANCH  39  41
ATOM     40  C   UNL     1      -6.664  -3.524 130.967  0.00  0.00    +0.000 C 
ATOM     41  C   UNL     1      -5.964  -3.147 129.675  0.00  0.00    +0.000 C 
ENDBRANCH  39  41
ENDBRANCH  38  39
ENDBRANCH  37  38
ENDBRANCH  36  37
ENDBRANCH  35  36
ENDBRANCH  34  35
ENDBRANCH  33  34
ENDBRANCH  32  33
ENDBRANCH  31  32
ENDBRANCH  30  31
ENDBRANCH  29  30
ENDBRANCH  28  29
ENDBRANCH  27  28
ENDBRANCH  26  27
ENDBRANCH  25  26
ENDBRANCH  24  25
ENDBRANCH  23  24
ENDBRANCH  22  23
ENDBRANCH   1  22
TORSDOF 38
ENDMDL
MODEL 7
REMARK VINA RESULT:      -4.6      1.759      2.617
REMARK  Name = Polidocanol
REMARK  39 active torsions:
REMARK  status: ('A' for Active; 'I' for Inactive)
REMARK    1  A    between atoms: C_1  and  C_2
REMARK    2  A    between atoms: C_2  and  C_3
REMARK    3  A    between atoms: C_3  and  C_4
REMARK    4  A    between atoms: C_4  and  C_5
REMARK    5  A    between atoms: C_5  and  C_6
REMARK    6  A    between atoms: C_6  and  C_7
REMARK    7  A    between atoms: C_7  and  C_8
REMARK    8  A    between atoms: C_8  and  C_9
REMARK    9  A    between atoms: C_9  and  C_10
REMARK   10  A    between atoms: C_10  and  C_11
REMARK   11  A    between atoms: C_11  and  C_12
REMARK   12  A    between atoms: C_12  and  O_13
REMARK   13  A    between atoms: O_13  and  C_14
REMARK   14  A    between atoms: C_14  and  C_15
REMARK   15  A    between atoms: C_15  and  O_16
REMARK   16  A    between atoms: O_16  and  C_17
REMARK   17  A    between atoms: C_17  and  C_18
REMARK   18  A    between atoms: C_18  and  O_19
REMARK   19  A    between atoms: O_19  and  C_20
REMARK   20  A    between atoms: C_20  and  C_21
REMARK   21  A    between atoms: C_21  and  O_22
REMARK   22  A    between atoms: O_22  and  C_23
REMARK   23  A    between atoms: C_23  and  C_24
REMARK   24  A    between atoms: C_24  and  O_25
REMARK   25  A    between atoms: O_25  and  C_26
REMARK   26  A    between atoms: C_26  and  C_27
REMARK   27  A    between atoms: C_27  and  O_28
REMARK   28  A    between atoms: O_28  and  C_29
REMARK   29  A    between atoms: C_29  and  C_30
REMARK   30  A    between atoms: C_30  and  O_31
REMARK   31  A    between atoms: O_31  and  C_32
REMARK   32  A    between atoms: C_32  and  C_33
REMARK   33  A    between atoms: C_33  and  O_34
REMARK   34  A    between atoms: O_34  and  C_35
REMARK   35  A    between atoms: C_35  and  C_36
REMARK   36  A    between atoms: C_36  and  O_37
REMARK   37  A    between atoms: O_37  and  C_38
REMARK   38  A    between atoms: C_38  and  C_39
REMARK   39  A    between atoms: C_39  and  O_40
REMARK                            x       y       z     vdW  Elec       q    Type
REMARK                         _______ _______ _______ _____ _____    ______ ____
ROOT
ATOM      1  C   UNL     1      -5.077   1.779 126.605  0.00  0.00    +0.000 C 
ENDROOT
BRANCH   1   2
ATOM      2  O   UNL     1      -4.099   2.407 127.425  0.00  0.00    +0.000 OA
BRANCH   2   3
ATOM      3  C   UNL     1      -3.525   3.527 126.759  0.00  0.00    +0.000 C 
BRANCH   3   4
ATOM      4  C   UNL     1      -2.563   4.218 127.707  0.00  0.00    +0.000 C 
BRANCH   4   5
ATOM      5  O   UNL     1      -3.125   4.213 129.014  0.00  0.00    +0.000 OA
BRANCH   5   6
ATOM      6  C   UNL     1      -3.059   5.510 129.595  0.00  0.00    +0.000 C 
BRANCH   6   7
ATOM      7  C   UNL     1      -4.127   6.384 128.961  0.00  0.00    +0.000 C 
BRANCH   7   8
ATOM      8  O   UNL     1      -5.247   6.444 129.836  0.00  0.00    +0.000 OA
BRANCH   8   9
ATOM      9  C   UNL     1      -4.827   6.420 131.196  0.00  0.00    +0.000 C 
BRANCH   9  10
ATOM     10  C   UNL     1      -6.045   6.225 132.081  0.00  0.00    +0.000 C 
BRANCH  10  11
ATOM     11  O   UNL     1      -7.164   5.909 131.259  0.00  0.00    +0.000 OA
BRANCH  11  12
ATOM     12  C   UNL     1      -8.381   6.084 131.975  0.00  0.00    +0.000 C 
BRANCH  12  13
ATOM     13  C   UNL     1      -9.528   5.575 131.120  0.00  0.00    +0.000 C 
BRANCH  13  14
ATOM     14  O   UNL     1     -10.580   6.535 131.141  0.00  0.00    +0.000 OA
BRANCH  14  15
ATOM     15  C   UNL     1     -10.596   7.291 129.934  0.00  0.00    +0.000 C 
BRANCH  15  16
ATOM     16  C   UNL     1     -11.950   7.968 129.798  0.00  0.00    +0.000 C 
BRANCH  16  17
ATOM     17  O   UNL     1     -12.108   8.436 128.460  0.00  0.00    +0.000 OA
BRANCH  17  18
ATOM     18  C   UNL     1     -10.900   8.280 127.723  0.00  0.00    +0.000 C 
BRANCH  18  19
ATOM     19  C   UNL     1     -11.191   7.580 126.403  0.00  0.00    +0.000 C 
BRANCH  19  20
ATOM     20  O   UNL     1     -10.319   6.469 126.223  0.00  0.00    +0.000 OA
ATOM     21  H   UNL     1     -10.609   5.772 126.829  0.00  0.00    +0.000 HD
ENDBRANCH  19  20
ENDBRANCH  18  19
ENDBRANCH  17  18
ENDBRANCH  16  17
ENDBRANCH  15  16
ENDBRANCH  14  15
ENDBRANCH  13  14
ENDBRANCH  12  13
ENDBRANCH  11  12
ENDBRANCH  10  11
ENDBRANCH   9  10
ENDBRANCH   8   9
ENDBRANCH   7   8
ENDBRANCH   6   7
ENDBRANCH   5   6
ENDBRANCH   4   5
ENDBRANCH   3   4
ENDBRANCH   2   3
ENDBRANCH   1   2
BRANCH   1  22
ATOM     22  C   UNL     1      -6.429   2.405 126.889  0.00  0.00    +0.000 C 
BRANCH  22  23
ATOM     23  O   UNL     1      -6.807   3.201 125.771  0.00  0.00    +0.000 OA
BRANCH  23  24
ATOM     24  C   UNL     1      -6.594   2.495 124.554  0.00  0.00    +0.000 C 
BRANCH  24  25
ATOM     25  C   UNL     1      -7.883   2.504 123.755  0.00  0.00    +0.000 C 
BRANCH  25  26
ATOM     26  O   UNL     1      -8.754   1.508 124.278  0.00  0.00    +0.000 OA
BRANCH  26  27
ATOM     27  C   UNL     1     -10.009   1.534 123.607  0.00  0.00    +0.000 C 
BRANCH  27  28
ATOM     28  C   UNL     1     -10.114   0.302 122.733  0.00  0.00    +0.000 C 
BRANCH  28  29
ATOM     29  O   UNL     1      -9.586  -0.813 123.442  0.00  0.00    +0.000 OA
BRANCH  29  30
ATOM     30  C   UNL     1      -8.604  -1.473 122.656  0.00  0.00    +0.000 C 
BRANCH  30  31
ATOM     31  C   UNL     1      -7.814  -2.403 123.554  0.00  0.00    +0.000 C 
BRANCH  31  32
ATOM     32  C   UNL     1      -7.137  -1.599 124.650  0.00  0.00    +0.000 C 
BRANCH  32  33
ATOM     33  C   UNL     1      -7.015  -2.418 125.920  0.00  0.00    +0.000 C 
BRANCH  33  34
ATOM     34  C   UNL     1      -8.225  -2.180 126.808  0.00  0.00    +0.000 C 
BRANCH  34  35
ATOM     35  C   UNL     1      -9.012  -3.468 126.974  0.00  0.00    +0.000 C 
BRANCH  35  36
ATOM     36  C   UNL     1      -8.797  -4.038 128.365  0.00  0.00    +0.000 C 
BRANCH  36  37
ATOM     37  C   UNL     1      -8.129  -3.003 129.255  0.00  0.00    +0.000 C 
BRANCH  37  38
ATOM     38  C   UNL     1      -6.864  -3.579 129.873  0.00  0.00    +0.000 C 
BRANCH  38  39
ATOM     39  C   UNL     1      -5.655  -2.744 129.476  0.00  0.00    +0.000 C 
BRANCH  39  41
ATOM     40  C   UNL     1      -3.165  -2.913 129.596  0.00  0.00    +0.000 C 
ATOM     41  C   UNL     1      -4.446  -3.635 129.223  0.00  0.00    +0.000 C 
ENDBRANCH  39  41
ENDBRANCH  38  39
ENDBRANCH  37  38
ENDBRANCH  36  37
ENDBRANCH  35  36
ENDBRANCH  34  35
ENDBRANCH  33  34
ENDBRANCH  32  33
ENDBRANCH  31  32
ENDBRANCH  30  31
ENDBRANCH  29  30
ENDBRANCH  28  29
ENDBRANCH  27  28
ENDBRANCH  26  27
ENDBRANCH  25  26
ENDBRANCH  24  25
ENDBRANCH  23  24
ENDBRANCH  22  23
ENDBRANCH   1  22
TORSDOF 38
ENDMDL
MODEL 8
REMARK VINA RESULT:      -4.6      2.345      4.300
REMARK  Name = Polidocanol
REMARK  39 active torsions:
REMARK  status: ('A' for Active; 'I' for Inactive)
REMARK    1  A    between atoms: C_1  and  C_2
REMARK    2  A    between atoms: C_2  and  C_3
REMARK    3  A    between atoms: C_3  and  C_4
REMARK    4  A    between atoms: C_4  and  C_5
REMARK    5  A    between atoms: C_5  and  C_6
REMARK    6  A    between atoms: C_6  and  C_7
REMARK    7  A    between atoms: C_7  and  C_8
REMARK    8  A    between atoms: C_8  and  C_9
REMARK    9  A    between atoms: C_9  and  C_10
REMARK   10  A    between atoms: C_10  and  C_11
REMARK   11  A    between atoms: C_11  and  C_12
REMARK   12  A    between atoms: C_12  and  O_13
REMARK   13  A    between atoms: O_13  and  C_14
REMARK   14  A    between atoms: C_14  and  C_15
REMARK   15  A    between atoms: C_15  and  O_16
REMARK   16  A    between atoms: O_16  and  C_17
REMARK   17  A    between atoms: C_17  and  C_18
REMARK   18  A    between atoms: C_18  and  O_19
REMARK   19  A    between atoms: O_19  and  C_20
REMARK   20  A    between atoms: C_20  and  C_21
REMARK   21  A    between atoms: C_21  and  O_22
REMARK   22  A    between atoms: O_22  and  C_23
REMARK   23  A    between atoms: C_23  and  C_24
REMARK   24  A    between atoms: C_24  and  O_25
REMARK   25  A    between atoms: O_25  and  C_26
REMARK   26  A    between atoms: C_26  and  C_27
REMARK   27  A    between atoms: C_27  and  O_28
REMARK   28  A    between atoms: O_28  and  C_29
REMARK   29  A    between atoms: C_29  and  C_30
REMARK   30  A    between atoms: C_30  and  O_31
REMARK   31  A    between atoms: O_31  and  C_32
REMARK   32  A    between atoms: C_32  and  C_33
REMARK   33  A    between atoms: C_33  and  O_34
REMARK   34  A    between atoms: O_34  and  C_35
REMARK   35  A    between atoms: C_35  and  C_36
REMARK   36  A    between atoms: C_36  and  O_37
REMARK   37  A    between atoms: O_37  and  C_38
REMARK   38  A    between atoms: C_38  and  C_39
REMARK   39  A    between atoms: C_39  and  O_40
REMARK                            x       y       z     vdW  Elec       q    Type
REMARK                         _______ _______ _______ _____ _____    ______ ____
ROOT
ATOM      1  C   UNL     1      -5.711   3.179 126.992  0.00  0.00    +0.000 C 
ENDROOT
BRANCH   1   2
ATOM      2  O   UNL     1      -4.753   4.117 127.469  0.00  0.00    +0.000 OA
BRANCH   2   3
ATOM      3  C   UNL     1      -3.482   3.889 126.870  0.00  0.00    +0.000 C 
BRANCH   3   4
ATOM      4  C   UNL     1      -2.476   4.845 127.483  0.00  0.00    +0.000 C 
BRANCH   4   5
ATOM      5  O   UNL     1      -3.093   5.523 128.572  0.00  0.00    +0.000 OA
BRANCH   5   6
ATOM      6  C   UNL     1      -2.173   6.408 129.201  0.00  0.00    +0.000 C 
BRANCH   6   7
ATOM      7  C   UNL     1      -2.041   6.018 130.661  0.00  0.00    +0.000 C 
BRANCH   7   8
ATOM      8  O   UNL     1      -2.362   7.146 131.467  0.00  0.00    +0.000 OA
BRANCH   8   9
ATOM      9  C   UNL     1      -3.745   7.149 131.801  0.00  0.00    +0.000 C 
BRANCH   9  10
ATOM     10  C   UNL     1      -4.149   5.748 132.225  0.00  0.00    +0.000 C 
BRANCH  10  11
ATOM     11  O   UNL     1      -5.349   5.392 131.547  0.00  0.00    +0.000 OA
BRANCH  11  12
ATOM     12  C   UNL     1      -5.699   4.039 131.816  0.00  0.00    +0.000 C 
BRANCH  12  13
ATOM     13  C   UNL     1      -6.406   3.465 130.602  0.00  0.00    +0.000 C 
BRANCH  13  14
ATOM     14  O   UNL     1      -7.676   2.961 131.004  0.00  0.00    +0.000 OA
BRANCH  14  15
ATOM     15  C   UNL     1      -8.636   3.127 129.965  0.00  0.00    +0.000 C 
BRANCH  15  16
ATOM     16  C   UNL     1     -10.029   2.993 130.558  0.00  0.00    +0.000 C 
BRANCH  16  17
ATOM     17  O   UNL     1     -10.274   4.090 131.435  0.00  0.00    +0.000 OA
BRANCH  17  18
ATOM     18  C   UNL     1     -10.189   5.326 130.734  0.00  0.00    +0.000 C 
BRANCH  18  19
ATOM     19  C   UNL     1     -10.682   6.457 131.626  0.00  0.00    +0.000 C 
BRANCH  19  20
ATOM     20  O   UNL     1     -10.158   6.322 132.942  0.00  0.00    +0.000 OA
ATOM     21  H   UNL     1      -9.534   5.581 132.932  0.00  0.00    +0.000 HD
ENDBRANCH  19  20
ENDBRANCH  18  19
ENDBRANCH  17  18
ENDBRANCH  16  17
ENDBRANCH  15  16
ENDBRANCH  14  15
ENDBRANCH  13  14
ENDBRANCH  12  13
ENDBRANCH  11  12
ENDBRANCH  10  11
ENDBRANCH   9  10
ENDBRANCH   8   9
ENDBRANCH   7   8
ENDBRANCH   6   7
ENDBRANCH   5   6
ENDBRANCH   4   5
ENDBRANCH   3   4
ENDBRANCH   2   3
ENDBRANCH   1   2
BRANCH   1  22
ATOM     22  C   UNL     1      -4.998   2.142 126.144  0.00  0.00    +0.000 C 
BRANCH  22  23
ATOM     23  O   UNL     1      -5.124   0.872 126.774  0.00  0.00    +0.000 OA
BRANCH  23  24
ATOM     24  C   UNL     1      -6.203   0.875 127.703  0.00  0.00    +0.000 C 
BRANCH  24  25
ATOM     25  C   UNL     1      -5.850  -0.035 128.863  0.00  0.00    +0.000 C 
BRANCH  25  26
ATOM     26  O   UNL     1      -6.916  -0.012 129.805  0.00  0.00    +0.000 OA
BRANCH  26  27
ATOM     27  C   UNL     1      -6.640  -0.880 130.898  0.00  0.00    +0.000 C 
BRANCH  27  28
ATOM     28  C   UNL     1      -7.813  -1.822 131.075  0.00  0.00    +0.000 C 
BRANCH  28  29
ATOM     29  O   UNL     1      -7.340  -3.163 131.014  0.00  0.00    +0.000 OA
BRANCH  29  30
ATOM     30  C   UNL     1      -7.034  -3.513 129.671  0.00  0.00    +0.000 C 
BRANCH  30  31
ATOM     31  C   UNL     1      -8.320  -3.509 128.870  0.00  0.00    +0.000 C 
BRANCH  31  32
ATOM     32  C   UNL     1      -8.105  -2.758 127.567  0.00  0.00    +0.000 C 
BRANCH  32  33
ATOM     33  C   UNL     1      -8.671  -3.541 126.397  0.00  0.00    +0.000 C 
BRANCH  33  34
ATOM     34  C   UNL     1      -9.149  -2.585 125.317  0.00  0.00    +0.000 C 
BRANCH  34  35
ATOM     35  C   UNL     1      -9.361  -3.335 124.013  0.00  0.00    +0.000 C 
BRANCH  35  36
ATOM     36  C   UNL     1      -8.702  -2.588 122.867  0.00  0.00    +0.000 C 
BRANCH  36  37
ATOM     37  C   UNL     1      -7.810  -1.483 123.408  0.00  0.00    +0.000 C 
BRANCH  37  38
ATOM     38  C   UNL     1      -6.380  -1.679 122.927  0.00  0.00    +0.000 C 
BRANCH  38  39
ATOM     39  C   UNL     1      -5.561  -2.400 123.988  0.00  0.00    +0.000 C 
BRANCH  39  41
ATOM     40  C   UNL     1      -4.568  -4.681 123.751  0.00  0.00    +0.000 C 
ATOM     41  C   UNL     1      -4.453  -3.224 123.345  0.00  0.00    +0.000 C 
ENDBRANCH  39  41
ENDBRANCH  38  39
ENDBRANCH  37  38
ENDBRANCH  36  37
ENDBRANCH  35  36
ENDBRANCH  34  35
ENDBRANCH  33  34
ENDBRANCH  32  33
ENDBRANCH  31  32
ENDBRANCH  30  31
ENDBRANCH  29  30
ENDBRANCH  28  29
ENDBRANCH  27  28
ENDBRANCH  26  27
ENDBRANCH  25  26
ENDBRANCH  24  25
ENDBRANCH  23  24
ENDBRANCH  22  23
ENDBRANCH   1  22
TORSDOF 38
ENDMDL
MODEL 9
REMARK VINA RESULT:      -4.5      2.000      4.479
REMARK  Name = Polidocanol
REMARK  39 active torsions:
REMARK  status: ('A' for Active; 'I' for Inactive)
REMARK    1  A    between atoms: C_1  and  C_2
REMARK    2  A    between atoms: C_2  and  C_3
REMARK    3  A    between atoms: C_3  and  C_4
REMARK    4  A    between atoms: C_4  and  C_5
REMARK    5  A    between atoms: C_5  and  C_6
REMARK    6  A    between atoms: C_6  and  C_7
REMARK    7  A    between atoms: C_7  and  C_8
REMARK    8  A    between atoms: C_8  and  C_9
REMARK    9  A    between atoms: C_9  and  C_10
REMARK   10  A    between atoms: C_10  and  C_11
REMARK   11  A    between atoms: C_11  and  C_12
REMARK   12  A    between atoms: C_12  and  O_13
REMARK   13  A    between atoms: O_13  and  C_14
REMARK   14  A    between atoms: C_14  and  C_15
REMARK   15  A    between atoms: C_15  and  O_16
REMARK   16  A    between atoms: O_16  and  C_17
REMARK   17  A    between atoms: C_17  and  C_18
REMARK   18  A    between atoms: C_18  and  O_19
REMARK   19  A    between atoms: O_19  and  C_20
REMARK   20  A    between atoms: C_20  and  C_21
REMARK   21  A    between atoms: C_21  and  O_22
REMARK   22  A    between atoms: O_22  and  C_23
REMARK   23  A    between atoms: C_23  and  C_24
REMARK   24  A    between atoms: C_24  and  O_25
REMARK   25  A    between atoms: O_25  and  C_26
REMARK   26  A    between atoms: C_26  and  C_27
REMARK   27  A    between atoms: C_27  and  O_28
REMARK   28  A    between atoms: O_28  and  C_29
REMARK   29  A    between atoms: C_29  and  C_30
REMARK   30  A    between atoms: C_30  and  O_31
REMARK   31  A    between atoms: O_31  and  C_32
REMARK   32  A    between atoms: C_32  and  C_33
REMARK   33  A    between atoms: C_33  and  O_34
REMARK   34  A    between atoms: O_34  and  C_35
REMARK   35  A    between atoms: C_35  and  C_36
REMARK   36  A    between atoms: C_36  and  O_37
REMARK   37  A    between atoms: O_37  and  C_38
REMARK   38  A    between atoms: C_38  and  C_39
REMARK   39  A    between atoms: C_39  and  O_40
REMARK                            x       y       z     vdW  Elec       q    Type
REMARK                         _______ _______ _______ _____ _____    ______ ____
ROOT
ATOM      1  C   UNL     1      -3.948   7.397 131.218  0.00  0.00    +0.000 C 
ENDROOT
BRANCH   1   2
ATOM      2  O   UNL     1      -2.935   7.202 130.237  0.00  0.00    +0.000 OA
BRANCH   2   3
ATOM      3  C   UNL     1      -3.508   6.840 128.986  0.00  0.00    +0.000 C 
BRANCH   3   4
ATOM      4  C   UNL     1      -2.445   6.165 128.140  0.00  0.00    +0.000 C 
BRANCH   4   5
ATOM      5  O   UNL     1      -2.543   4.757 128.322  0.00  0.00    +0.000 OA
BRANCH   5   6
ATOM      6  C   UNL     1      -2.610   4.090 127.066  0.00  0.00    +0.000 C 
BRANCH   6   7
ATOM      7  C   UNL     1      -4.016   4.235 126.512  0.00  0.00    +0.000 C 
BRANCH   7   8
ATOM      8  O   UNL     1      -4.948   3.961 127.552  0.00  0.00    +0.000 OA
BRANCH   8   9
ATOM      9  C   UNL     1      -6.033   3.180 127.063  0.00  0.00    +0.000 C 
BRANCH   9  10
ATOM     10  C   UNL     1      -7.168   4.110 126.674  0.00  0.00    +0.000 C 
BRANCH  10  11
ATOM     11  O   UNL     1      -7.792   4.593 127.859  0.00  0.00    +0.000 OA
BRANCH  11  12
ATOM     12  C   UNL     1      -8.168   3.514 128.708  0.00  0.00    +0.000 C 
BRANCH  12  13
ATOM     13  C   UNL     1      -8.998   4.060 129.855  0.00  0.00    +0.000 C 
BRANCH  13  14
ATOM     14  O   UNL     1      -9.967   4.965 129.334  0.00  0.00    +0.000 OA
BRANCH  14  15
ATOM     15  C   UNL     1     -10.659   5.625 130.388  0.00  0.00    +0.000 C 
BRANCH  15  16
ATOM     16  C   UNL     1     -11.787   6.451 129.793  0.00  0.00    +0.000 C 
BRANCH  16  17
ATOM     17  O   UNL     1     -11.235   7.556 129.081  0.00  0.00    +0.000 OA
BRANCH  17  18
ATOM     18  C   UNL     1     -11.857   7.701 127.810  0.00  0.00    +0.000 C 
BRANCH  18  19
ATOM     19  C   UNL     1     -10.812   7.581 126.710  0.00  0.00    +0.000 C 
BRANCH  19  20
ATOM     20  O   UNL     1      -9.940   6.485 126.965  0.00  0.00    +0.000 OA
ATOM     21  H   UNL     1     -10.487   5.738 127.249  0.00  0.00    +0.000 HD
ENDBRANCH  19  20
ENDBRANCH  18  19
ENDBRANCH  17  18
ENDBRANCH  16  17
ENDBRANCH  15  16
ENDBRANCH  14  15
ENDBRANCH  13  14
ENDBRANCH  12  13
ENDBRANCH  11  12
ENDBRANCH  10  11
ENDBRANCH   9  10
ENDBRANCH   8   9
ENDBRANCH   7   8
ENDBRANCH   6   7
ENDBRANCH   5   6
ENDBRANCH   4   5
ENDBRANCH   3   4
ENDBRANCH   2   3
ENDBRANCH   1   2
BRANCH   1  22
ATOM     22  C   UNL     1      -5.132   6.511 130.880  0.00  0.00    +0.000 C 
BRANCH  22  23
ATOM     23  O   UNL     1      -5.122   5.384 131.749  0.00  0.00    +0.000 OA
BRANCH  23  24
ATOM     24  C   UNL     1      -5.339   4.182 131.018  0.00  0.00    +0.000 C 
BRANCH  24  25
ATOM     25  C   UNL     1      -4.064   3.362 131.040  0.00  0.00    +0.000 C 
BRANCH  25  26
ATOM     26  O   UNL     1      -4.394   1.997 130.806  0.00  0.00    +0.000 OA
BRANCH  26  27
ATOM     27  C   UNL     1      -5.805   1.822 130.754  0.00  0.00    +0.000 C 
BRANCH  27  28
ATOM     28  C   UNL     1      -6.104   0.519 130.041  0.00  0.00    +0.000 C 
BRANCH  28  29
ATOM     29  O   UNL     1      -5.143   0.328 129.008  0.00  0.00    +0.000 OA
BRANCH  29  30
ATOM     30  C   UNL     1      -5.478  -0.815 128.234  0.00  0.00    +0.000 C 
BRANCH  30  31
ATOM     31  C   UNL     1      -6.113  -1.844 129.148  0.00  0.00    +0.000 C 
BRANCH  31  32
ATOM     32  C   UNL     1      -7.092  -2.693 128.356  0.00  0.00    +0.000 C 
BRANCH  32  33
ATOM     33  C   UNL     1      -7.570  -1.951 127.122  0.00  0.00    +0.000 C 
BRANCH  33  34
ATOM     34  C   UNL     1      -8.862  -2.569 126.614  0.00  0.00    +0.000 C 
BRANCH  34  35
ATOM     35  C   UNL     1      -8.555  -3.754 125.714  0.00  0.00    +0.000 C 
BRANCH  35  36
ATOM     36  C   UNL     1      -8.021  -3.270 124.377  0.00  0.00    +0.000 C 
BRANCH  36  37
ATOM     37  C   UNL     1      -9.170  -3.045 123.408  0.00  0.00    +0.000 C 
BRANCH  37  38
ATOM     38  C   UNL     1      -8.948  -1.764 122.619  0.00  0.00    +0.000 C 
BRANCH  38  39
ATOM     39  C   UNL     1      -8.110  -0.784 123.428  0.00  0.00    +0.000 C 
BRANCH  39  41
ATOM     40  C   UNL     1      -9.965   0.796 122.873  0.00  0.00    +0.000 C 
ATOM     41  C   UNL     1      -8.968   0.368 123.933  0.00  0.00    +0.000 C 
ENDBRANCH  39  41
ENDBRANCH  38  39
ENDBRANCH  37  38
ENDBRANCH  36  37
ENDBRANCH  35  36
ENDBRANCH  34  35
ENDBRANCH  33  34
ENDBRANCH  32  33
ENDBRANCH  31  32
ENDBRANCH  30  31
ENDBRANCH  29  30
ENDBRANCH  28  29
ENDBRANCH  27  28
ENDBRANCH  26  27
ENDBRANCH  25  26
ENDBRANCH  24  25
ENDBRANCH  23  24
ENDBRANCH  22  23
ENDBRANCH   1  22
TORSDOF 38
ENDMDL
