MODEL 1
REMARK VINA RESULT:      -6.9      0.000      0.000
REMARK  Name = Polythiazide
REMARK  7 active torsions:
REMARK  status: ('A' for Active; 'I' for Inactive)
REMARK    1  A    between atoms: C_1  and  N_2
REMARK    2  A    between atoms: C_3  and  C_4
REMARK    3  A    between atoms: C_4  and  S_5
REMARK    4  A    between atoms: S_5  and  C_6
REMARK    5  A    between atoms: C_6  and  C_7
REMARK    6  A    between atoms: C_16  and  S_22
REMARK    7  A    between atoms: S_22  and  N_23
REMARK                            x       y       z     vdW  Elec       q    Type
REMARK                         _______ _______ _______ _____ _____    ______ ____
ROOT
ATOM      1  C   UNL     1     -10.802   3.461 130.666  0.00  0.00    +0.000 C 
ATOM      2  N   UNL     1      -9.675   4.378 130.939  0.00  0.00    +0.000 NA
ATOM      3  C   UNL     1      -9.942   5.835 130.821  0.00  0.00    +0.000 C 
ATOM      4  N   UNL     1      -8.763   6.537 131.367  0.00  0.00    +0.000 N 
ATOM      5  C   UNL     1      -7.481   6.245 130.908  0.00  0.00    +0.000 A 
ATOM      6  C   UNL     1      -6.398   7.118 131.087  0.00  0.00    +0.000 A 
ATOM      7  C   UNL     1      -5.091   6.815 130.606  0.00  0.00    +0.000 A 
ATOM      8 CL   UNL     1      -3.893   8.020 130.887  0.00  0.00    +0.000 Cl
ATOM      9  C   UNL     1      -4.848   5.614 129.943  0.00  0.00    +0.000 A 
ATOM     10  C   UNL     1      -5.909   4.740 129.747  0.00  0.00    +0.000 A 
ATOM     11  C   UNL     1      -7.179   5.079 130.217  0.00  0.00    +0.000 A 
ATOM     12  S   UNL     1      -8.428   3.928 129.888  0.00  0.00    +0.000 S 
ATOM     13  O   UNL     1      -7.947   2.630 130.312  0.00  0.00    +0.000 OA
ATOM     14  O   UNL     1      -8.871   4.164 128.532  0.00  0.00    +0.000 OA
ATOM     15  H   UNL     1      -8.906   7.354 131.952  0.00  0.00    +0.000 HD
ENDROOT
BRANCH   9  16
ATOM     16  S   UNL     1      -3.297   5.092 129.262  0.00  0.00    +0.000 S 
ATOM     17  O   UNL     1      -2.289   5.318 130.263  0.00  0.00    +0.000 OA
ATOM     18  O   UNL     1      -3.434   3.834 128.562  0.00  0.00    +0.000 OA
BRANCH  16  19
ATOM     19  N   UNL     1      -3.073   6.243 128.075  0.00  0.00    +0.000 NA
ATOM     20  H   UNL     1      -3.297   5.992 127.116  0.00  0.00    +0.000 HD
ATOM     21  H   UNL     1      -2.469   7.028 128.294  0.00  0.00    +0.000 HD
ENDBRANCH  16  19
ENDBRANCH   9  16
BRANCH   3  22
ATOM     22  C   UNL     1     -11.275   6.277 131.538  0.00  0.00    +0.000 C 
BRANCH  22  23
ATOM     23  S   UNL     1     -12.386   7.131 130.323  0.00  0.00    +0.000 S 
BRANCH  23  24
ATOM     24  C   UNL     1     -11.555   6.955 128.701  0.00  0.00    +0.000 C 
BRANCH  24  25
ATOM     25  C   UNL     1     -11.017   8.314 128.234  0.00  0.00    +0.000 C 
ATOM     26  F   UNL     1     -10.863   8.368 126.892  0.00  0.00    +0.000 F 
ATOM     27  F   UNL     1     -11.837   9.328 128.598  0.00  0.00    +0.000 F 
ATOM     28  F   UNL     1      -9.804   8.563 128.782  0.00  0.00    +0.000 F 
ENDBRANCH  24  25
ENDBRANCH  23  24
ENDBRANCH  22  23
ENDBRANCH   3  22
TORSDOF 6
ENDMDL
MODEL 2
REMARK VINA RESULT:      -6.9      4.959      6.916
REMARK  Name = Polythiazide
REMARK  7 active torsions:
REMARK  status: ('A' for Active; 'I' for Inactive)
REMARK    1  A    between atoms: C_1  and  N_2
REMARK    2  A    between atoms: C_3  and  C_4
REMARK    3  A    between atoms: C_4  and  S_5
REMARK    4  A    between atoms: S_5  and  C_6
REMARK    5  A    between atoms: C_6  and  C_7
REMARK    6  A    between atoms: C_16  and  S_22
REMARK    7  A    between atoms: S_22  and  N_23
REMARK                            x       y       z     vdW  Elec       q    Type
REMARK                         _______ _______ _______ _____ _____    ______ ____
ROOT
ATOM      1  C   UNL     1      -5.301   5.300 133.043  0.00  0.00    +0.000 C 
ATOM      2  N   UNL     1      -6.710   5.734 132.943  0.00  0.00    +0.000 NA
ATOM      3  C   UNL     1      -7.711   4.982 133.744  0.00  0.00    +0.000 C 
ATOM      4  N   UNL     1      -8.978   5.736 133.673  0.00  0.00    +0.000 N 
ATOM      5  C   UNL     1      -9.525   6.103 132.445  0.00  0.00    +0.000 A 
ATOM      6  C   UNL     1     -10.873   6.457 132.295  0.00  0.00    +0.000 A 
ATOM      7  C   UNL     1     -11.426   6.823 131.033  0.00  0.00    +0.000 A 
ATOM      8 CL   UNL     1     -13.108   7.193 131.032  0.00  0.00    +0.000 Cl
ATOM      9  C   UNL     1     -10.621   6.850 129.895  0.00  0.00    +0.000 A 
ATOM     10  C   UNL     1      -9.285   6.494 130.022  0.00  0.00    +0.000 A 
ATOM     11  C   UNL     1      -8.784   6.125 131.271  0.00  0.00    +0.000 A 
ATOM     12  S   UNL     1      -7.114   5.671 131.301  0.00  0.00    +0.000 S 
ATOM     13  O   UNL     1      -6.368   6.713 130.628  0.00  0.00    +0.000 OA
ATOM     14  O   UNL     1      -7.045   4.292 130.870  0.00  0.00    +0.000 OA
ATOM     15  H   UNL     1      -9.538   5.835 134.514  0.00  0.00    +0.000 HD
ENDROOT
BRANCH   9  16
ATOM     16  S   UNL     1     -11.147   7.255 128.252  0.00  0.00    +0.000 S 
ATOM     17  O   UNL     1     -12.309   6.457 127.963  0.00  0.00    +0.000 OA
ATOM     18  O   UNL     1     -11.107   8.683 128.030  0.00  0.00    +0.000 OA
BRANCH  16  19
ATOM     19  N   UNL     1      -9.888   6.626 127.356  0.00  0.00    +0.000 NA
ATOM     20  H   UNL     1     -10.115   6.027 126.567  0.00  0.00    +0.000 HD
ATOM     21  H   UNL     1      -8.969   6.620 127.783  0.00  0.00    +0.000 HD
ENDBRANCH  16  19
ENDBRANCH   9  16
BRANCH   3  22
ATOM     22  C   UNL     1      -7.252   4.741 135.233  0.00  0.00    +0.000 C 
BRANCH  22  23
ATOM     23  S   UNL     1      -6.870   6.367 136.041  0.00  0.00    +0.000 S 
BRANCH  23  24
ATOM     24  C   UNL     1      -8.113   6.551 137.371  0.00  0.00    +0.000 C 
BRANCH  24  25
ATOM     25  C   UNL     1      -8.533   8.021 137.502  0.00  0.00    +0.000 C 
ATOM     26  F   UNL     1      -9.151   8.273 138.678  0.00  0.00    +0.000 F 
ATOM     27  F   UNL     1      -7.469   8.853 137.407  0.00  0.00    +0.000 F 
ATOM     28  F   UNL     1      -9.398   8.362 136.519  0.00  0.00    +0.000 F 
ENDBRANCH  24  25
ENDBRANCH  23  24
ENDBRANCH  22  23
ENDBRANCH   3  22
TORSDOF 6
ENDMDL
MODEL 3
REMARK VINA RESULT:      -6.8      4.560      6.827
REMARK  Name = Polythiazide
REMARK  7 active torsions:
REMARK  status: ('A' for Active; 'I' for Inactive)
REMARK    1  A    between atoms: C_1  and  N_2
REMARK    2  A    between atoms: C_3  and  C_4
REMARK    3  A    between atoms: C_4  and  S_5
REMARK    4  A    between atoms: S_5  and  C_6
REMARK    5  A    between atoms: C_6  and  C_7
REMARK    6  A    between atoms: C_16  and  S_22
REMARK    7  A    between atoms: S_22  and  N_23
REMARK                            x       y       z     vdW  Elec       q    Type
REMARK                         _______ _______ _______ _____ _____    ______ ____
ROOT
ATOM      1  C   UNL     1      -5.476   5.625 132.469  0.00  0.00    +0.000 C 
ATOM      2  N   UNL     1      -6.923   5.927 132.485  0.00  0.00    +0.000 NA
ATOM      3  C   UNL     1      -7.828   4.880 133.026  0.00  0.00    +0.000 C 
ATOM      4  N   UNL     1      -9.165   5.492 133.164  0.00  0.00    +0.000 N 
ATOM      5  C   UNL     1      -9.769   6.140 132.090  0.00  0.00    +0.000 A 
ATOM      6  C   UNL     1     -11.148   6.386 132.035  0.00  0.00    +0.000 A 
ATOM      7  C   UNL     1     -11.760   7.043 130.927  0.00  0.00    +0.000 A 
ATOM      8 CL   UNL     1     -13.470   7.228 131.018  0.00  0.00    +0.000 Cl
ATOM      9  C   UNL     1     -10.985   7.477 129.853  0.00  0.00    +0.000 A 
ATOM     10  C   UNL     1      -9.617   7.235 129.884  0.00  0.00    +0.000 A 
ATOM     11  C   UNL     1      -9.058   6.573 130.979  0.00  0.00    +0.000 A 
ATOM     12  S   UNL     1      -7.351   6.300 130.892  0.00  0.00    +0.000 S 
ATOM     13  O   UNL     1      -6.725   7.561 130.554  0.00  0.00    +0.000 OA
ATOM     14  O   UNL     1      -7.155   5.118 130.081  0.00  0.00    +0.000 OA
ATOM     15  H   UNL     1      -9.714   5.288 133.992  0.00  0.00    +0.000 HD
ENDROOT
BRANCH   9  16
ATOM     16  S   UNL     1     -11.581   8.283 128.393  0.00  0.00    +0.000 S 
ATOM     17  O   UNL     1     -12.566   9.248 128.804  0.00  0.00    +0.000 OA
ATOM     18  O   UNL     1     -10.493   8.611 127.498  0.00  0.00    +0.000 OA
BRANCH  16  19
ATOM     19  N   UNL     1     -12.404   7.031 127.658  0.00  0.00    +0.000 NA
ATOM     20  H   UNL     1     -12.067   6.083 127.809  0.00  0.00    +0.000 HD
ATOM     21  H   UNL     1     -13.010   7.263 126.879  0.00  0.00    +0.000 HD
ENDBRANCH  16  19
ENDBRANCH   9  16
BRANCH   3  22
ATOM     22  C   UNL     1      -7.318   4.267 134.386  0.00  0.00    +0.000 C 
BRANCH  22  23
ATOM     23  S   UNL     1      -6.790   2.509 134.122  0.00  0.00    +0.000 S 
BRANCH  23  24
ATOM     24  C   UNL     1      -7.128   2.163 132.357  0.00  0.00    +0.000 C 
BRANCH  24  25
ATOM     25  C   UNL     1      -8.461   1.415 132.211  0.00  0.00    +0.000 C 
ATOM     26  F   UNL     1      -8.363   0.119 132.584  0.00  0.00    +0.000 F 
ATOM     27  F   UNL     1      -9.437   1.987 132.955  0.00  0.00    +0.000 F 
ATOM     28  F   UNL     1      -8.878   1.427 130.924  0.00  0.00    +0.000 F 
ENDBRANCH  24  25
ENDBRANCH  23  24
ENDBRANCH  22  23
ENDBRANCH   3  22
TORSDOF 6
ENDMDL
MODEL 4
REMARK VINA RESULT:      -6.7      4.128      6.595
REMARK  Name = Polythiazide
REMARK  7 active torsions:
REMARK  status: ('A' for Active; 'I' for Inactive)
REMARK    1  A    between atoms: C_1  and  N_2
REMARK    2  A    between atoms: C_3  and  C_4
REMARK    3  A    between atoms: C_4  and  S_5
REMARK    4  A    between atoms: S_5  and  C_6
REMARK    5  A    between atoms: C_6  and  C_7
REMARK    6  A    between atoms: C_16  and  S_22
REMARK    7  A    between atoms: S_22  and  N_23
REMARK                            x       y       z     vdW  Elec       q    Type
REMARK                         _______ _______ _______ _____ _____    ______ ____
ROOT
ATOM      1  C   UNL     1      -6.735   2.869 130.725  0.00  0.00    +0.000 C 
ATOM      2  N   UNL     1      -7.790   3.835 131.098  0.00  0.00    +0.000 NA
ATOM      3  C   UNL     1      -8.775   3.403 132.123  0.00  0.00    +0.000 C 
ATOM      4  N   UNL     1      -9.561   4.595 132.498  0.00  0.00    +0.000 N 
ATOM      5  C   UNL     1     -10.189   5.372 131.528  0.00  0.00    +0.000 A 
ATOM      6  C   UNL     1     -11.239   6.251 131.828  0.00  0.00    +0.000 A 
ATOM      7  C   UNL     1     -11.883   7.035 130.827  0.00  0.00    +0.000 A 
ATOM      8 CL   UNL     1     -13.176   8.033 131.374  0.00  0.00    +0.000 Cl
ATOM      9  C   UNL     1     -11.468   6.956 129.499  0.00  0.00    +0.000 A 
ATOM     10  C   UNL     1     -10.435   6.084 129.179  0.00  0.00    +0.000 A 
ATOM     11  C   UNL     1      -9.842   5.319 130.185  0.00  0.00    +0.000 A 
ATOM     12  S   UNL     1      -8.588   4.247 129.664  0.00  0.00    +0.000 S 
ATOM     13  O   UNL     1      -7.665   5.016 128.856  0.00  0.00    +0.000 OA
ATOM     14  O   UNL     1      -9.236   3.060 129.149  0.00  0.00    +0.000 OA
ATOM     15  H   UNL     1      -9.786   4.746 133.476  0.00  0.00    +0.000 HD
ENDROOT
BRANCH   9  16
ATOM     16  S   UNL     1     -12.169   7.837 128.131  0.00  0.00    +0.000 S 
ATOM     17  O   UNL     1     -12.499   6.869 127.118  0.00  0.00    +0.000 OA
ATOM     18  O   UNL     1     -13.106   8.842 128.584  0.00  0.00    +0.000 OA
BRANCH  16  19
ATOM     19  N   UNL     1     -10.837   8.680 127.585  0.00  0.00    +0.000 NA
ATOM     20  H   UNL     1     -10.018   8.721 128.185  0.00  0.00    +0.000 HD
ATOM     21  H   UNL     1     -10.981   9.344 126.833  0.00  0.00    +0.000 HD
ENDBRANCH  16  19
ENDBRANCH   9  16
BRANCH   3  22
ATOM     22  C   UNL     1      -8.100   2.725 133.377  0.00  0.00    +0.000 C 
BRANCH  22  23
ATOM     23  S   UNL     1      -7.476   4.032 134.535  0.00  0.00    +0.000 S 
BRANCH  23  24
ATOM     24  C   UNL     1      -5.723   4.290 134.074  0.00  0.00    +0.000 C 
BRANCH  24  25
ATOM     25  C   UNL     1      -5.557   5.641 133.366  0.00  0.00    +0.000 C 
ATOM     26  F   UNL     1      -4.911   6.545 134.136  0.00  0.00    +0.000 F 
ATOM     27  F   UNL     1      -4.867   5.515 132.208  0.00  0.00    +0.000 F 
ATOM     28  F   UNL     1      -6.763   6.173 133.059  0.00  0.00    +0.000 F 
ENDBRANCH  24  25
ENDBRANCH  23  24
ENDBRANCH  22  23
ENDBRANCH   3  22
TORSDOF 6
ENDMDL
MODEL 5
REMARK VINA RESULT:      -6.6      6.336      7.897
REMARK  Name = Polythiazide
REMARK  7 active torsions:
REMARK  status: ('A' for Active; 'I' for Inactive)
REMARK    1  A    between atoms: C_1  and  N_2
REMARK    2  A    between atoms: C_3  and  C_4
REMARK    3  A    between atoms: C_4  and  S_5
REMARK    4  A    between atoms: S_5  and  C_6
REMARK    5  A    between atoms: C_6  and  C_7
REMARK    6  A    between atoms: C_16  and  S_22
REMARK    7  A    between atoms: S_22  and  N_23
REMARK                            x       y       z     vdW  Elec       q    Type
REMARK                         _______ _______ _______ _____ _____    ______ ____
ROOT
ATOM      1  C   UNL     1      -6.435   2.887 124.572  0.00  0.00    +0.000 C 
ATOM      2  N   UNL     1      -6.877   2.629 125.959  0.00  0.00    +0.000 NA
ATOM      3  C   UNL     1      -7.844   1.520 126.168  0.00  0.00    +0.000 C 
ATOM      4  N   UNL     1      -7.943   1.301 127.624  0.00  0.00    +0.000 N 
ATOM      5  C   UNL     1      -8.229   2.356 128.488  0.00  0.00    +0.000 A 
ATOM      6  C   UNL     1      -8.714   2.156 129.789  0.00  0.00    +0.000 A 
ATOM      7  C   UNL     1      -9.012   3.242 130.663  0.00  0.00    +0.000 A 
ATOM      8 CL   UNL     1      -9.631   2.808 132.211  0.00  0.00    +0.000 Cl
ATOM      9  C   UNL     1      -8.814   4.556 130.243  0.00  0.00    +0.000 A 
ATOM     10  C   UNL     1      -8.343   4.775 128.955  0.00  0.00    +0.000 A 
ATOM     11  C   UNL     1      -8.079   3.686 128.122  0.00  0.00    +0.000 A 
ATOM     12  S   UNL     1      -7.527   4.082 126.531  0.00  0.00    +0.000 S 
ATOM     13  O   UNL     1      -6.436   5.024 126.670  0.00  0.00    +0.000 OA
ATOM     14  O   UNL     1      -8.700   4.395 125.744  0.00  0.00    +0.000 OA
ATOM     15  H   UNL     1      -7.975   0.350 127.976  0.00  0.00    +0.000 HD
ENDROOT
BRANCH   9  16
ATOM     16  S   UNL     1      -9.155   6.017 131.187  0.00  0.00    +0.000 S 
ATOM     17  O   UNL     1     -10.581   6.096 131.358  0.00  0.00    +0.000 OA
ATOM     18  O   UNL     1      -8.228   6.152 132.288  0.00  0.00    +0.000 OA
BRANCH  16  19
ATOM     19  N   UNL     1      -8.728   7.202 130.093  0.00  0.00    +0.000 NA
ATOM     20  H   UNL     1      -7.750   7.279 129.828  0.00  0.00    +0.000 HD
ATOM     21  H   UNL     1      -9.380   7.966 129.955  0.00  0.00    +0.000 HD
ENDBRANCH  16  19
ENDBRANCH   9  16
BRANCH   3  22
ATOM     22  C   UNL     1      -7.443   0.201 125.401  0.00  0.00    +0.000 C 
BRANCH  22  23
ATOM     23  S   UNL     1      -8.919  -0.471 124.500  0.00  0.00    +0.000 S 
BRANCH  23  24
ATOM     24  C   UNL     1      -8.331  -1.997 123.678  0.00  0.00    +0.000 C 
BRANCH  24  25
ATOM     25  C   UNL     1      -9.101  -3.213 124.210  0.00  0.00    +0.000 C 
ATOM     26  F   UNL     1      -9.985  -3.693 123.307  0.00  0.00    +0.000 F 
ATOM     27  F   UNL     1      -8.266  -4.223 124.549  0.00  0.00    +0.000 F 
ATOM     28  F   UNL     1      -9.806  -2.887 125.319  0.00  0.00    +0.000 F 
ENDBRANCH  24  25
ENDBRANCH  23  24
ENDBRANCH  22  23
ENDBRANCH   3  22
TORSDOF 6
ENDMDL
MODEL 6
REMARK VINA RESULT:      -6.5      8.425     10.019
REMARK  Name = Polythiazide
REMARK  7 active torsions:
REMARK  status: ('A' for Active; 'I' for Inactive)
REMARK    1  A    between atoms: C_1  and  N_2
REMARK    2  A    between atoms: C_3  and  C_4
REMARK    3  A    between atoms: C_4  and  S_5
REMARK    4  A    between atoms: S_5  and  C_6
REMARK    5  A    between atoms: C_6  and  C_7
REMARK    6  A    between atoms: C_16  and  S_22
REMARK    7  A    between atoms: S_22  and  N_23
REMARK                            x       y       z     vdW  Elec       q    Type
REMARK                         _______ _______ _______ _____ _____    ______ ____
ROOT
ATOM      1  C   UNL     1      -7.823   1.787 130.505  0.00  0.00    +0.000 C 
ATOM      2  N   UNL     1      -7.981   0.571 129.680  0.00  0.00    +0.000 NA
ATOM      3  C   UNL     1      -7.047  -0.555 129.945  0.00  0.00    +0.000 C 
ATOM      4  N   UNL     1      -7.546  -1.719 129.186  0.00  0.00    +0.000 N 
ATOM      5  C   UNL     1      -7.808  -1.624 127.821  0.00  0.00    +0.000 A 
ATOM      6  C   UNL     1      -7.899  -2.750 126.990  0.00  0.00    +0.000 A 
ATOM      7  C   UNL     1      -8.159  -2.643 125.593  0.00  0.00    +0.000 A 
ATOM      8 CL   UNL     1      -8.202  -4.130 124.724  0.00  0.00    +0.000 Cl
ATOM      9  C   UNL     1      -8.345  -1.393 125.007  0.00  0.00    +0.000 A 
ATOM     10  C   UNL     1      -8.250  -0.265 125.811  0.00  0.00    +0.000 A 
ATOM     11  C   UNL     1      -7.977  -0.408 127.173  0.00  0.00    +0.000 A 
ATOM     12  S   UNL     1      -7.850   1.067 128.068  0.00  0.00    +0.000 S 
ATOM     13  O   UNL     1      -9.019   1.864 127.760  0.00  0.00    +0.000 OA
ATOM     14  O   UNL     1      -6.512   1.574 127.856  0.00  0.00    +0.000 OA
ATOM     15  H   UNL     1      -7.531  -2.633 129.626  0.00  0.00    +0.000 HD
ENDROOT
BRANCH   9  16
ATOM     16  S   UNL     1      -8.650  -1.078 123.290  0.00  0.00    +0.000 S 
ATOM     17  O   UNL     1      -7.511  -1.560 122.555  0.00  0.00    +0.000 OA
ATOM     18  O   UNL     1     -10.010  -1.417 122.933  0.00  0.00    +0.000 OA
BRANCH  16  19
ATOM     19  N   UNL     1      -8.581   0.588 123.260  0.00  0.00    +0.000 NA
ATOM     20  H   UNL     1      -9.452   1.105 123.346  0.00  0.00    +0.000 HD
ATOM     21  H   UNL     1      -7.744   1.014 122.878  0.00  0.00    +0.000 HD
ENDBRANCH  16  19
ENDBRANCH   9  16
BRANCH   3  22
ATOM     22  C   UNL     1      -6.891  -0.876 131.481  0.00  0.00    +0.000 C 
BRANCH  22  23
ATOM     23  S   UNL     1      -7.275  -2.665 131.787  0.00  0.00    +0.000 S 
BRANCH  23  24
ATOM     24  C   UNL     1      -5.658  -3.520 131.750  0.00  0.00    +0.000 C 
BRANCH  24  25
ATOM     25  C   UNL     1      -5.622  -4.533 130.597  0.00  0.00    +0.000 C 
ATOM     26  F   UNL     1      -6.750  -4.499 129.852  0.00  0.00    +0.000 F 
ATOM     27  F   UNL     1      -4.573  -4.309 129.770  0.00  0.00    +0.000 F 
ATOM     28  F   UNL     1      -5.498  -5.794 131.071  0.00  0.00    +0.000 F 
ENDBRANCH  24  25
ENDBRANCH  23  24
ENDBRANCH  22  23
ENDBRANCH   3  22
TORSDOF 6
ENDMDL
MODEL 7
REMARK VINA RESULT:      -6.4      6.246      7.511
REMARK  Name = Polythiazide
REMARK  7 active torsions:
REMARK  status: ('A' for Active; 'I' for Inactive)
REMARK    1  A    between atoms: C_1  and  N_2
REMARK    2  A    between atoms: C_3  and  C_4
REMARK    3  A    between atoms: C_4  and  S_5
REMARK    4  A    between atoms: S_5  and  C_6
REMARK    5  A    between atoms: C_6  and  C_7
REMARK    6  A    between atoms: C_16  and  S_22
REMARK    7  A    between atoms: S_22  and  N_23
REMARK                            x       y       z     vdW  Elec       q    Type
REMARK                         _______ _______ _______ _____ _____    ______ ____
ROOT
ATOM      1  C   UNL     1      -8.095   4.938 125.795  0.00  0.00    +0.000 C 
ATOM      2  N   UNL     1      -8.266   3.549 126.269  0.00  0.00    +0.000 NA
ATOM      3  C   UNL     1      -7.479   3.137 127.461  0.00  0.00    +0.000 C 
ATOM      4  N   UNL     1      -7.990   1.817 127.882  0.00  0.00    +0.000 N 
ATOM      5  C   UNL     1      -8.078   0.762 126.978  0.00  0.00    +0.000 A 
ATOM      6  C   UNL     1      -8.174  -0.576 127.385  0.00  0.00    +0.000 A 
ATOM      7  C   UNL     1      -8.255  -1.650 126.452  0.00  0.00    +0.000 A 
ATOM      8 CL   UNL     1      -8.332  -3.230 127.135  0.00  0.00    +0.000 Cl
ATOM      9  C   UNL     1      -8.253  -1.392 125.083  0.00  0.00    +0.000 A 
ATOM     10  C   UNL     1      -8.150  -0.074 124.658  0.00  0.00    +0.000 A 
ATOM     11  C   UNL     1      -8.055   0.950 125.602  0.00  0.00    +0.000 A 
ATOM     12  S   UNL     1      -7.899   2.548 124.956  0.00  0.00    +0.000 S 
ATOM     13  O   UNL     1      -8.944   2.722 123.969  0.00  0.00    +0.000 OA
ATOM     14  O   UNL     1      -6.504   2.732 124.621  0.00  0.00    +0.000 OA
ATOM     15  H   UNL     1      -8.113   1.633 128.872  0.00  0.00    +0.000 HD
ENDROOT
BRANCH   9  16
ATOM     16  S   UNL     1      -8.321  -2.604 123.791  0.00  0.00    +0.000 S 
ATOM     17  O   UNL     1      -8.333  -1.897 122.538  0.00  0.00    +0.000 OA
ATOM     18  O   UNL     1      -7.419  -3.702 124.059  0.00  0.00    +0.000 OA
BRANCH  16  19
ATOM     19  N   UNL     1      -9.856  -3.218 124.019  0.00  0.00    +0.000 NA
ATOM     20  H   UNL     1     -10.445  -2.785 124.725  0.00  0.00    +0.000 HD
ATOM     21  H   UNL     1     -10.043  -4.150 123.667  0.00  0.00    +0.000 HD
ENDBRANCH  16  19
ENDBRANCH   9  16
BRANCH   3  22
ATOM     22  C   UNL     1      -7.537   4.192 128.632  0.00  0.00    +0.000 C 
BRANCH  22  23
ATOM     23  S   UNL     1      -8.975   3.816 129.742  0.00  0.00    +0.000 S 
BRANCH  23  24
ATOM     24  C   UNL     1      -9.823   5.418 129.993  0.00  0.00    +0.000 C 
BRANCH  24  25
ATOM     25  C   UNL     1     -11.321   5.189 130.238  0.00  0.00    +0.000 C 
ATOM     26  F   UNL     1     -12.088   5.758 129.280  0.00  0.00    +0.000 F 
ATOM     27  F   UNL     1     -11.624   3.870 130.280  0.00  0.00    +0.000 F 
ATOM     28  F   UNL     1     -11.701   5.726 131.420  0.00  0.00    +0.000 F 
ENDBRANCH  24  25
ENDBRANCH  23  24
ENDBRANCH  22  23
ENDBRANCH   3  22
TORSDOF 6
ENDMDL
MODEL 8
REMARK VINA RESULT:      -6.4      4.582      5.907
REMARK  Name = Polythiazide
REMARK  7 active torsions:
REMARK  status: ('A' for Active; 'I' for Inactive)
REMARK    1  A    between atoms: C_1  and  N_2
REMARK    2  A    between atoms: C_3  and  C_4
REMARK    3  A    between atoms: C_4  and  S_5
REMARK    4  A    between atoms: S_5  and  C_6
REMARK    5  A    between atoms: C_6  and  C_7
REMARK    6  A    between atoms: C_16  and  S_22
REMARK    7  A    between atoms: S_22  and  N_23
REMARK                            x       y       z     vdW  Elec       q    Type
REMARK                         _______ _______ _______ _____ _____    ______ ____
ROOT
ATOM      1  C   UNL     1      -9.081   3.776 133.002  0.00  0.00    +0.000 C 
ATOM      2  N   UNL     1      -8.625   3.138 131.749  0.00  0.00    +0.000 NA
ATOM      3  C   UNL     1      -9.310   3.543 130.494  0.00  0.00    +0.000 C 
ATOM      4  N   UNL     1      -8.537   2.969 129.374  0.00  0.00    +0.000 N 
ATOM      5  C   UNL     1      -8.231   1.611 129.337  0.00  0.00    +0.000 A 
ATOM      6  C   UNL     1      -7.860   0.952 128.157  0.00  0.00    +0.000 A 
ATOM      7  C   UNL     1      -7.558  -0.441 128.127  0.00  0.00    +0.000 A 
ATOM      8 CL   UNL     1      -7.156  -1.086 126.581  0.00  0.00    +0.000 Cl
ATOM      9  C   UNL     1      -7.613  -1.196 129.296  0.00  0.00    +0.000 A 
ATOM     10  C   UNL     1      -7.987  -0.564 130.475  0.00  0.00    +0.000 A 
ATOM     11  C   UNL     1      -8.293   0.798 130.461  0.00  0.00    +0.000 A 
ATOM     12  S   UNL     1      -8.776   1.469 131.981  0.00  0.00    +0.000 S 
ATOM     13  O   UNL     1      -7.790   1.074 132.965  0.00  0.00    +0.000 OA
ATOM     14  O   UNL     1     -10.179   1.160 132.151  0.00  0.00    +0.000 OA
ATOM     15  H   UNL     1      -8.379   3.535 128.547  0.00  0.00    +0.000 HD
ENDROOT
BRANCH   9  16
ATOM     16  S   UNL     1      -7.295  -2.934 129.434  0.00  0.00    +0.000 S 
ATOM     17  O   UNL     1      -8.383  -3.623 128.794  0.00  0.00    +0.000 OA
ATOM     18  O   UNL     1      -5.908  -3.233 129.151  0.00  0.00    +0.000 OA
BRANCH  16  19
ATOM     19  N   UNL     1      -7.476  -3.156 131.077  0.00  0.00    +0.000 NA
ATOM     20  H   UNL     1      -8.297  -2.761 131.526  0.00  0.00    +0.000 HD
ATOM     21  H   UNL     1      -6.651  -3.414 131.607  0.00  0.00    +0.000 HD
ENDBRANCH  16  19
ENDBRANCH   9  16
BRANCH   3  22
ATOM     22  C   UNL     1      -9.473   5.105 130.357  0.00  0.00    +0.000 C 
BRANCH  22  23
ATOM     23  S   UNL     1     -11.271   5.556 130.428  0.00  0.00    +0.000 S 
BRANCH  23  24
ATOM     24  C   UNL     1     -11.341   7.334 130.000  0.00  0.00    +0.000 C 
BRANCH  24  25
ATOM     25  C   UNL     1     -12.770   7.865 130.184  0.00  0.00    +0.000 C 
ATOM     26  F   UNL     1     -13.411   7.261 131.209  0.00  0.00    +0.000 F 
ATOM     27  F   UNL     1     -12.779   9.199 130.418  0.00  0.00    +0.000 F 
ATOM     28  F   UNL     1     -13.508   7.648 129.071  0.00  0.00    +0.000 F 
ENDBRANCH  24  25
ENDBRANCH  23  24
ENDBRANCH  22  23
ENDBRANCH   3  22
TORSDOF 6
ENDMDL
MODEL 9
REMARK VINA RESULT:      -6.3      6.507      8.517
REMARK  Name = Polythiazide
REMARK  7 active torsions:
REMARK  status: ('A' for Active; 'I' for Inactive)
REMARK    1  A    between atoms: C_1  and  N_2
REMARK    2  A    between atoms: C_3  and  C_4
REMARK    3  A    between atoms: C_4  and  S_5
REMARK    4  A    between atoms: S_5  and  C_6
REMARK    5  A    between atoms: C_6  and  C_7
REMARK    6  A    between atoms: C_16  and  S_22
REMARK    7  A    between atoms: S_22  and  N_23
REMARK                            x       y       z     vdW  Elec       q    Type
REMARK                         _______ _______ _______ _____ _____    ______ ____
ROOT
ATOM      1  C   UNL     1      -6.900   3.781 128.724  0.00  0.00    +0.000 C 
ATOM      2  N   UNL     1      -6.462   2.529 128.071  0.00  0.00    +0.000 NA
ATOM      3  C   UNL     1      -5.065   2.480 127.567  0.00  0.00    +0.000 C 
ATOM      4  N   UNL     1      -4.792   1.080 127.186  0.00  0.00    +0.000 N 
ATOM      5  C   UNL     1      -5.639   0.396 126.317  0.00  0.00    +0.000 A 
ATOM      6  C   UNL     1      -5.241  -0.756 125.625  0.00  0.00    +0.000 A 
ATOM      7  C   UNL     1      -6.112  -1.444 124.731  0.00  0.00    +0.000 A 
ATOM      8 CL   UNL     1      -5.440  -2.821 123.943  0.00  0.00    +0.000 Cl
ATOM      9  C   UNL     1      -7.412  -0.986 124.526  0.00  0.00    +0.000 A 
ATOM     10  C   UNL     1      -7.823   0.160 125.195  0.00  0.00    +0.000 A 
ATOM     11  C   UNL     1      -6.935   0.816 126.049  0.00  0.00    +0.000 A 
ATOM     12  S   UNL     1      -7.547   2.249 126.803  0.00  0.00    +0.000 S 
ATOM     13  O   UNL     1      -8.829   1.918 127.390  0.00  0.00    +0.000 OA
ATOM     14  O   UNL     1      -7.409   3.321 125.842  0.00  0.00    +0.000 OA
ATOM     15  H   UNL     1      -3.892   0.674 127.422  0.00  0.00    +0.000 HD
ENDROOT
BRANCH   9  16
ATOM     16  S   UNL     1      -8.612  -1.701 123.436  0.00  0.00    +0.000 S 
ATOM     17  O   UNL     1      -9.800  -0.893 123.513  0.00  0.00    +0.000 OA
ATOM     18  O   UNL     1      -8.010  -2.085 122.178  0.00  0.00    +0.000 OA
BRANCH  16  19
ATOM     19  N   UNL     1      -8.943  -3.131 124.230  0.00  0.00    +0.000 NA
ATOM     20  H   UNL     1      -8.159  -3.681 124.571  0.00  0.00    +0.000 HD
ATOM     21  H   UNL     1      -9.862  -3.537 124.096  0.00  0.00    +0.000 HD
ENDBRANCH  16  19
ENDBRANCH   9  16
BRANCH   3  22
ATOM     22  C   UNL     1      -4.015   3.021 128.612  0.00  0.00    +0.000 C 
BRANCH  22  23
ATOM     23  S   UNL     1      -2.781   4.107 127.753  0.00  0.00    +0.000 S 
BRANCH  23  24
ATOM     24  C   UNL     1      -3.513   5.784 127.777  0.00  0.00    +0.000 C 
BRANCH  24  25
ATOM     25  C   UNL     1      -2.563   6.766 128.476  0.00  0.00    +0.000 C 
ATOM     26  F   UNL     1      -1.711   6.140 129.319  0.00  0.00    +0.000 F 
ATOM     27  F   UNL     1      -1.823   7.465 127.583  0.00  0.00    +0.000 F 
ATOM     28  F   UNL     1      -3.259   7.665 129.211  0.00  0.00    +0.000 F 
ENDBRANCH  24  25
ENDBRANCH  23  24
ENDBRANCH  22  23
ENDBRANCH   3  22
TORSDOF 6
ENDMDL
