MODEL 1
REMARK VINA RESULT:      -7.9      0.000      0.000
REMARK  Name = Polydatin
REMARK  11 active torsions:
REMARK  status: ('A' for Active; 'I' for Inactive)
REMARK    1  A    between atoms: O_1  and  C_2
REMARK    2  A    between atoms: C_2  and  C_3
REMARK    3  A    between atoms: C_5  and  O_6
REMARK    4  A    between atoms: O_6  and  C_7
REMARK    5  A    between atoms: C_9  and  C_10
REMARK    6  A    between atoms: C_11  and  C_12
REMARK    7  A    between atoms: C_15  and  O_16
REMARK    8  A    between atoms: C_20  and  O_21
REMARK    9  A    between atoms: C_23  and  O_24
REMARK   10  A    between atoms: C_25  and  O_26
REMARK   11  A    between atoms: C_27  and  O_28
REMARK                            x       y       z     vdW  Elec       q    Type
REMARK                         _______ _______ _______ _____ _____    ______ ____
ROOT
ATOM      1  C   UNL     1      -7.754   3.969 128.101  0.00  0.00    +0.000 A 
ATOM      2  C   UNL     1      -7.665   4.283 126.743  0.00  0.00    +0.000 A 
ATOM      3  C   UNL     1      -7.461   3.307 125.768  0.00  0.00    +0.000 A 
ATOM      4  C   UNL     1      -7.441   1.973 126.167  0.00  0.00    +0.000 A 
ATOM      5  C   UNL     1      -7.611   1.643 127.508  0.00  0.00    +0.000 A 
ATOM      6  C   UNL     1      -7.749   2.629 128.480  0.00  0.00    +0.000 A 
ENDROOT
BRANCH   3   7
ATOM      7  C   UNL     1      -7.256   3.765 124.389  0.00  0.00    +0.000 C 
ATOM      8  C   UNL     1      -6.253   3.343 123.599  0.00  0.00    +0.000 C 
BRANCH   8   9
ATOM      9  C   UNL     1      -6.048   3.835 122.241  0.00  0.00    +0.000 A 
ATOM     10  C   UNL     1      -6.996   3.620 121.234  0.00  0.00    +0.000 A 
ATOM     11  C   UNL     1      -6.814   4.172 119.966  0.00  0.00    +0.000 A 
ATOM     12  C   UNL     1      -5.685   4.945 119.716  0.00  0.00    +0.000 A 
ATOM     13  C   UNL     1      -4.734   5.164 120.705  0.00  0.00    +0.000 A 
ATOM     14  C   UNL     1      -4.916   4.613 121.972  0.00  0.00    +0.000 A 
BRANCH  12  15
ATOM     15  O   UNL     1      -5.472   5.524 118.501  0.00  0.00    +0.000 OA
ATOM     16  H   UNL     1      -6.194   5.267 117.904  0.00  0.00    +0.000 HD
ENDBRANCH  12  15
ENDBRANCH   8   9
ENDBRANCH   3   7
BRANCH   5  17
ATOM     17  O   UNL     1      -7.642   0.335 127.895  0.00  0.00    +0.000 OA
ATOM     18  H   UNL     1      -7.994   0.293 128.800  0.00  0.00    +0.000 HD
ENDBRANCH   5  17
BRANCH   1  19
ATOM     19  O   UNL     1      -7.831   4.890 129.113  0.00  0.00    +0.000 OA
BRANCH  19  22
ATOM     20  C   UNL     1     -11.331   5.579 129.989  0.00  0.00    +0.000 C 
ATOM     21  O   UNL     1     -10.100   5.566 129.261  0.00  0.00    +0.000 OA
ATOM     22  C   UNL     1      -9.015   4.908 129.937  0.00  0.00    +0.000 C 
ATOM     23  C   UNL     1      -8.723   5.467 131.365  0.00  0.00    +0.000 C 
ATOM     24  C   UNL     1     -10.020   5.609 132.165  0.00  0.00    +0.000 C 
ATOM     25  C   UNL     1     -11.119   6.287 131.336  0.00  0.00    +0.000 C 
BRANCH  23  26
ATOM     26  O   UNL     1      -7.760   4.680 132.080  0.00  0.00    +0.000 OA
ATOM     27  H   UNL     1      -7.210   5.262 132.628  0.00  0.00    +0.000 HD
ENDBRANCH  23  26
BRANCH  24  28
ATOM     28  O   UNL     1      -9.783   6.370 133.361  0.00  0.00    +0.000 OA
ATOM     29  H   UNL     1      -9.933   5.793 134.131  0.00  0.00    +0.000 HD
ENDBRANCH  24  28
BRANCH  25  30
ATOM     30  O   UNL     1     -12.341   6.345 132.076  0.00  0.00    +0.000 OA
ATOM     31  H   UNL     1     -12.986   6.872 131.572  0.00  0.00    +0.000 HD
ENDBRANCH  25  30
BRANCH  20  32
ATOM     32  C   UNL     1     -12.404   6.379 129.215  0.00  0.00    +0.000 C 
BRANCH  32  33
ATOM     33  O   UNL     1     -12.420   7.771 129.514  0.00  0.00    +0.000 OA
ATOM     34  H   UNL     1     -12.462   8.220 128.647  0.00  0.00    +0.000 HD
ENDBRANCH  32  33
ENDBRANCH  20  32
ENDBRANCH  19  22
ENDBRANCH   1  19
TORSDOF 11
ENDMDL
MODEL 2
REMARK VINA RESULT:      -7.7      2.140      3.357
REMARK  Name = Polydatin
REMARK  11 active torsions:
REMARK  status: ('A' for Active; 'I' for Inactive)
REMARK    1  A    between atoms: O_1  and  C_2
REMARK    2  A    between atoms: C_2  and  C_3
REMARK    3  A    between atoms: C_5  and  O_6
REMARK    4  A    between atoms: O_6  and  C_7
REMARK    5  A    between atoms: C_9  and  C_10
REMARK    6  A    between atoms: C_11  and  C_12
REMARK    7  A    between atoms: C_15  and  O_16
REMARK    8  A    between atoms: C_20  and  O_21
REMARK    9  A    between atoms: C_23  and  O_24
REMARK   10  A    between atoms: C_25  and  O_26
REMARK   11  A    between atoms: C_27  and  O_28
REMARK                            x       y       z     vdW  Elec       q    Type
REMARK                         _______ _______ _______ _____ _____    ______ ____
ROOT
ATOM      1  C   UNL     1      -8.005   1.369 126.435  0.00  0.00    +0.000 A 
ATOM      2  C   UNL     1      -7.890   2.160 125.289  0.00  0.00    +0.000 A 
ATOM      3  C   UNL     1      -8.255   1.695 124.026  0.00  0.00    +0.000 A 
ATOM      4  C   UNL     1      -8.837   0.433 123.933  0.00  0.00    +0.000 A 
ATOM      5  C   UNL     1      -9.032  -0.331 125.079  0.00  0.00    +0.000 A 
ATOM      6  C   UNL     1      -8.605   0.117 126.325  0.00  0.00    +0.000 A 
ENDROOT
BRANCH   3   7
ATOM      7  C   UNL     1      -7.972   2.567 122.880  0.00  0.00    +0.000 C 
ATOM      8  C   UNL     1      -6.734   2.847 122.438  0.00  0.00    +0.000 C 
BRANCH   8   9
ATOM      9  C   UNL     1      -6.472   3.742 121.316  0.00  0.00    +0.000 A 
ATOM     10  C   UNL     1      -5.262   4.437 121.201  0.00  0.00    +0.000 A 
ATOM     11  C   UNL     1      -5.004   5.222 120.077  0.00  0.00    +0.000 A 
ATOM     12  C   UNL     1      -5.959   5.299 119.069  0.00  0.00    +0.000 A 
ATOM     13  C   UNL     1      -7.165   4.618 119.170  0.00  0.00    +0.000 A 
ATOM     14  C   UNL     1      -7.422   3.834 120.293  0.00  0.00    +0.000 A 
BRANCH  12  15
ATOM     15  O   UNL     1      -5.746   6.034 117.940  0.00  0.00    +0.000 OA
ATOM     16  H   UNL     1      -4.935   6.555 118.058  0.00  0.00    +0.000 HD
ENDBRANCH  12  15
ENDBRANCH   8   9
ENDBRANCH   3   7
BRANCH   5  17
ATOM     17  O   UNL     1      -9.647  -1.546 124.997  0.00  0.00    +0.000 OA
ATOM     18  H   UNL     1      -9.221  -2.147 125.632  0.00  0.00    +0.000 HD
ENDBRANCH   5  17
BRANCH   1  19
ATOM     19  O   UNL     1      -7.552   1.723 127.678  0.00  0.00    +0.000 OA
BRANCH  19  22
ATOM     20  C   UNL     1      -9.856   3.210 130.122  0.00  0.00    +0.000 C 
ATOM     21  O   UNL     1      -8.880   3.098 129.083  0.00  0.00    +0.000 OA
ATOM     22  C   UNL     1      -8.494   1.748 128.771  0.00  0.00    +0.000 C 
ATOM     23  C   UNL     1      -7.984   0.932 130.000  0.00  0.00    +0.000 C 
ATOM     24  C   UNL     1      -8.933   1.098 131.189  0.00  0.00    +0.000 C 
ATOM     25  C   UNL     1      -9.309   2.569 131.407  0.00  0.00    +0.000 C 
BRANCH  23  26
ATOM     26  O   UNL     1      -7.776  -0.454 129.695  0.00  0.00    +0.000 OA
ATOM     27  H   UNL     1      -6.864  -0.700 129.918  0.00  0.00    +0.000 HD
ENDBRANCH  23  26
BRANCH  24  28
ATOM     28  O   UNL     1      -8.326   0.577 132.383  0.00  0.00    +0.000 OA
ATOM     29  H   UNL     1      -7.893  -0.269 132.168  0.00  0.00    +0.000 HD
ENDBRANCH  24  28
BRANCH  25  30
ATOM     30  O   UNL     1     -10.251   2.693 132.475  0.00  0.00    +0.000 OA
ATOM     31  H   UNL     1     -11.080   2.259 132.211  0.00  0.00    +0.000 HD
ENDBRANCH  25  30
BRANCH  20  32
ATOM     32  C   UNL     1     -10.137   4.698 130.436  0.00  0.00    +0.000 C 
BRANCH  32  33
ATOM     33  O   UNL     1     -11.359   4.924 131.130  0.00  0.00    +0.000 OA
ATOM     34  H   UNL     1     -11.532   4.099 131.623  0.00  0.00    +0.000 HD
ENDBRANCH  32  33
ENDBRANCH  20  32
ENDBRANCH  19  22
ENDBRANCH   1  19
TORSDOF 11
ENDMDL
MODEL 3
REMARK VINA RESULT:      -7.6      5.279      9.976
REMARK  Name = Polydatin
REMARK  11 active torsions:
REMARK  status: ('A' for Active; 'I' for Inactive)
REMARK    1  A    between atoms: O_1  and  C_2
REMARK    2  A    between atoms: C_2  and  C_3
REMARK    3  A    between atoms: C_5  and  O_6
REMARK    4  A    between atoms: O_6  and  C_7
REMARK    5  A    between atoms: C_9  and  C_10
REMARK    6  A    between atoms: C_11  and  C_12
REMARK    7  A    between atoms: C_15  and  O_16
REMARK    8  A    between atoms: C_20  and  O_21
REMARK    9  A    between atoms: C_23  and  O_24
REMARK   10  A    between atoms: C_25  and  O_26
REMARK   11  A    between atoms: C_27  and  O_28
REMARK                            x       y       z     vdW  Elec       q    Type
REMARK                         _______ _______ _______ _____ _____    ______ ____
ROOT
ATOM      1  C   UNL     1      -8.747  -0.679 125.816  0.00  0.00    +0.000 A 
ATOM      2  C   UNL     1      -8.340  -1.331 126.981  0.00  0.00    +0.000 A 
ATOM      3  C   UNL     1      -8.337  -2.722 127.091  0.00  0.00    +0.000 A 
ATOM      4  C   UNL     1      -8.665  -3.471 125.964  0.00  0.00    +0.000 A 
ATOM      5  C   UNL     1      -8.993  -2.831 124.773  0.00  0.00    +0.000 A 
ATOM      6  C   UNL     1      -9.055  -1.444 124.694  0.00  0.00    +0.000 A 
ENDROOT
BRANCH   3   7
ATOM      7  C   UNL     1      -8.011  -3.293 128.403  0.00  0.00    +0.000 C 
ATOM      8  C   UNL     1      -6.937  -2.939 129.130  0.00  0.00    +0.000 C 
BRANCH   8   9
ATOM      9  C   UNL     1      -6.612  -3.541 130.418  0.00  0.00    +0.000 A 
ATOM     10  C   UNL     1      -5.723  -4.617 130.520  0.00  0.00    +0.000 A 
ATOM     11  C   UNL     1      -5.366  -5.121 131.770  0.00  0.00    +0.000 A 
ATOM     12  C   UNL     1      -5.896  -4.536 132.915  0.00  0.00    +0.000 A 
ATOM     13  C   UNL     1      -6.782  -3.470 132.830  0.00  0.00    +0.000 A 
ATOM     14  C   UNL     1      -7.138  -2.967 131.581  0.00  0.00    +0.000 A 
BRANCH  12  15
ATOM     15  O   UNL     1      -5.562  -4.977 134.161  0.00  0.00    +0.000 OA
ATOM     16  H   UNL     1      -6.367  -5.015 134.703  0.00  0.00    +0.000 HD
ENDBRANCH  12  15
ENDBRANCH   8   9
ENDBRANCH   3   7
BRANCH   5  17
ATOM     17  O   UNL     1      -9.266  -3.562 123.654  0.00  0.00    +0.000 OA
ATOM     18  H   UNL     1     -10.178  -3.369 123.378  0.00  0.00    +0.000 HD
ENDBRANCH   5  17
BRANCH   1  19
ATOM     19  O   UNL     1      -8.888   0.678 125.688  0.00  0.00    +0.000 OA
BRANCH  19  22
ATOM     20  C   UNL     1      -6.120   2.909 124.765  0.00  0.00    +0.000 C 
ATOM     21  O   UNL     1      -7.086   2.216 125.559  0.00  0.00    +0.000 OA
ATOM     22  C   UNL     1      -7.987   1.382 124.809  0.00  0.00    +0.000 C 
ATOM     23  C   UNL     1      -8.748   2.133 123.671  0.00  0.00    +0.000 C 
ATOM     24  C   UNL     1      -7.782   2.985 122.846  0.00  0.00    +0.000 C 
ATOM     25  C   UNL     1      -6.844   3.801 123.745  0.00  0.00    +0.000 C 
BRANCH  23  26
ATOM     26  O   UNL     1      -9.500   1.245 122.832  0.00  0.00    +0.000 OA
ATOM     27  H   UNL     1     -10.418   1.208 123.142  0.00  0.00    +0.000 HD
ENDBRANCH  23  26
BRANCH  24  28
ATOM     28  O   UNL     1      -8.515   3.873 121.987  0.00  0.00    +0.000 OA
ATOM     29  H   UNL     1      -9.267   3.386 121.603  0.00  0.00    +0.000 HD
ENDBRANCH  24  28
BRANCH  25  30
ATOM     30  O   UNL     1      -5.904   4.534 122.955  0.00  0.00    +0.000 OA
ATOM     31  H   UNL     1      -5.233   4.917 123.546  0.00  0.00    +0.000 HD
ENDBRANCH  25  30
BRANCH  20  32
ATOM     32  C   UNL     1      -5.260   3.837 125.655  0.00  0.00    +0.000 C 
BRANCH  32  33
ATOM     33  O   UNL     1      -5.826   5.125 125.870  0.00  0.00    +0.000 OA
ATOM     34  H   UNL     1      -5.136   5.635 126.337  0.00  0.00    +0.000 HD
ENDBRANCH  32  33
ENDBRANCH  20  32
ENDBRANCH  19  22
ENDBRANCH   1  19
TORSDOF 11
ENDMDL
MODEL 4
REMARK VINA RESULT:      -7.5      1.328      1.328
REMARK  Name = Polydatin
REMARK  11 active torsions:
REMARK  status: ('A' for Active; 'I' for Inactive)
REMARK    1  A    between atoms: O_1  and  C_2
REMARK    2  A    between atoms: C_2  and  C_3
REMARK    3  A    between atoms: C_5  and  O_6
REMARK    4  A    between atoms: O_6  and  C_7
REMARK    5  A    between atoms: C_9  and  C_10
REMARK    6  A    between atoms: C_11  and  C_12
REMARK    7  A    between atoms: C_15  and  O_16
REMARK    8  A    between atoms: C_20  and  O_21
REMARK    9  A    between atoms: C_23  and  O_24
REMARK   10  A    between atoms: C_25  and  O_26
REMARK   11  A    between atoms: C_27  and  O_28
REMARK                            x       y       z     vdW  Elec       q    Type
REMARK                         _______ _______ _______ _____ _____    ______ ____
ROOT
ATOM      1  C   UNL     1      -6.404   4.085 128.041  0.00  0.00    +0.000 A 
ATOM      2  C   UNL     1      -6.435   4.433 126.688  0.00  0.00    +0.000 A 
ATOM      3  C   UNL     1      -5.872   3.624 125.701  0.00  0.00    +0.000 A 
ATOM      4  C   UNL     1      -5.349   2.390 126.081  0.00  0.00    +0.000 A 
ATOM      5  C   UNL     1      -5.387   1.998 127.415  0.00  0.00    +0.000 A 
ATOM      6  C   UNL     1      -5.892   2.840 128.400  0.00  0.00    +0.000 A 
ENDROOT
BRANCH   3   7
ATOM      7  C   UNL     1      -5.851   4.150 124.331  0.00  0.00    +0.000 C 
ATOM      8  C   UNL     1      -5.994   3.388 123.232  0.00  0.00    +0.000 C 
BRANCH   8   9
ATOM      9  C   UNL     1      -5.939   3.925 121.877  0.00  0.00    +0.000 A 
ATOM     10  C   UNL     1      -6.984   3.725 120.967  0.00  0.00    +0.000 A 
ATOM     11  C   UNL     1      -6.944   4.319 119.706  0.00  0.00    +0.000 A 
ATOM     12  C   UNL     1      -5.858   5.118 119.366  0.00  0.00    +0.000 A 
ATOM     13  C   UNL     1      -4.811   5.323 120.257  0.00  0.00    +0.000 A 
ATOM     14  C   UNL     1      -4.852   4.730 121.517  0.00  0.00    +0.000 A 
BRANCH  12  15
ATOM     15  O   UNL     1      -5.781   5.739 118.155  0.00  0.00    +0.000 OA
ATOM     16  H   UNL     1      -6.679   5.975 117.870  0.00  0.00    +0.000 HD
ENDBRANCH  12  15
ENDBRANCH   8   9
ENDBRANCH   3   7
BRANCH   5  17
ATOM     17  O   UNL     1      -4.921   0.769 127.782  0.00  0.00    +0.000 OA
ATOM     18  H   UNL     1      -3.980   0.856 128.010  0.00  0.00    +0.000 HD
ENDBRANCH   5  17
BRANCH   1  19
ATOM     19  O   UNL     1      -6.828   4.890 129.065  0.00  0.00    +0.000 OA
BRANCH  19  22
ATOM     20  C   UNL     1     -10.359   5.846 129.391  0.00  0.00    +0.000 C 
ATOM     21  O   UNL     1      -8.972   5.903 129.046  0.00  0.00    +0.000 OA
ATOM     22  C   UNL     1      -8.198   4.781 129.502  0.00  0.00    +0.000 C 
ATOM     23  C   UNL     1      -8.301   4.519 131.038  0.00  0.00    +0.000 C 
ATOM     24  C   UNL     1      -9.762   4.553 131.494  0.00  0.00    +0.000 C 
ATOM     25  C   UNL     1     -10.502   5.768 130.919  0.00  0.00    +0.000 C 
BRANCH  23  26
ATOM     26  O   UNL     1      -7.665   3.295 131.434  0.00  0.00    +0.000 OA
ATOM     27  H   UNL     1      -8.279   2.556 131.303  0.00  0.00    +0.000 HD
ENDBRANCH  23  26
BRANCH  24  28
ATOM     28  O   UNL     1      -9.831   4.585 132.929  0.00  0.00    +0.000 OA
ATOM     29  H   UNL     1      -9.779   5.512 133.223  0.00  0.00    +0.000 HD
ENDBRANCH  24  28
BRANCH  25  30
ATOM     30  O   UNL     1     -11.880   5.741 131.298  0.00  0.00    +0.000 OA
ATOM     31  H   UNL     1     -12.022   4.991 131.902  0.00  0.00    +0.000 HD
ENDBRANCH  25  30
BRANCH  20  32
ATOM     32  C   UNL     1     -11.081   7.134 128.928  0.00  0.00    +0.000 C 
BRANCH  32  33
ATOM     33  O   UNL     1     -11.377   8.043 129.982  0.00  0.00    +0.000 OA
ATOM     34  H   UNL     1     -11.637   7.485 130.740  0.00  0.00    +0.000 HD
ENDBRANCH  32  33
ENDBRANCH  20  32
ENDBRANCH  19  22
ENDBRANCH   1  19
TORSDOF 11
ENDMDL
MODEL 5
REMARK VINA RESULT:      -7.5      5.164      9.915
REMARK  Name = Polydatin
REMARK  11 active torsions:
REMARK  status: ('A' for Active; 'I' for Inactive)
REMARK    1  A    between atoms: O_1  and  C_2
REMARK    2  A    between atoms: C_2  and  C_3
REMARK    3  A    between atoms: C_5  and  O_6
REMARK    4  A    between atoms: O_6  and  C_7
REMARK    5  A    between atoms: C_9  and  C_10
REMARK    6  A    between atoms: C_11  and  C_12
REMARK    7  A    between atoms: C_15  and  O_16
REMARK    8  A    between atoms: C_20  and  O_21
REMARK    9  A    between atoms: C_23  and  O_24
REMARK   10  A    between atoms: C_25  and  O_26
REMARK   11  A    between atoms: C_27  and  O_28
REMARK                            x       y       z     vdW  Elec       q    Type
REMARK                         _______ _______ _______ _____ _____    ______ ____
ROOT
ATOM      1  C   UNL     1      -4.558   4.701 126.222  0.00  0.00    +0.000 A 
ATOM      2  C   UNL     1      -4.249   5.439 127.368  0.00  0.00    +0.000 A 
ATOM      3  C   UNL     1      -3.197   5.089 128.214  0.00  0.00    +0.000 A 
ATOM      4  C   UNL     1      -2.380   4.024 127.841  0.00  0.00    +0.000 A 
ATOM      5  C   UNL     1      -2.629   3.334 126.659  0.00  0.00    +0.000 A 
ATOM      6  C   UNL     1      -3.720   3.651 125.857  0.00  0.00    +0.000 A 
ENDROOT
BRANCH   3   7
ATOM      7  C   UNL     1      -3.045   5.860 129.453  0.00  0.00    +0.000 C 
ATOM      8  C   UNL     1      -1.871   6.044 130.084  0.00  0.00    +0.000 C 
BRANCH   8   9
ATOM      9  C   UNL     1      -1.746   6.787 131.332  0.00  0.00    +0.000 A 
ATOM     10  C   UNL     1      -0.592   6.705 132.120  0.00  0.00    +0.000 A 
ATOM     11  C   UNL     1      -0.463   7.488 133.266  0.00  0.00    +0.000 A 
ATOM     12  C   UNL     1      -1.491   8.359 133.613  0.00  0.00    +0.000 A 
ATOM     13  C   UNL     1      -2.644   8.449 132.843  0.00  0.00    +0.000 A 
ATOM     14  C   UNL     1      -2.772   7.666 131.698  0.00  0.00    +0.000 A 
BRANCH  12  15
ATOM     15  O   UNL     1      -1.405   9.162 134.711  0.00  0.00    +0.000 OA
ATOM     16  H   UNL     1      -2.284   9.222 135.121  0.00  0.00    +0.000 HD
ENDBRANCH  12  15
ENDBRANCH   8   9
ENDBRANCH   3   7
BRANCH   5  17
ATOM     17  O   UNL     1      -1.801   2.323 126.267  0.00  0.00    +0.000 OA
ATOM     18  H   UNL     1      -2.349   1.577 125.971  0.00  0.00    +0.000 HD
ENDBRANCH   5  17
BRANCH   1  19
ATOM     19  O   UNL     1      -5.648   4.920 125.422  0.00  0.00    +0.000 OA
BRANCH  19  22
ATOM     20  C   UNL     1      -5.280   4.237 121.832  0.00  0.00    +0.000 C 
ATOM     21  O   UNL     1      -5.255   4.930 123.083  0.00  0.00    +0.000 OA
ATOM     22  C   UNL     1      -5.761   4.171 124.194  0.00  0.00    +0.000 C 
ATOM     23  C   UNL     1      -7.204   3.615 123.981  0.00  0.00    +0.000 C 
ATOM     24  C   UNL     1      -7.330   2.953 122.607  0.00  0.00    +0.000 C 
ATOM     25  C   UNL     1      -6.724   3.829 121.503  0.00  0.00    +0.000 C 
BRANCH  23  26
ATOM     26  O   UNL     1      -7.612   2.720 125.025  0.00  0.00    +0.000 OA
ATOM     27  H   UNL     1      -7.638   3.199 125.868  0.00  0.00    +0.000 HD
ENDBRANCH  23  26
BRANCH  24  28
ATOM     28  O   UNL     1      -8.710   2.691 122.308  0.00  0.00    +0.000 OA
ATOM     29  H   UNL     1      -8.755   2.071 121.559  0.00  0.00    +0.000 HD
ENDBRANCH  24  28
BRANCH  25  30
ATOM     30  O   UNL     1      -6.787   3.161 120.241  0.00  0.00    +0.000 OA
ATOM     31  H   UNL     1      -6.755   3.828 119.533  0.00  0.00    +0.000 HD
ENDBRANCH  25  30
BRANCH  20  32
ATOM     32  C   UNL     1      -4.795   5.166 120.694  0.00  0.00    +0.000 C 
BRANCH  32  33
ATOM     33  O   UNL     1      -4.090   6.317 121.144  0.00  0.00    +0.000 OA
ATOM     34  H   UNL     1      -3.314   6.390 120.556  0.00  0.00    +0.000 HD
ENDBRANCH  32  33
ENDBRANCH  20  32
ENDBRANCH  19  22
ENDBRANCH   1  19
TORSDOF 11
ENDMDL
MODEL 6
REMARK VINA RESULT:      -7.5      5.159      9.178
REMARK  Name = Polydatin
REMARK  11 active torsions:
REMARK  status: ('A' for Active; 'I' for Inactive)
REMARK    1  A    between atoms: O_1  and  C_2
REMARK    2  A    between atoms: C_2  and  C_3
REMARK    3  A    between atoms: C_5  and  O_6
REMARK    4  A    between atoms: O_6  and  C_7
REMARK    5  A    between atoms: C_9  and  C_10
REMARK    6  A    between atoms: C_11  and  C_12
REMARK    7  A    between atoms: C_15  and  O_16
REMARK    8  A    between atoms: C_20  and  O_21
REMARK    9  A    between atoms: C_23  and  O_24
REMARK   10  A    between atoms: C_25  and  O_26
REMARK   11  A    between atoms: C_27  and  O_28
REMARK                            x       y       z     vdW  Elec       q    Type
REMARK                         _______ _______ _______ _____ _____    ______ ____
ROOT
ATOM      1  C   UNL     1      -7.172   2.436 123.305  0.00  0.00    +0.000 A 
ATOM      2  C   UNL     1      -6.703   2.955 124.514  0.00  0.00    +0.000 A 
ATOM      3  C   UNL     1      -5.691   3.913 124.568  0.00  0.00    +0.000 A 
ATOM      4  C   UNL     1      -5.209   4.428 123.367  0.00  0.00    +0.000 A 
ATOM      5  C   UNL     1      -5.727   3.977 122.157  0.00  0.00    +0.000 A 
ATOM      6  C   UNL     1      -6.690   2.974 122.115  0.00  0.00    +0.000 A 
ENDROOT
BRANCH   3   7
ATOM      7  C   UNL     1      -5.192   4.292 125.895  0.00  0.00    +0.000 C 
ATOM      8  C   UNL     1      -3.932   4.075 126.312  0.00  0.00    +0.000 C 
BRANCH   8   9
ATOM      9  C   UNL     1      -3.463   4.429 127.647  0.00  0.00    +0.000 A 
ATOM     10  C   UNL     1      -2.720   5.593 127.877  0.00  0.00    +0.000 A 
ATOM     11  C   UNL     1      -2.355   5.952 129.174  0.00  0.00    +0.000 A 
ATOM     12  C   UNL     1      -2.744   5.145 130.237  0.00  0.00    +0.000 A 
ATOM     13  C   UNL     1      -3.479   3.985 130.025  0.00  0.00    +0.000 A 
ATOM     14  C   UNL     1      -3.844   3.627 128.729  0.00  0.00    +0.000 A 
BRANCH  12  15
ATOM     15  O   UNL     1      -2.432   5.463 131.526  0.00  0.00    +0.000 OA
ATOM     16  H   UNL     1      -2.750   6.362 131.709  0.00  0.00    +0.000 HD
ENDBRANCH  12  15
ENDBRANCH   8   9
ENDBRANCH   3   7
BRANCH   5  17
ATOM     17  O   UNL     1      -5.292   4.515 120.981  0.00  0.00    +0.000 OA
ATOM     18  H   UNL     1      -5.637   3.973 120.252  0.00  0.00    +0.000 HD
ENDBRANCH   5  17
BRANCH   1  19
ATOM     19  O   UNL     1      -8.072   1.409 123.192  0.00  0.00    +0.000 OA
BRANCH  19  22
ATOM     20  C   UNL     1      -6.397  -1.816 123.722  0.00  0.00    +0.000 C 
ATOM     21  O   UNL     1      -6.790  -0.585 123.110  0.00  0.00    +0.000 OA
ATOM     22  C   UNL     1      -7.775   0.159 123.847  0.00  0.00    +0.000 C 
ATOM     23  C   UNL     1      -9.069  -0.650 124.175  0.00  0.00    +0.000 C 
ATOM     24  C   UNL     1      -8.716  -2.029 124.736  0.00  0.00    +0.000 C 
ATOM     25  C   UNL     1      -7.631  -2.716 123.896  0.00  0.00    +0.000 C 
BRANCH  23  26
ATOM     26  O   UNL     1      -9.953   0.056 125.058  0.00  0.00    +0.000 OA
ATOM     27  H   UNL     1     -10.872  -0.158 124.832  0.00  0.00    +0.000 HD
ENDBRANCH  23  26
BRANCH  24  28
ATOM     28  O   UNL     1      -9.887  -2.861 124.777  0.00  0.00    +0.000 OA
ATOM     29  H   UNL     1     -10.623  -2.346 125.154  0.00  0.00    +0.000 HD
ENDBRANCH  24  28
BRANCH  25  30
ATOM     30  O   UNL     1      -7.265  -3.969 124.478  0.00  0.00    +0.000 OA
ATOM     31  H   UNL     1      -6.731  -4.467 123.834  0.00  0.00    +0.000 HD
ENDBRANCH  25  30
BRANCH  20  32
ATOM     32  C   UNL     1      -5.402  -2.574 122.812  0.00  0.00    +0.000 C 
BRANCH  32  33
ATOM     33  O   UNL     1      -4.526  -3.450 123.512  0.00  0.00    +0.000 OA
ATOM     34  H   UNL     1      -4.228  -2.946 124.294  0.00  0.00    +0.000 HD
ENDBRANCH  32  33
ENDBRANCH  20  32
ENDBRANCH  19  22
ENDBRANCH   1  19
TORSDOF 11
ENDMDL
MODEL 7
REMARK VINA RESULT:      -7.4      5.375      9.854
REMARK  Name = Polydatin
REMARK  11 active torsions:
REMARK  status: ('A' for Active; 'I' for Inactive)
REMARK    1  A    between atoms: O_1  and  C_2
REMARK    2  A    between atoms: C_2  and  C_3
REMARK    3  A    between atoms: C_5  and  O_6
REMARK    4  A    between atoms: O_6  and  C_7
REMARK    5  A    between atoms: C_9  and  C_10
REMARK    6  A    between atoms: C_11  and  C_12
REMARK    7  A    between atoms: C_15  and  O_16
REMARK    8  A    between atoms: C_20  and  O_21
REMARK    9  A    between atoms: C_23  and  O_24
REMARK   10  A    between atoms: C_25  and  O_26
REMARK   11  A    between atoms: C_27  and  O_28
REMARK                            x       y       z     vdW  Elec       q    Type
REMARK                         _______ _______ _______ _____ _____    ______ ____
ROOT
ATOM      1  C   UNL     1      -7.206  -1.521 124.942  0.00  0.00    +0.000 A 
ATOM      2  C   UNL     1      -7.122  -1.999 126.251  0.00  0.00    +0.000 A 
ATOM      3  C   UNL     1      -8.082  -2.854 126.793  0.00  0.00    +0.000 A 
ATOM      4  C   UNL     1      -9.101  -3.310 125.959  0.00  0.00    +0.000 A 
ATOM      5  C   UNL     1      -9.148  -2.904 124.630  0.00  0.00    +0.000 A 
ATOM      6  C   UNL     1      -8.222  -2.000 124.119  0.00  0.00    +0.000 A 
ENDROOT
BRANCH   3   7
ATOM      7  C   UNL     1      -7.958  -3.190 128.216  0.00  0.00    +0.000 C 
ATOM      8  C   UNL     1      -6.814  -3.087 128.915  0.00  0.00    +0.000 C 
BRANCH   8   9
ATOM      9  C   UNL     1      -6.704  -3.456 130.321  0.00  0.00    +0.000 A 
ATOM     10  C   UNL     1      -5.793  -4.427 130.754  0.00  0.00    +0.000 A 
ATOM     11  C   UNL     1      -5.648  -4.702 132.114  0.00  0.00    +0.000 A 
ATOM     12  C   UNL     1      -6.414  -3.996 133.035  0.00  0.00    +0.000 A 
ATOM     13  C   UNL     1      -7.325  -3.032 132.621  0.00  0.00    +0.000 A 
ATOM     14  C   UNL     1      -7.468  -2.757 131.262  0.00  0.00    +0.000 A 
BRANCH  12  15
ATOM     15  O   UNL     1      -6.294  -4.211 134.376  0.00  0.00    +0.000 OA
ATOM     16  H   UNL     1      -6.657  -3.443 134.847  0.00  0.00    +0.000 HD
ENDBRANCH  12  15
ENDBRANCH   8   9
ENDBRANCH   3   7
BRANCH   5  17
ATOM     17  O   UNL     1     -10.116  -3.388 123.799  0.00  0.00    +0.000 OA
ATOM     18  H   UNL     1     -10.665  -2.642 123.504  0.00  0.00    +0.000 HD
ENDBRANCH   5  17
BRANCH   1  19
ATOM     19  O   UNL     1      -6.366  -0.587 124.395  0.00  0.00    +0.000 OA
BRANCH  19  22
ATOM     20  C   UNL     1      -7.279   2.819 123.369  0.00  0.00    +0.000 C 
ATOM     21  O   UNL     1      -6.901   1.442 123.290  0.00  0.00    +0.000 OA
ATOM     22  C   UNL     1      -6.687   0.809 124.562  0.00  0.00    +0.000 C 
ATOM     23  C   UNL     1      -5.650   1.541 125.471  0.00  0.00    +0.000 C 
ATOM     24  C   UNL     1      -5.934   3.044 125.511  0.00  0.00    +0.000 C 
ATOM     25  C   UNL     1      -6.186   3.607 124.106  0.00  0.00    +0.000 C 
BRANCH  23  26
ATOM     26  O   UNL     1      -5.589   0.991 126.794  0.00  0.00    +0.000 OA
ATOM     27  H   UNL     1      -6.473   0.697 127.062  0.00  0.00    +0.000 HD
ENDBRANCH  23  26
BRANCH  24  28
ATOM     28  O   UNL     1      -4.832   3.740 126.116  0.00  0.00    +0.000 OA
ATOM     29  H   UNL     1      -4.340   4.211 125.419  0.00  0.00    +0.000 HD
ENDBRANCH  24  28
BRANCH  25  30
ATOM     30  O   UNL     1      -6.520   4.995 124.174  0.00  0.00    +0.000 OA
ATOM     31  H   UNL     1      -7.050   5.226 123.392  0.00  0.00    +0.000 HD
ENDBRANCH  25  30
BRANCH  20  32
ATOM     32  C   UNL     1      -7.403   3.424 121.950  0.00  0.00    +0.000 C 
BRANCH  32  33
ATOM     33  O   UNL     1      -8.728   3.798 121.592  0.00  0.00    +0.000 OA
ATOM     34  H   UNL     1      -8.891   3.372 120.728  0.00  0.00    +0.000 HD
ENDBRANCH  32  33
ENDBRANCH  20  32
ENDBRANCH  19  22
ENDBRANCH   1  19
TORSDOF 11
ENDMDL
MODEL 8
REMARK VINA RESULT:      -7.3      4.827      9.330
REMARK  Name = Polydatin
REMARK  11 active torsions:
REMARK  status: ('A' for Active; 'I' for Inactive)
REMARK    1  A    between atoms: O_1  and  C_2
REMARK    2  A    between atoms: C_2  and  C_3
REMARK    3  A    between atoms: C_5  and  O_6
REMARK    4  A    between atoms: O_6  and  C_7
REMARK    5  A    between atoms: C_9  and  C_10
REMARK    6  A    between atoms: C_11  and  C_12
REMARK    7  A    between atoms: C_15  and  O_16
REMARK    8  A    between atoms: C_20  and  O_21
REMARK    9  A    between atoms: C_23  and  O_24
REMARK   10  A    between atoms: C_25  and  O_26
REMARK   11  A    between atoms: C_27  and  O_28
REMARK                            x       y       z     vdW  Elec       q    Type
REMARK                         _______ _______ _______ _____ _____    ______ ____
ROOT
ATOM      1  C   UNL     1      -7.630  -1.047 125.090  0.00  0.00    +0.000 A 
ATOM      2  C   UNL     1      -7.434  -1.645 126.337  0.00  0.00    +0.000 A 
ATOM      3  C   UNL     1      -8.176  -2.750 126.755  0.00  0.00    +0.000 A 
ATOM      4  C   UNL     1      -9.070  -3.321 125.853  0.00  0.00    +0.000 A 
ATOM      5  C   UNL     1      -9.214  -2.783 124.578  0.00  0.00    +0.000 A 
ATOM      6  C   UNL     1      -8.517  -1.641 124.196  0.00  0.00    +0.000 A 
ENDROOT
BRANCH   3   7
ATOM      7  C   UNL     1      -7.973  -3.215 128.132  0.00  0.00    +0.000 C 
ATOM      8  C   UNL     1      -6.898  -2.906 128.879  0.00  0.00    +0.000 C 
BRANCH   8   9
ATOM      9  C   UNL     1      -6.699  -3.404 130.235  0.00  0.00    +0.000 A 
ATOM     10  C   UNL     1      -5.780  -4.422 130.514  0.00  0.00    +0.000 A 
ATOM     11  C   UNL     1      -5.549  -4.823 131.829  0.00  0.00    +0.000 A 
ATOM     12  C   UNL     1      -6.236  -4.194 132.861  0.00  0.00    +0.000 A 
ATOM     13  C   UNL     1      -7.154  -3.184 132.601  0.00  0.00    +0.000 A 
ATOM     14  C   UNL     1      -7.384  -2.784 131.286  0.00  0.00    +0.000 A 
BRANCH  12  15
ATOM     15  O   UNL     1      -6.030  -4.533 134.166  0.00  0.00    +0.000 OA
ATOM     16  H   UNL     1      -5.729  -5.456 134.202  0.00  0.00    +0.000 HD
ENDBRANCH  12  15
ENDBRANCH   8   9
ENDBRANCH   3   7
BRANCH   5  17
ATOM     17  O   UNL     1     -10.052  -3.369 123.676  0.00  0.00    +0.000 OA
ATOM     18  H   UNL     1     -10.113  -2.792 122.896  0.00  0.00    +0.000 HD
ENDBRANCH   5  17
BRANCH   1  19
ATOM     19  O   UNL     1      -7.023   0.108 124.673  0.00  0.00    +0.000 OA
BRANCH  19  22
ATOM     20  C   UNL     1      -7.449   3.426 126.189  0.00  0.00    +0.000 C 
ATOM     21  O   UNL     1      -7.550   2.346 125.258  0.00  0.00    +0.000 OA
ATOM     22  C   UNL     1      -6.822   1.164 125.635  0.00  0.00    +0.000 C 
ATOM     23  C   UNL     1      -5.308   1.414 125.919  0.00  0.00    +0.000 C 
ATOM     24  C   UNL     1      -5.122   2.631 126.828  0.00  0.00    +0.000 C 
ATOM     25  C   UNL     1      -5.972   3.818 126.357  0.00  0.00    +0.000 C 
BRANCH  23  26
ATOM     26  O   UNL     1      -4.650   0.260 126.461  0.00  0.00    +0.000 OA
ATOM     27  H   UNL     1      -4.151  -0.186 125.759  0.00  0.00    +0.000 HD
ENDBRANCH  23  26
BRANCH  24  28
ATOM     28  O   UNL     1      -3.739   3.017 126.862  0.00  0.00    +0.000 OA
ATOM     29  H   UNL     1      -3.196   2.219 126.999  0.00  0.00    +0.000 HD
ENDBRANCH  24  28
BRANCH  25  30
ATOM     30  O   UNL     1      -5.840   4.919 127.259  0.00  0.00    +0.000 OA
ATOM     31  H   UNL     1      -6.398   5.651 126.942  0.00  0.00    +0.000 HD
ENDBRANCH  25  30
BRANCH  20  32
ATOM     32  C   UNL     1      -8.195   4.670 125.651  0.00  0.00    +0.000 C 
BRANCH  32  33
ATOM     33  O   UNL     1      -8.770   5.486 126.666  0.00  0.00    +0.000 OA
ATOM     34  H   UNL     1      -9.725   5.515 126.462  0.00  0.00    +0.000 HD
ENDBRANCH  32  33
ENDBRANCH  20  32
ENDBRANCH  19  22
ENDBRANCH   1  19
TORSDOF 11
ENDMDL
MODEL 9
REMARK VINA RESULT:      -7.2      4.804      8.973
REMARK  Name = Polydatin
REMARK  11 active torsions:
REMARK  status: ('A' for Active; 'I' for Inactive)
REMARK    1  A    between atoms: O_1  and  C_2
REMARK    2  A    between atoms: C_2  and  C_3
REMARK    3  A    between atoms: C_5  and  O_6
REMARK    4  A    between atoms: O_6  and  C_7
REMARK    5  A    between atoms: C_9  and  C_10
REMARK    6  A    between atoms: C_11  and  C_12
REMARK    7  A    between atoms: C_15  and  O_16
REMARK    8  A    between atoms: C_20  and  O_21
REMARK    9  A    between atoms: C_23  and  O_24
REMARK   10  A    between atoms: C_25  and  O_26
REMARK   11  A    between atoms: C_27  and  O_28
REMARK                            x       y       z     vdW  Elec       q    Type
REMARK                         _______ _______ _______ _____ _____    ______ ____
ROOT
ATOM      1  C   UNL     1      -8.532  -0.582 126.291  0.00  0.00    +0.000 A 
ATOM      2  C   UNL     1      -8.074  -1.304 127.395  0.00  0.00    +0.000 A 
ATOM      3  C   UNL     1      -8.306  -2.673 127.535  0.00  0.00    +0.000 A 
ATOM      4  C   UNL     1      -8.936  -3.343 126.488  0.00  0.00    +0.000 A 
ATOM      5  C   UNL     1      -9.323  -2.647 125.348  0.00  0.00    +0.000 A 
ATOM      6  C   UNL     1      -9.144  -1.271 125.247  0.00  0.00    +0.000 A 
ENDROOT
BRANCH   3   7
ATOM      7  C   UNL     1      -7.890  -3.301 128.794  0.00  0.00    +0.000 C 
ATOM      8  C   UNL     1      -6.969  -2.780 129.624  0.00  0.00    +0.000 C 
BRANCH   8   9
ATOM      9  C   UNL     1      -6.545  -3.436 130.856  0.00  0.00    +0.000 A 
ATOM     10  C   UNL     1      -7.062  -3.060 132.101  0.00  0.00    +0.000 A 
ATOM     11  C   UNL     1      -6.702  -3.758 133.253  0.00  0.00    +0.000 A 
ATOM     12  C   UNL     1      -5.831  -4.837 133.150  0.00  0.00    +0.000 A 
ATOM     13  C   UNL     1      -5.307  -5.220 131.922  0.00  0.00    +0.000 A 
ATOM     14  C   UNL     1      -5.667  -4.523 130.771  0.00  0.00    +0.000 A 
BRANCH  12  15
ATOM     15  O   UNL     1      -5.466  -5.566 134.243  0.00  0.00    +0.000 OA
ATOM     16  H   UNL     1      -5.171  -4.956 134.938  0.00  0.00    +0.000 HD
ENDBRANCH  12  15
ENDBRANCH   8   9
ENDBRANCH   3   7
BRANCH   5  17
ATOM     17  O   UNL     1      -9.895  -3.309 124.301  0.00  0.00    +0.000 OA
ATOM     18  H   UNL     1     -10.858  -3.314 124.432  0.00  0.00    +0.000 HD
ENDBRANCH   5  17
BRANCH   1  19
ATOM     19  O   UNL     1      -8.443   0.779 126.155  0.00  0.00    +0.000 OA
BRANCH  19  22
ATOM     20  C   UNL     1      -8.575   2.695 129.285  0.00  0.00    +0.000 C 
ATOM     21  O   UNL     1      -9.000   1.971 128.128  0.00  0.00    +0.000 OA
ATOM     22  C   UNL     1      -7.933   1.548 127.264  0.00  0.00    +0.000 C 
ATOM     23  C   UNL     1      -7.000   2.707 126.790  0.00  0.00    +0.000 C 
ATOM     24  C   UNL     1      -6.593   3.590 127.972  0.00  0.00    +0.000 C 
ATOM     25  C   UNL     1      -7.801   3.949 128.847  0.00  0.00    +0.000 C 
BRANCH  23  26
ATOM     26  O   UNL     1      -5.848   2.233 126.078  0.00  0.00    +0.000 OA
ATOM     27  H   UNL     1      -5.044   2.508 126.546  0.00  0.00    +0.000 HD
ENDBRANCH  23  26
BRANCH  24  28
ATOM     28  O   UNL     1      -5.970   4.794 127.498  0.00  0.00    +0.000 OA
ATOM     29  H   UNL     1      -6.599   5.532 127.599  0.00  0.00    +0.000 HD
ENDBRANCH  24  28
BRANCH  25  30
ATOM     30  O   UNL     1      -7.388   4.712 129.983  0.00  0.00    +0.000 OA
ATOM     31  H   UNL     1      -6.733   5.371 129.694  0.00  0.00    +0.000 HD
ENDBRANCH  25  30
BRANCH  20  32
ATOM     32  C   UNL     1      -9.799   3.175 130.100  0.00  0.00    +0.000 C 
BRANCH  32  33
ATOM     33  O   UNL     1     -10.363   4.397 129.637  0.00  0.00    +0.000 OA
ATOM     34  H   UNL     1     -11.330   4.283 129.719  0.00  0.00    +0.000 HD
ENDBRANCH  32  33
ENDBRANCH  20  32
ENDBRANCH  19  22
ENDBRANCH   1  19
TORSDOF 11
ENDMDL
