MODEL 1
REMARK VINA RESULT:      -7.5      0.000      0.000
REMARK  Name = Pomalidomide
REMARK  2 active torsions:
REMARK  status: ('A' for Active; 'I' for Inactive)
REMARK    1  A    between atoms: N_1  and  C_2
REMARK    2  A    between atoms: N_10  and  C_11
REMARK                            x       y       z     vdW  Elec       q    Type
REMARK                         _______ _______ _______ _____ _____    ______ ____
ROOT
ATOM      1  C   UNL     1     -11.352   8.005 128.101  0.00  0.00    +0.000 A 
ATOM      2  C   UNL     1     -12.384   8.917 128.452  0.00  0.00    +0.000 A 
ATOM      3  C   UNL     1     -12.919   8.980 129.751  0.00  0.00    +0.000 A 
ATOM      4  C   UNL     1     -12.441   8.119 130.726  0.00  0.00    +0.000 A 
ATOM      5  C   UNL     1     -11.454   7.218 130.356  0.00  0.00    +0.000 A 
ATOM      6  C   UNL     1     -10.905   7.123 129.092  0.00  0.00    +0.000 A 
ATOM      7  C   UNL     1      -9.869   6.025 129.172  0.00  0.00    +0.000 C 
ATOM      8  O   UNL     1      -9.171   5.686 128.241  0.00  0.00    +0.000 OA
ATOM      9  N   UNL     1      -9.854   5.573 130.479  0.00  0.00    +0.000 N 
ATOM     10  C   UNL     1     -10.801   6.253 131.204  0.00  0.00    +0.000 C 
ATOM     11  O   UNL     1     -11.075   6.132 132.394  0.00  0.00    +0.000 OA
ENDROOT
BRANCH   9  12
ATOM     12  C   UNL     1      -9.008   4.604 131.251  0.00  0.00    +0.000 C 
ATOM     13  C   UNL     1      -9.577   3.155 131.236  0.00  0.00    +0.000 C 
ATOM     14  C   UNL     1      -9.411   2.484 132.601  0.00  0.00    +0.000 C 
ATOM     15  C   UNL     1      -7.960   2.429 132.988  0.00  0.00    +0.000 C 
ATOM     16  O   UNL     1      -7.502   1.542 133.704  0.00  0.00    +0.000 OA
ATOM     17  N   UNL     1      -7.183   3.476 132.537  0.00  0.00    +0.000 N 
ATOM     18  C   UNL     1      -7.519   4.560 131.713  0.00  0.00    +0.000 C 
ATOM     19  O   UNL     1      -6.708   5.467 131.555  0.00  0.00    +0.000 OA
ATOM     20  H   UNL     1      -6.247   3.480 132.923  0.00  0.00    +0.000 HD
ENDBRANCH   9  12
BRANCH   1  21
ATOM     21  N   UNL     1     -10.954   7.951 126.773  0.00  0.00    +0.000 N 
ATOM     22  H   UNL     1     -11.181   8.715 126.144  0.00  0.00    +0.000 HD
ATOM     23  H   UNL     1     -10.163   7.365 126.522  0.00  0.00    +0.000 HD
ENDBRANCH   1  21
TORSDOF 2
ENDMDL
MODEL 2
REMARK VINA RESULT:      -7.3      1.174      2.287
REMARK  Name = Pomalidomide
REMARK  2 active torsions:
REMARK  status: ('A' for Active; 'I' for Inactive)
REMARK    1  A    between atoms: N_1  and  C_2
REMARK    2  A    between atoms: N_10  and  C_11
REMARK                            x       y       z     vdW  Elec       q    Type
REMARK                         _______ _______ _______ _____ _____    ______ ____
ROOT
ATOM      1  C   UNL     1     -12.223   8.164 129.789  0.00  0.00    +0.000 A 
ATOM      2  C   UNL     1     -12.353   8.717 128.485  0.00  0.00    +0.000 A 
ATOM      3  C   UNL     1     -11.566   8.282 127.405  0.00  0.00    +0.000 A 
ATOM      4  C   UNL     1     -10.618   7.292 127.608  0.00  0.00    +0.000 A 
ATOM      5  C   UNL     1     -10.488   6.785 128.893  0.00  0.00    +0.000 A 
ATOM      6  C   UNL     1     -11.240   7.187 129.980  0.00  0.00    +0.000 A 
ATOM      7  C   UNL     1     -10.760   6.353 131.146  0.00  0.00    +0.000 C 
ATOM      8  O   UNL     1     -11.221   6.427 132.264  0.00  0.00    +0.000 OA
ATOM      9  N   UNL     1      -9.787   5.497 130.662  0.00  0.00    +0.000 N 
ATOM     10  C   UNL     1      -9.590   5.744 129.326  0.00  0.00    +0.000 C 
ATOM     11  O   UNL     1      -8.817   5.183 128.557  0.00  0.00    +0.000 OA
ENDROOT
BRANCH   9  12
ATOM     12  C   UNL     1      -9.000   4.358 131.240  0.00  0.00    +0.000 C 
ATOM     13  C   UNL     1      -9.791   3.017 131.248  0.00  0.00    +0.000 C 
ATOM     14  C   UNL     1      -9.529   2.231 132.534  0.00  0.00    +0.000 C 
ATOM     15  C   UNL     1      -8.064   1.928 132.678  0.00  0.00    +0.000 C 
ATOM     16  O   UNL     1      -7.651   0.933 133.268  0.00  0.00    +0.000 OA
ATOM     17  N   UNL     1      -7.206   2.875 132.158  0.00  0.00    +0.000 N 
ATOM     18  C   UNL     1      -7.485   4.055 131.453  0.00  0.00    +0.000 C 
ATOM     19  O   UNL     1      -6.572   4.838 131.209  0.00  0.00    +0.000 OA
ATOM     20  H   UNL     1      -6.234   2.710 132.387  0.00  0.00    +0.000 HD
ENDBRANCH   9  12
BRANCH   1  21
ATOM     21  N   UNL     1     -12.977   8.723 130.811  0.00  0.00    +0.000 N 
ATOM     22  H   UNL     1     -12.520   9.250 131.547  0.00  0.00    +0.000 HD
ATOM     23  H   UNL     1     -13.960   8.917 130.643  0.00  0.00    +0.000 HD
ENDBRANCH   1  21
TORSDOF 2
ENDMDL
MODEL 3
REMARK VINA RESULT:      -7.2      7.484     10.167
REMARK  Name = Pomalidomide
REMARK  2 active torsions:
REMARK  status: ('A' for Active; 'I' for Inactive)
REMARK    1  A    between atoms: N_1  and  C_2
REMARK    2  A    between atoms: N_10  and  C_11
REMARK                            x       y       z     vdW  Elec       q    Type
REMARK                         _______ _______ _______ _____ _____    ______ ____
ROOT
ATOM      1  C   UNL     1      -7.508  -1.937 128.764  0.00  0.00    +0.000 A 
ATOM      2  C   UNL     1      -7.869  -3.287 129.022  0.00  0.00    +0.000 A 
ATOM      3  C   UNL     1      -8.600  -4.057 128.101  0.00  0.00    +0.000 A 
ATOM      4  C   UNL     1      -9.001  -3.486 126.904  0.00  0.00    +0.000 A 
ATOM      5  C   UNL     1      -8.664  -2.158 126.683  0.00  0.00    +0.000 A 
ATOM      6  C   UNL     1      -7.949  -1.369 127.563  0.00  0.00    +0.000 A 
ATOM      7  C   UNL     1      -7.812  -0.021 126.892  0.00  0.00    +0.000 C 
ATOM      8  O   UNL     1      -7.217   0.916 127.376  0.00  0.00    +0.000 OA
ATOM      9  N   UNL     1      -8.424  -0.118 125.655  0.00  0.00    +0.000 N 
ATOM     10  C   UNL     1      -8.956  -1.375 125.510  0.00  0.00    +0.000 C 
ATOM     11  O   UNL     1      -9.564  -1.834 124.548  0.00  0.00    +0.000 OA
ENDROOT
BRANCH   9  12
ATOM     12  C   UNL     1      -8.549   0.788 124.465  0.00  0.00    +0.000 C 
ATOM     13  C   UNL     1      -7.256   0.832 123.597  0.00  0.00    +0.000 C 
ATOM     14  C   UNL     1      -6.977   2.251 123.098  0.00  0.00    +0.000 C 
ATOM     15  C   UNL     1      -8.128   2.756 122.275  0.00  0.00    +0.000 C 
ATOM     16  O   UNL     1      -7.982   3.569 121.366  0.00  0.00    +0.000 OA
ATOM     17  N   UNL     1      -9.374   2.295 122.647  0.00  0.00    +0.000 N 
ATOM     18  C   UNL     1      -9.735   1.370 123.638  0.00  0.00    +0.000 C 
ATOM     19  O   UNL     1     -10.922   1.212 123.907  0.00  0.00    +0.000 OA
ATOM     20  H   UNL     1     -10.136   2.753 122.163  0.00  0.00    +0.000 HD
ENDBRANCH   9  12
BRANCH   1  21
ATOM     21  N   UNL     1      -6.868  -1.230 129.771  0.00  0.00    +0.000 N 
ATOM     22  H   UNL     1      -6.189  -0.514 129.536  0.00  0.00    +0.000 HD
ATOM     23  H   UNL     1      -7.316  -1.162 130.681  0.00  0.00    +0.000 HD
ENDBRANCH   1  21
TORSDOF 2
ENDMDL
MODEL 4
REMARK VINA RESULT:      -7.1      8.221      9.572
REMARK  Name = Pomalidomide
REMARK  2 active torsions:
REMARK  status: ('A' for Active; 'I' for Inactive)
REMARK    1  A    between atoms: N_1  and  C_2
REMARK    2  A    between atoms: N_10  and  C_11
REMARK                            x       y       z     vdW  Elec       q    Type
REMARK                         _______ _______ _______ _____ _____    ______ ____
ROOT
ATOM      1  C   UNL     1      -8.047   4.213 119.412  0.00  0.00    +0.000 A 
ATOM      2  C   UNL     1      -7.394   4.879 118.339  0.00  0.00    +0.000 A 
ATOM      3  C   UNL     1      -6.068   5.337 118.437  0.00  0.00    +0.000 A 
ATOM      4  C   UNL     1      -5.370   5.153 119.619  0.00  0.00    +0.000 A 
ATOM      5  C   UNL     1      -6.034   4.526 120.663  0.00  0.00    +0.000 A 
ATOM      6  C   UNL     1      -7.334   4.063 120.607  0.00  0.00    +0.000 A 
ATOM      7  C   UNL     1      -7.613   3.447 121.959  0.00  0.00    +0.000 C 
ATOM      8  O   UNL     1      -8.662   2.919 122.257  0.00  0.00    +0.000 OA
ATOM      9  N   UNL     1      -6.453   3.557 122.705  0.00  0.00    +0.000 N 
ATOM     10  C   UNL     1      -5.500   4.212 121.965  0.00  0.00    +0.000 C 
ATOM     11  O   UNL     1      -4.349   4.488 122.286  0.00  0.00    +0.000 OA
ENDROOT
BRANCH   9  12
ATOM     12  C   UNL     1      -6.013   3.064 124.051  0.00  0.00    +0.000 C 
ATOM     13  C   UNL     1      -5.612   4.217 125.018  0.00  0.00    +0.000 C 
ATOM     14  C   UNL     1      -4.383   3.838 125.847  0.00  0.00    +0.000 C 
ATOM     15  C   UNL     1      -4.654   2.601 126.657  0.00  0.00    +0.000 C 
ATOM     16  O   UNL     1      -4.107   2.386 127.735  0.00  0.00    +0.000 OA
ATOM     17  N   UNL     1      -5.514   1.689 126.081  0.00  0.00    +0.000 N 
ATOM     18  C   UNL     1      -6.234   1.761 124.879  0.00  0.00    +0.000 C 
ATOM     19  O   UNL     1      -6.831   0.767 124.477  0.00  0.00    +0.000 OA
ATOM     20  H   UNL     1      -5.572   0.813 126.586  0.00  0.00    +0.000 HD
ENDBRANCH   9  12
BRANCH   1  21
ATOM     21  N   UNL     1      -9.384   3.881 119.254  0.00  0.00    +0.000 N 
ATOM     22  H   UNL     1      -9.856   4.078 118.378  0.00  0.00    +0.000 HD
ATOM     23  H   UNL     1      -9.778   3.147 119.837  0.00  0.00    +0.000 HD
ENDBRANCH   1  21
TORSDOF 2
ENDMDL
MODEL 5
REMARK VINA RESULT:      -7.0      1.768      6.399
REMARK  Name = Pomalidomide
REMARK  2 active torsions:
REMARK  status: ('A' for Active; 'I' for Inactive)
REMARK    1  A    between atoms: N_1  and  C_2
REMARK    2  A    between atoms: N_10  and  C_11
REMARK                            x       y       z     vdW  Elec       q    Type
REMARK                         _______ _______ _______ _____ _____    ______ ____
ROOT
ATOM      1  C   UNL     1      -7.527   3.199 132.434  0.00  0.00    +0.000 A 
ATOM      2  C   UNL     1      -7.691   1.810 132.691  0.00  0.00    +0.000 A 
ATOM      3  C   UNL     1      -8.818   1.094 132.253  0.00  0.00    +0.000 A 
ATOM      4  C   UNL     1      -9.818   1.757 131.559  0.00  0.00    +0.000 A 
ATOM      5  C   UNL     1      -9.653   3.118 131.343  0.00  0.00    +0.000 A 
ATOM      6  C   UNL     1      -8.562   3.856 131.758  0.00  0.00    +0.000 A 
ATOM      7  C   UNL     1      -8.816   5.270 131.287  0.00  0.00    +0.000 C 
ATOM      8  O   UNL     1      -8.045   6.188 131.461  0.00  0.00    +0.000 OA
ATOM      9  N   UNL     1     -10.017   5.261 130.600  0.00  0.00    +0.000 N 
ATOM     10  C   UNL     1     -10.548   3.995 130.632  0.00  0.00    +0.000 C 
ATOM     11  O   UNL     1     -11.594   3.600 130.128  0.00  0.00    +0.000 OA
ENDROOT
BRANCH   9  12
ATOM     12  C   UNL     1     -10.781   6.272 129.797  0.00  0.00    +0.000 C 
ATOM     13  C   UNL     1     -11.655   7.212 130.679  0.00  0.00    +0.000 C 
ATOM     14  C   UNL     1     -13.006   7.490 130.016  0.00  0.00    +0.000 C 
ATOM     15  C   UNL     1     -12.812   8.132 128.672  0.00  0.00    +0.000 C 
ATOM     16  O   UNL     1     -13.635   8.903 128.185  0.00  0.00    +0.000 OA
ATOM     17  N   UNL     1     -11.675   7.752 127.989  0.00  0.00    +0.000 N 
ATOM     18  C   UNL     1     -10.628   6.903 128.379  0.00  0.00    +0.000 C 
ATOM     19  O   UNL     1      -9.780   6.579 127.554  0.00  0.00    +0.000 OA
ATOM     20  H   UNL     1     -11.641   8.097 127.037  0.00  0.00    +0.000 HD
ENDBRANCH   9  12
BRANCH   1  21
ATOM     21  N   UNL     1      -6.427   3.838 132.986  0.00  0.00    +0.000 N 
ATOM     22  H   UNL     1      -6.083   3.558 133.899  0.00  0.00    +0.000 HD
ATOM     23  H   UNL     1      -5.770   4.304 132.367  0.00  0.00    +0.000 HD
ENDBRANCH   1  21
TORSDOF 2
ENDMDL
MODEL 6
REMARK VINA RESULT:      -6.8      7.137      9.385
REMARK  Name = Pomalidomide
REMARK  2 active torsions:
REMARK  status: ('A' for Active; 'I' for Inactive)
REMARK    1  A    between atoms: N_1  and  C_2
REMARK    2  A    between atoms: N_10  and  C_11
REMARK                            x       y       z     vdW  Elec       q    Type
REMARK                         _______ _______ _______ _____ _____    ______ ____
ROOT
ATOM      1  C   UNL     1      -8.908  -2.788 125.640  0.00  0.00    +0.000 A 
ATOM      2  C   UNL     1      -9.307  -3.541 124.501  0.00  0.00    +0.000 A 
ATOM      3  C   UNL     1      -9.312  -2.994 123.206  0.00  0.00    +0.000 A 
ATOM      4  C   UNL     1      -8.931  -1.674 123.023  0.00  0.00    +0.000 A 
ATOM      5  C   UNL     1      -8.573  -0.949 124.150  0.00  0.00    +0.000 A 
ATOM      6  C   UNL     1      -8.557  -1.449 125.438  0.00  0.00    +0.000 A 
ATOM      7  C   UNL     1      -8.089  -0.311 126.317  0.00  0.00    +0.000 C 
ATOM      8  O   UNL     1      -7.935  -0.404 127.515  0.00  0.00    +0.000 OA
ATOM      9  N   UNL     1      -7.830   0.765 125.488  0.00  0.00    +0.000 N 
ATOM     10  C   UNL     1      -8.127   0.420 124.192  0.00  0.00    +0.000 C 
ATOM     11  O   UNL     1      -8.019   1.108 123.182  0.00  0.00    +0.000 OA
ENDROOT
BRANCH   9  12
ATOM     12  C   UNL     1      -7.245   2.132 125.684  0.00  0.00    +0.000 C 
ATOM     13  C   UNL     1      -5.687   2.132 125.677  0.00  0.00    +0.000 C 
ATOM     14  C   UNL     1      -5.133   3.093 126.731  0.00  0.00    +0.000 C 
ATOM     15  C   UNL     1      -5.616   4.492 126.477  0.00  0.00    +0.000 C 
ATOM     16  O   UNL     1      -4.964   5.483 126.794  0.00  0.00    +0.000 OA
ATOM     17  N   UNL     1      -6.873   4.595 125.917  0.00  0.00    +0.000 N 
ATOM     18  C   UNL     1      -7.753   3.593 125.483  0.00  0.00    +0.000 C 
ATOM     19  O   UNL     1      -8.894   3.899 125.150  0.00  0.00    +0.000 OA
ATOM     20  H   UNL     1      -7.223   5.545 125.881  0.00  0.00    +0.000 HD
ENDBRANCH   9  12
BRANCH   1  21
ATOM     21  N   UNL     1      -9.026  -3.384 126.887  0.00  0.00    +0.000 N 
ATOM     22  H   UNL     1      -9.594  -2.948 127.606  0.00  0.00    +0.000 HD
ATOM     23  H   UNL     1      -8.864  -4.384 126.969  0.00  0.00    +0.000 HD
ENDBRANCH   1  21
TORSDOF 2
ENDMDL
MODEL 7
REMARK VINA RESULT:      -6.8      2.059      6.331
REMARK  Name = Pomalidomide
REMARK  2 active torsions:
REMARK  status: ('A' for Active; 'I' for Inactive)
REMARK    1  A    between atoms: N_1  and  C_2
REMARK    2  A    between atoms: N_10  and  C_11
REMARK                            x       y       z     vdW  Elec       q    Type
REMARK                         _______ _______ _______ _____ _____    ______ ____
ROOT
ATOM      1  C   UNL     1      -7.793   2.428 131.647  0.00  0.00    +0.000 A 
ATOM      2  C   UNL     1      -7.170   2.187 132.902  0.00  0.00    +0.000 A 
ATOM      3  C   UNL     1      -7.305   3.071 133.988  0.00  0.00    +0.000 A 
ATOM      4  C   UNL     1      -8.055   4.226 133.836  0.00  0.00    +0.000 A 
ATOM      5  C   UNL     1      -8.630   4.457 132.595  0.00  0.00    +0.000 A 
ATOM      6  C   UNL     1      -8.520   3.615 131.505  0.00  0.00    +0.000 A 
ATOM      7  C   UNL     1      -9.318   4.266 130.398  0.00  0.00    +0.000 C 
ATOM      8  O   UNL     1      -9.458   3.785 129.295  0.00  0.00    +0.000 OA
ATOM      9  N   UNL     1      -9.869   5.423 130.918  0.00  0.00    +0.000 N 
ATOM     10  C   UNL     1      -9.462   5.573 132.221  0.00  0.00    +0.000 C 
ATOM     11  O   UNL     1      -9.751   6.469 133.006  0.00  0.00    +0.000 OA
ENDROOT
BRANCH   9  12
ATOM     12  C   UNL     1     -10.835   6.453 130.411  0.00  0.00    +0.000 C 
ATOM     13  C   UNL     1     -10.634   6.783 128.903  0.00  0.00    +0.000 C 
ATOM     14  C   UNL     1     -10.810   8.280 128.640  0.00  0.00    +0.000 C 
ATOM     15  C   UNL     1     -12.183   8.731 129.053  0.00  0.00    +0.000 C 
ATOM     16  O   UNL     1     -12.760   9.668 128.510  0.00  0.00    +0.000 OA
ATOM     17  N   UNL     1     -12.730   8.062 130.128  0.00  0.00    +0.000 N 
ATOM     18  C   UNL     1     -12.234   6.975 130.863  0.00  0.00    +0.000 C 
ATOM     19  O   UNL     1     -12.817   6.625 131.884  0.00  0.00    +0.000 OA
ATOM     20  H   UNL     1     -13.592   8.474 130.465  0.00  0.00    +0.000 HD
ENDBRANCH   9  12
BRANCH   1  21
ATOM     21  N   UNL     1      -7.525   1.548 130.608  0.00  0.00    +0.000 N 
ATOM     22  H   UNL     1      -8.290   1.127 130.091  0.00  0.00    +0.000 HD
ATOM     23  H   UNL     1      -6.625   1.603 130.141  0.00  0.00    +0.000 HD
ENDBRANCH   1  21
TORSDOF 2
ENDMDL
MODEL 8
REMARK VINA RESULT:      -6.8      8.450      9.703
REMARK  Name = Pomalidomide
REMARK  2 active torsions:
REMARK  status: ('A' for Active; 'I' for Inactive)
REMARK    1  A    between atoms: N_1  and  C_2
REMARK    2  A    between atoms: N_10  and  C_11
REMARK                            x       y       z     vdW  Elec       q    Type
REMARK                         _______ _______ _______ _____ _____    ______ ____
ROOT
ATOM      1  C   UNL     1      -7.387  -1.802 123.931  0.00  0.00    +0.000 A 
ATOM      2  C   UNL     1      -8.395  -2.298 123.060  0.00  0.00    +0.000 A 
ATOM      3  C   UNL     1      -9.434  -3.131 123.513  0.00  0.00    +0.000 A 
ATOM      4  C   UNL     1      -9.478  -3.499 124.848  0.00  0.00    +0.000 A 
ATOM      5  C   UNL     1      -8.469  -3.028 125.675  0.00  0.00    +0.000 A 
ATOM      6  C   UNL     1      -7.432  -2.211 125.269  0.00  0.00    +0.000 A 
ATOM      7  C   UNL     1      -6.603  -1.948 126.506  0.00  0.00    +0.000 C 
ATOM      8  O   UNL     1      -5.618  -1.244 126.521  0.00  0.00    +0.000 OA
ATOM      9  N   UNL     1      -7.224  -2.597 127.558  0.00  0.00    +0.000 N 
ATOM     10  C   UNL     1      -8.329  -3.265 127.090  0.00  0.00    +0.000 C 
ATOM     11  O   UNL     1      -9.130  -3.942 127.725  0.00  0.00    +0.000 OA
ENDROOT
BRANCH   9  12
ATOM     12  C   UNL     1      -7.002  -2.655 129.041  0.00  0.00    +0.000 C 
ATOM     13  C   UNL     1      -5.705  -3.423 129.431  0.00  0.00    +0.000 C 
ATOM     14  C   UNL     1      -5.929  -4.285 130.675  0.00  0.00    +0.000 C 
ATOM     15  C   UNL     1      -6.354  -3.433 131.838  0.00  0.00    +0.000 C 
ATOM     16  O   UNL     1      -6.100  -3.732 133.002  0.00  0.00    +0.000 OA
ATOM     17  N   UNL     1      -7.105  -2.321 131.518  0.00  0.00    +0.000 N 
ATOM     18  C   UNL     1      -7.484  -1.818 130.265  0.00  0.00    +0.000 C 
ATOM     19  O   UNL     1      -8.285  -0.890 130.209  0.00  0.00    +0.000 OA
ATOM     20  H   UNL     1      -7.486  -1.844 132.326  0.00  0.00    +0.000 HD
ENDBRANCH   9  12
BRANCH   1  21
ATOM     21  N   UNL     1      -6.352  -1.065 123.375  0.00  0.00    +0.000 N 
ATOM     22  H   UNL     1      -5.389  -1.348 123.526  0.00  0.00    +0.000 HD
ATOM     23  H   UNL     1      -6.543  -0.493 122.557  0.00  0.00    +0.000 HD
ENDBRANCH   1  21
TORSDOF 2
ENDMDL
MODEL 9
REMARK VINA RESULT:      -6.6      7.565     10.034
REMARK  Name = Pomalidomide
REMARK  2 active torsions:
REMARK  status: ('A' for Active; 'I' for Inactive)
REMARK    1  A    between atoms: N_1  and  C_2
REMARK    2  A    between atoms: N_10  and  C_11
REMARK                            x       y       z     vdW  Elec       q    Type
REMARK                         _______ _______ _______ _____ _____    ______ ____
ROOT
ATOM      1  C   UNL     1      -8.485  -3.174 128.128  0.00  0.00    +0.000 A 
ATOM      2  C   UNL     1      -7.867  -3.121 129.408  0.00  0.00    +0.000 A 
ATOM      3  C   UNL     1      -7.143  -1.998 129.845  0.00  0.00    +0.000 A 
ATOM      4  C   UNL     1      -7.008  -0.906 129.003  0.00  0.00    +0.000 A 
ATOM      5  C   UNL     1      -7.594  -0.989 127.748  0.00  0.00    +0.000 A 
ATOM      6  C   UNL     1      -8.310  -2.073 127.282  0.00  0.00    +0.000 A 
ATOM      7  C   UNL     1      -8.763  -1.701 125.888  0.00  0.00    +0.000 C 
ATOM      8  O   UNL     1      -9.441  -2.418 125.185  0.00  0.00    +0.000 OA
ATOM      9  N   UNL     1      -8.314  -0.417 125.643  0.00  0.00    +0.000 N 
ATOM     10  C   UNL     1      -7.598   0.028 126.727  0.00  0.00    +0.000 C 
ATOM     11  O   UNL     1      -7.053   1.116 126.880  0.00  0.00    +0.000 OA
ENDROOT
BRANCH   9  12
ATOM     12  C   UNL     1      -8.505   0.574 124.533  0.00  0.00    +0.000 C 
ATOM     13  C   UNL     1      -7.289   0.639 123.561  0.00  0.00    +0.000 C 
ATOM     14  C   UNL     1      -7.001   2.080 123.136  0.00  0.00    +0.000 C 
ATOM     15  C   UNL     1      -8.197   2.678 122.452  0.00  0.00    +0.000 C 
ATOM     16  O   UNL     1      -8.098   3.548 121.591  0.00  0.00    +0.000 OA
ATOM     17  N   UNL     1      -9.423   2.231 122.898  0.00  0.00    +0.000 N 
ATOM     18  C   UNL     1      -9.734   1.250 123.852  0.00  0.00    +0.000 C 
ATOM     19  O   UNL     1     -10.899   1.111 124.211  0.00  0.00    +0.000 OA
ATOM     20  H   UNL     1     -10.206   2.746 122.514  0.00  0.00    +0.000 HD
ENDBRANCH   9  12
BRANCH   1  21
ATOM     21  N   UNL     1      -9.097  -4.360 127.750  0.00  0.00    +0.000 N 
ATOM     22  H   UNL     1      -8.837  -4.809 126.878  0.00  0.00    +0.000 HD
ATOM     23  H   UNL     1      -9.510  -4.948 128.468  0.00  0.00    +0.000 HD
ENDBRANCH   1  21
TORSDOF 2
ENDMDL
