MODEL 1
REMARK VINA RESULT:      -9.7      0.000      0.000
REMARK  Name = Ponatinib
REMARK  9 active torsions:
REMARK  status: ('A' for Active; 'I' for Inactive)
REMARK    1  A    between atoms: C_1  and  N_2
REMARK    2  A    between atoms: N_5  and  C_6
REMARK    3  A    between atoms: C_6  and  C_7
REMARK    4  A    between atoms: C_10  and  N_11
REMARK    5  A    between atoms: C_12  and  C_14
REMARK    6  A    between atoms: C_16  and  C_17
REMARK    7  A    between atoms: C_18  and  C_19
REMARK    8  A    between atoms: C_28  and  C_29
REMARK    9  A    between atoms: C_33  and  C_34
REMARK                            x       y       z     vdW  Elec       q    Type
REMARK                         _______ _______ _______ _____ _____    ______ ____
ROOT
ATOM      1  N   UNL     1      -3.043   7.644 133.610  0.00  0.00    +0.000 N 
ATOM      2  C   UNL     1      -3.790   7.136 132.533  0.00  0.00    +0.000 C 
ATOM      3  O   UNL     1      -3.621   7.306 131.328  0.00  0.00    +0.000 OA
ATOM      4  H   UNL     1      -3.321   7.449 134.559  0.00  0.00    +0.000 HD
ENDROOT
BRANCH   2   5
ATOM      5  C   UNL     1      -4.977   6.335 132.825  0.00  0.00    +0.000 A 
ATOM      6  C   UNL     1      -6.088   6.416 131.952  0.00  0.00    +0.000 A 
ATOM      7  C   UNL     1      -7.329   5.895 132.336  0.00  0.00    +0.000 A 
ATOM      8  C   UNL     1      -7.390   5.174 133.543  0.00  0.00    +0.000 A 
ATOM      9  C   UNL     1      -8.610   4.389 133.930  0.00  0.00    +0.000 C 
ATOM     10  C   UNL     1      -6.275   5.130 134.413  0.00  0.00    +0.000 A 
ATOM     11  C   UNL     1      -5.072   5.725 134.067  0.00  0.00    +0.000 A 
BRANCH   7  12
ATOM     12  C   UNL     1      -8.529   6.158 131.571  0.00  0.00    +0.000 C 
ATOM     13  C   UNL     1      -9.601   6.373 131.021  0.00  0.00    +0.000 C 
BRANCH  13  14
ATOM     14  C   UNL     1     -10.824   6.652 130.330  0.00  0.00    +0.000 A 
ATOM     15  C   UNL     1     -12.071   6.796 130.909  0.00  0.00    +0.000 A 
ATOM     16  N   UNL     1     -13.045   7.084 129.985  0.00  0.00    +0.000 NA
ATOM     17  C   UNL     1     -12.418   7.113 128.829  0.00  0.00    +0.000 A 
ATOM     18  C   UNL     1     -12.915   7.365 127.527  0.00  0.00    +0.000 A 
ATOM     19  C   UNL     1     -12.075   7.340 126.488  0.00  0.00    +0.000 A 
ATOM     20  C   UNL     1     -10.653   7.042 126.785  0.00  0.00    +0.000 A 
ATOM     21  N   UNL     1     -10.132   6.808 127.952  0.00  0.00    +0.000 NA
ATOM     22  N   UNL     1     -11.054   6.850 128.973  0.00  0.00    +0.000 N 
ENDBRANCH  13  14
ENDBRANCH   7  12
ENDBRANCH   2   5
BRANCH   1  26
ATOM     23  C   UNL     1       0.219  10.370 133.277  0.00  0.00    +0.000 A 
ATOM     24  C   UNL     1       0.486   9.004 133.388  0.00  0.00    +0.000 A 
ATOM     25  C   UNL     1      -0.589   8.071 133.404  0.00  0.00    +0.000 A 
ATOM     26  C   UNL     1      -1.931   8.492 133.452  0.00  0.00    +0.000 A 
ATOM     27  C   UNL     1      -2.182   9.818 133.335  0.00  0.00    +0.000 A 
ATOM     28  C   UNL     1      -1.165  10.702 133.177  0.00  0.00    +0.000 A 
BRANCH  28  29
ATOM     29  C   UNL     1      -1.700  12.018 132.814  0.00  0.00    +0.000 C 
ATOM     30  F   UNL     1      -1.440  13.141 133.525  0.00  0.00    +0.000 F 
ATOM     31  F   UNL     1      -1.448  12.370 131.528  0.00  0.00    +0.000 F 
ATOM     32  F   UNL     1      -2.967  11.810 133.114  0.00  0.00    +0.000 F 
ENDBRANCH  28  29
BRANCH  23  33
ATOM     33  C   UNL     1       1.372  11.412 133.093  0.00  0.00    +0.000 C 
BRANCH  33  38
ATOM     34  C   UNL     1       0.346  15.127 136.205  0.00  0.00    +0.000 C 
ATOM     35  N   UNL     1       1.364  14.087 135.970  0.00  0.00    +0.000 NA
ATOM     36  C   UNL     1       1.920  14.203 134.591  0.00  0.00    +0.000 C 
ATOM     37  C   UNL     1       2.876  13.030 134.210  0.00  0.00    +0.000 C 
ATOM     38  N   UNL     1       2.281  11.678 134.252  0.00  0.00    +0.000 NA
ATOM     39  C   UNL     1       1.659  11.603 135.587  0.00  0.00    +0.000 C 
ATOM     40  C   UNL     1       0.676  12.806 135.990  0.00  0.00    +0.000 C 
ENDBRANCH  33  38
ENDBRANCH  23  33
ENDBRANCH   1  26
TORSDOF 7
ENDMDL
MODEL 2
REMARK VINA RESULT:      -9.5      5.405      6.490
REMARK  Name = Ponatinib
REMARK  9 active torsions:
REMARK  status: ('A' for Active; 'I' for Inactive)
REMARK    1  A    between atoms: C_1  and  N_2
REMARK    2  A    between atoms: N_5  and  C_6
REMARK    3  A    between atoms: C_6  and  C_7
REMARK    4  A    between atoms: C_10  and  N_11
REMARK    5  A    between atoms: C_12  and  C_14
REMARK    6  A    between atoms: C_16  and  C_17
REMARK    7  A    between atoms: C_18  and  C_19
REMARK    8  A    between atoms: C_28  and  C_29
REMARK    9  A    between atoms: C_33  and  C_34
REMARK                            x       y       z     vdW  Elec       q    Type
REMARK                         _______ _______ _______ _____ _____    ______ ____
ROOT
ATOM      1  N   UNL     1      -3.216   5.440 130.186  0.00  0.00    +0.000 N 
ATOM      2  C   UNL     1      -3.041   5.369 128.792  0.00  0.00    +0.000 C 
ATOM      3  O   UNL     1      -2.597   6.220 128.026  0.00  0.00    +0.000 OA
ATOM      4  H   UNL     1      -3.630   4.670 130.686  0.00  0.00    +0.000 HD
ENDROOT
BRANCH   2   5
ATOM      5  C   UNL     1      -3.482   4.162 128.096  0.00  0.00    +0.000 A 
ATOM      6  C   UNL     1      -3.994   4.280 126.781  0.00  0.00    +0.000 A 
ATOM      7  C   UNL     1      -4.679   3.213 126.191  0.00  0.00    +0.000 A 
ATOM      8  C   UNL     1      -4.714   1.991 126.889  0.00  0.00    +0.000 A 
ATOM      9  C   UNL     1      -5.222   0.732 126.247  0.00  0.00    +0.000 C 
ATOM     10  C   UNL     1      -4.222   1.904 128.212  0.00  0.00    +0.000 A 
ATOM     11  C   UNL     1      -3.622   2.992 128.827  0.00  0.00    +0.000 A 
BRANCH   7  12
ATOM     12  C   UNL     1      -5.403   3.374 124.948  0.00  0.00    +0.000 C 
ATOM     13  C   UNL     1      -6.056   3.407 123.913  0.00  0.00    +0.000 C 
BRANCH  13  14
ATOM     14  C   UNL     1      -6.818   3.509 122.705  0.00  0.00    +0.000 A 
ATOM     15  C   UNL     1      -8.113   3.060 122.520  0.00  0.00    +0.000 A 
ATOM     16  N   UNL     1      -8.581   3.324 121.255  0.00  0.00    +0.000 NA
ATOM     17  C   UNL     1      -7.585   3.927 120.645  0.00  0.00    +0.000 A 
ATOM     18  C   UNL     1      -7.495   4.432 119.324  0.00  0.00    +0.000 A 
ATOM     19  C   UNL     1      -6.362   5.016 118.921  0.00  0.00    +0.000 A 
ATOM     20  C   UNL     1      -5.259   5.090 119.910  0.00  0.00    +0.000 A 
ATOM     21  N   UNL     1      -5.277   4.653 121.133  0.00  0.00    +0.000 NA
ATOM     22  N   UNL     1      -6.473   4.066 121.479  0.00  0.00    +0.000 N 
ENDBRANCH  13  14
ENDBRANCH   7  12
ENDBRANCH   2   5
BRANCH   1  26
ATOM     23  C   UNL     1      -2.041   8.841 132.475  0.00  0.00    +0.000 A 
ATOM     24  C   UNL     1      -3.083   8.969 131.554  0.00  0.00    +0.000 A 
ATOM     25  C   UNL     1      -3.552   7.825 130.850  0.00  0.00    +0.000 A 
ATOM     26  C   UNL     1      -2.905   6.580 130.950  0.00  0.00    +0.000 A 
ATOM     27  C   UNL     1      -1.900   6.460 131.851  0.00  0.00    +0.000 A 
ATOM     28  C   UNL     1      -1.541   7.513 132.628  0.00  0.00    +0.000 A 
BRANCH  28  29
ATOM     29  C   UNL     1      -0.629   7.064 133.685  0.00  0.00    +0.000 C 
ATOM     30  F   UNL     1       0.632   7.536 133.821  0.00  0.00    +0.000 F 
ATOM     31  F   UNL     1      -1.158   7.157 134.932  0.00  0.00    +0.000 F 
ATOM     32  F   UNL     1      -0.402   5.841 133.248  0.00  0.00    +0.000 F 
ENDBRANCH  28  29
BRANCH  23  33
ATOM     33  C   UNL     1      -1.606  10.037 133.384  0.00  0.00    +0.000 C 
BRANCH  33  38
ATOM     34  C   UNL     1      -0.521  14.300 135.664  0.00  0.00    +0.000 C 
ATOM     35  N   UNL     1       0.020  13.385 134.642  0.00  0.00    +0.000 NA
ATOM     36  C   UNL     1      -0.970  13.184 133.545  0.00  0.00    +0.000 C 
ATOM     37  C   UNL     1      -0.538  12.094 132.515  0.00  0.00    +0.000 C 
ATOM     38  N   UNL     1      -0.323  10.740 133.067  0.00  0.00    +0.000 NA
ATOM     39  C   UNL     1       0.590  10.958 134.204  0.00  0.00    +0.000 C 
ATOM     40  C   UNL     1       0.156  12.079 135.268  0.00  0.00    +0.000 C 
ENDBRANCH  33  38
ENDBRANCH  23  33
ENDBRANCH   1  26
TORSDOF 7
ENDMDL
MODEL 3
REMARK VINA RESULT:      -9.1      2.139      3.359
REMARK  Name = Ponatinib
REMARK  9 active torsions:
REMARK  status: ('A' for Active; 'I' for Inactive)
REMARK    1  A    between atoms: C_1  and  N_2
REMARK    2  A    between atoms: N_5  and  C_6
REMARK    3  A    between atoms: C_6  and  C_7
REMARK    4  A    between atoms: C_10  and  N_11
REMARK    5  A    between atoms: C_12  and  C_14
REMARK    6  A    between atoms: C_16  and  C_17
REMARK    7  A    between atoms: C_18  and  C_19
REMARK    8  A    between atoms: C_28  and  C_29
REMARK    9  A    between atoms: C_33  and  C_34
REMARK                            x       y       z     vdW  Elec       q    Type
REMARK                         _______ _______ _______ _____ _____    ______ ____
ROOT
ATOM      1  N   UNL     1      -2.321   9.538 132.749  0.00  0.00    +0.000 N 
ATOM      2  C   UNL     1      -1.892   8.226 132.480  0.00  0.00    +0.000 C 
ATOM      3  O   UNL     1      -0.882   7.648 132.875  0.00  0.00    +0.000 OA
ATOM      4  H   UNL     1      -3.161   9.896 132.324  0.00  0.00    +0.000 HD
ENDROOT
BRANCH   2   5
ATOM      5  C   UNL     1      -2.686   7.408 131.566  0.00  0.00    +0.000 A 
ATOM      6  C   UNL     1      -4.087   7.607 131.513  0.00  0.00    +0.000 A 
ATOM      7  C   UNL     1      -4.909   6.673 130.873  0.00  0.00    +0.000 A 
ATOM      8  C   UNL     1      -4.286   5.623 130.175  0.00  0.00    +0.000 A 
ATOM      9  C   UNL     1      -5.064   4.706 129.274  0.00  0.00    +0.000 C 
ATOM     10  C   UNL     1      -2.889   5.427 130.264  0.00  0.00    +0.000 A 
ATOM     11  C   UNL     1      -2.086   6.307 130.975  0.00  0.00    +0.000 A 
BRANCH   7  12
ATOM     12  C   UNL     1      -6.351   6.728 130.994  0.00  0.00    +0.000 C 
ATOM     13  C   UNL     1      -7.574   6.690 131.021  0.00  0.00    +0.000 C 
BRANCH  13  14
ATOM     14  C   UNL     1      -9.003   6.674 131.108  0.00  0.00    +0.000 A 
ATOM     15  C   UNL     1      -9.751   6.082 132.110  0.00  0.00    +0.000 A 
ATOM     16  N   UNL     1     -11.101   6.258 131.927  0.00  0.00    +0.000 NA
ATOM     17  C   UNL     1     -11.204   6.949 130.813  0.00  0.00    +0.000 A 
ATOM     18  C   UNL     1     -12.355   7.423 130.137  0.00  0.00    +0.000 A 
ATOM     19  C   UNL     1     -12.211   8.114 129.001  0.00  0.00    +0.000 A 
ATOM     20  C   UNL     1     -10.824   8.335 128.525  0.00  0.00    +0.000 A 
ATOM     21  N   UNL     1      -9.729   7.933 129.097  0.00  0.00    +0.000 NA
ATOM     22  N   UNL     1      -9.953   7.231 130.259  0.00  0.00    +0.000 N 
ENDBRANCH  13  14
ENDBRANCH   7  12
ENDBRANCH   2   5
BRANCH   1  26
ATOM     23  C   UNL     1      -0.117  12.428 134.980  0.00  0.00    +0.000 A 
ATOM     24  C   UNL     1      -1.169  11.750 135.600  0.00  0.00    +0.000 A 
ATOM     25  C   UNL     1      -1.854  10.716 134.903  0.00  0.00    +0.000 A 
ATOM     26  C   UNL     1      -1.596  10.443 133.547  0.00  0.00    +0.000 A 
ATOM     27  C   UNL     1      -0.569  11.098 132.955  0.00  0.00    +0.000 A 
ATOM     28  C   UNL     1       0.180  11.985 133.656  0.00  0.00    +0.000 A 
BRANCH  28  29
ATOM     29  C   UNL     1       1.371  12.354 132.884  0.00  0.00    +0.000 C 
ATOM     30  F   UNL     1       1.734  13.638 132.658  0.00  0.00    +0.000 F 
ATOM     31  F   UNL     1       2.508  11.756 133.320  0.00  0.00    +0.000 F 
ATOM     32  F   UNL     1       0.954  11.990 131.687  0.00  0.00    +0.000 F 
ENDBRANCH  28  29
BRANCH  23  33
ATOM     33  C   UNL     1       0.764  13.456 135.765  0.00  0.00    +0.000 C 
BRANCH  33  38
ATOM     34  C   UNL     1       2.005  15.979 139.844  0.00  0.00    +0.000 C 
ATOM     35  N   UNL     1       1.174  16.109 138.633  0.00  0.00    +0.000 NA
ATOM     36  C   UNL     1       0.206  14.979 138.540  0.00  0.00    +0.000 C 
ATOM     37  C   UNL     1      -0.589  14.955 137.197  0.00  0.00    +0.000 C 
ATOM     38  N   UNL     1       0.229  14.838 135.971  0.00  0.00    +0.000 NA
ATOM     39  C   UNL     1       1.237  15.905 136.111  0.00  0.00    +0.000 C 
ATOM     40  C   UNL     1       2.058  15.940 137.490  0.00  0.00    +0.000 C 
ENDBRANCH  33  38
ENDBRANCH  23  33
ENDBRANCH   1  26
TORSDOF 7
ENDMDL
MODEL 4
REMARK VINA RESULT:      -9.1      1.544      1.818
REMARK  Name = Ponatinib
REMARK  9 active torsions:
REMARK  status: ('A' for Active; 'I' for Inactive)
REMARK    1  A    between atoms: C_1  and  N_2
REMARK    2  A    between atoms: N_5  and  C_6
REMARK    3  A    between atoms: C_6  and  C_7
REMARK    4  A    between atoms: C_10  and  N_11
REMARK    5  A    between atoms: C_12  and  C_14
REMARK    6  A    between atoms: C_16  and  C_17
REMARK    7  A    between atoms: C_18  and  C_19
REMARK    8  A    between atoms: C_28  and  C_29
REMARK    9  A    between atoms: C_33  and  C_34
REMARK                            x       y       z     vdW  Elec       q    Type
REMARK                         _______ _______ _______ _____ _____    ______ ____
ROOT
ATOM      1  N   UNL     1      -2.386   8.458 132.487  0.00  0.00    +0.000 N 
ATOM      2  C   UNL     1      -3.021   7.551 133.355  0.00  0.00    +0.000 C 
ATOM      3  O   UNL     1      -2.955   7.482 134.580  0.00  0.00    +0.000 OA
ATOM      4  H   UNL     1      -2.504   8.374 131.490  0.00  0.00    +0.000 HD
ENDROOT
BRANCH   2   5
ATOM      5  C   UNL     1      -3.838   6.489 132.775  0.00  0.00    +0.000 A 
ATOM      6  C   UNL     1      -5.107   6.817 132.239  0.00  0.00    +0.000 A 
ATOM      7  C   UNL     1      -6.028   5.810 131.935  0.00  0.00    +0.000 A 
ATOM      8  C   UNL     1      -5.598   4.475 132.045  0.00  0.00    +0.000 A 
ATOM      9  C   UNL     1      -6.429   3.334 131.529  0.00  0.00    +0.000 C 
ATOM     10  C   UNL     1      -4.337   4.169 132.608  0.00  0.00    +0.000 A 
ATOM     11  C   UNL     1      -3.461   5.172 132.992  0.00  0.00    +0.000 A 
BRANCH   7  12
ATOM     12  C   UNL     1      -7.403   6.118 131.602  0.00  0.00    +0.000 C 
ATOM     13  C   UNL     1      -8.595   6.321 131.412  0.00  0.00    +0.000 C 
BRANCH  13  14
ATOM     14  C   UNL     1      -9.974   6.609 131.156  0.00  0.00    +0.000 A 
ATOM     15  C   UNL     1     -11.044   6.235 131.948  0.00  0.00    +0.000 A 
ATOM     16  N   UNL     1     -12.244   6.680 131.448  0.00  0.00    +0.000 NA
ATOM     17  C   UNL     1     -11.933   7.323 130.344  0.00  0.00    +0.000 A 
ATOM     18  C   UNL     1     -12.764   7.995 129.414  0.00  0.00    +0.000 A 
ATOM     19  C   UNL     1     -12.214   8.585 128.349  0.00  0.00    +0.000 A 
ATOM     20  C   UNL     1     -10.739   8.488 128.219  0.00  0.00    +0.000 A 
ATOM     21  N   UNL     1      -9.921   7.894 129.034  0.00  0.00    +0.000 NA
ATOM     22  N   UNL     1     -10.557   7.311 130.106  0.00  0.00    +0.000 N 
ENDBRANCH  13  14
ENDBRANCH   7  12
ENDBRANCH   2   5
BRANCH   1  26
ATOM     23  C   UNL     1       0.083  11.617 133.940  0.00  0.00    +0.000 A 
ATOM     24  C   UNL     1       0.606  10.324 133.869  0.00  0.00    +0.000 A 
ATOM     25  C   UNL     1      -0.169   9.276 133.299  0.00  0.00    +0.000 A 
ATOM     26  C   UNL     1      -1.511   9.469 132.926  0.00  0.00    +0.000 A 
ATOM     27  C   UNL     1      -2.010  10.727 132.989  0.00  0.00    +0.000 A 
ATOM     28  C   UNL     1      -1.231  11.759 133.400  0.00  0.00    +0.000 A 
BRANCH  28  29
ATOM     29  C   UNL     1      -1.907  13.033 133.133  0.00  0.00    +0.000 C 
ATOM     30  F   UNL     1      -1.870  14.080 133.989  0.00  0.00    +0.000 F 
ATOM     31  F   UNL     1      -1.590  13.573 131.929  0.00  0.00    +0.000 F 
ATOM     32  F   UNL     1      -3.154  12.630 133.271  0.00  0.00    +0.000 F 
ENDBRANCH  28  29
BRANCH  23  33
ATOM     33  C   UNL     1       0.959  12.825 134.409  0.00  0.00    +0.000 C 
BRANCH  33  38
ATOM     34  C   UNL     1      -0.431  16.677 137.197  0.00  0.00    +0.000 C 
ATOM     35  N   UNL     1       0.365  15.439 137.282  0.00  0.00    +0.000 NA
ATOM     36  C   UNL     1       1.427  15.429 136.235  0.00  0.00    +0.000 C 
ATOM     37  C   UNL     1       2.198  14.075 136.151  0.00  0.00    +0.000 C 
ATOM     38  N   UNL     1       1.373  12.886 135.846  0.00  0.00    +0.000 NA
ATOM     39  C   UNL     1       0.278  12.950 136.830  0.00  0.00    +0.000 C 
ATOM     40  C   UNL     1      -0.520  14.340 136.928  0.00  0.00    +0.000 C 
ENDBRANCH  33  38
ENDBRANCH  23  33
ENDBRANCH   1  26
TORSDOF 7
ENDMDL
MODEL 5
REMARK VINA RESULT:      -8.9     12.121     15.073
REMARK  Name = Ponatinib
REMARK  9 active torsions:
REMARK  status: ('A' for Active; 'I' for Inactive)
REMARK    1  A    between atoms: C_1  and  N_2
REMARK    2  A    between atoms: N_5  and  C_6
REMARK    3  A    between atoms: C_6  and  C_7
REMARK    4  A    between atoms: C_10  and  N_11
REMARK    5  A    between atoms: C_12  and  C_14
REMARK    6  A    between atoms: C_16  and  C_17
REMARK    7  A    between atoms: C_18  and  C_19
REMARK    8  A    between atoms: C_28  and  C_29
REMARK    9  A    between atoms: C_33  and  C_34
REMARK                            x       y       z     vdW  Elec       q    Type
REMARK                         _______ _______ _______ _____ _____    ______ ____
ROOT
ATOM      1  N   UNL     1      -6.276  -3.070 130.224  0.00  0.00    +0.000 N 
ATOM      2  C   UNL     1      -5.070  -3.723 130.535  0.00  0.00    +0.000 C 
ATOM      3  O   UNL     1      -4.098  -3.934 129.814  0.00  0.00    +0.000 OA
ATOM      4  H   UNL     1      -7.009  -3.000 130.912  0.00  0.00    +0.000 HD
ENDROOT
BRANCH   2   5
ATOM      5  C   UNL     1      -4.916  -4.302 131.868  0.00  0.00    +0.000 A 
ATOM      6  C   UNL     1      -6.078  -4.627 132.610  0.00  0.00    +0.000 A 
ATOM      7  C   UNL     1      -5.986  -4.915 133.976  0.00  0.00    +0.000 A 
ATOM      8  C   UNL     1      -4.700  -5.006 134.541  0.00  0.00    +0.000 A 
ATOM      9  C   UNL     1      -4.487  -5.528 135.933  0.00  0.00    +0.000 C 
ATOM     10  C   UNL     1      -3.557  -4.651 133.789  0.00  0.00    +0.000 A 
ATOM     11  C   UNL     1      -3.662  -4.279 132.457  0.00  0.00    +0.000 A 
BRANCH   7  12
ATOM     12  C   UNL     1      -7.167  -5.029 134.806  0.00  0.00    +0.000 C 
ATOM     13  C   UNL     1      -8.105  -5.079 135.590  0.00  0.00    +0.000 C 
BRANCH  13  14
ATOM     14  C   UNL     1      -9.242  -5.141 136.459  0.00  0.00    +0.000 A 
ATOM     15  C   UNL     1     -10.028  -6.253 136.692  0.00  0.00    +0.000 A 
ATOM     16  N   UNL     1     -11.031  -6.004 137.597  0.00  0.00    +0.000 NA
ATOM     17  C   UNL     1     -10.883  -4.739 137.926  0.00  0.00    +0.000 A 
ATOM     18  C   UNL     1     -11.630  -3.936 138.823  0.00  0.00    +0.000 A 
ATOM     19  C   UNL     1     -11.287  -2.655 138.997  0.00  0.00    +0.000 A 
ATOM     20  C   UNL     1     -10.125  -2.163 138.219  0.00  0.00    +0.000 A 
ATOM     21  N   UNL     1      -9.397  -2.844 137.387  0.00  0.00    +0.000 NA
ATOM     22  N   UNL     1      -9.806  -4.152 137.258  0.00  0.00    +0.000 N 
ENDBRANCH  13  14
ENDBRANCH   7  12
ENDBRANCH   2   5
BRANCH   1  26
ATOM     23  C   UNL     1      -7.395  -1.496 126.421  0.00  0.00    +0.000 A 
ATOM     24  C   UNL     1      -6.295  -0.948 127.086  0.00  0.00    +0.000 A 
ATOM     25  C   UNL     1      -5.849  -1.521 128.310  0.00  0.00    +0.000 A 
ATOM     26  C   UNL     1      -6.569  -2.547 128.951  0.00  0.00    +0.000 A 
ATOM     27  C   UNL     1      -7.629  -3.079 128.296  0.00  0.00    +0.000 A 
ATOM     28  C   UNL     1      -7.975  -2.631 127.064  0.00  0.00    +0.000 A 
BRANCH  28  29
ATOM     29  C   UNL     1      -8.970  -3.529 126.468  0.00  0.00    +0.000 C 
ATOM     30  F   UNL     1     -10.164  -3.098 125.999  0.00  0.00    +0.000 F 
ATOM     31  F   UNL     1      -8.474  -4.298 125.465  0.00  0.00    +0.000 F 
ATOM     32  F   UNL     1      -9.336  -4.173 127.557  0.00  0.00    +0.000 F 
ENDBRANCH  28  29
BRANCH  23  33
ATOM     33  C   UNL     1      -7.816  -1.000 124.999  0.00  0.00    +0.000 C 
BRANCH  33  38
ATOM     34  C   UNL     1      -8.062   3.948 125.053  0.00  0.00    +0.000 C 
ATOM     35  N   UNL     1      -8.938   2.765 124.960  0.00  0.00    +0.000 NA
ATOM     36  C   UNL     1      -8.728   1.867 126.131  0.00  0.00    +0.000 C 
ATOM     37  C   UNL     1      -9.493   0.512 126.015  0.00  0.00    +0.000 C 
ATOM     38  N   UNL     1      -9.143  -0.324 124.847  0.00  0.00    +0.000 NA
ATOM     39  C   UNL     1      -9.269   0.595 123.700  0.00  0.00    +0.000 C 
ATOM     40  C   UNL     1      -8.489   1.993 123.811  0.00  0.00    +0.000 C 
ENDBRANCH  33  38
ENDBRANCH  23  33
ENDBRANCH   1  26
TORSDOF 7
ENDMDL
MODEL 6
REMARK VINA RESULT:      -8.8     12.386     14.982
REMARK  Name = Ponatinib
REMARK  9 active torsions:
REMARK  status: ('A' for Active; 'I' for Inactive)
REMARK    1  A    between atoms: C_1  and  N_2
REMARK    2  A    between atoms: N_5  and  C_6
REMARK    3  A    between atoms: C_6  and  C_7
REMARK    4  A    between atoms: C_10  and  N_11
REMARK    5  A    between atoms: C_12  and  C_14
REMARK    6  A    between atoms: C_16  and  C_17
REMARK    7  A    between atoms: C_18  and  C_19
REMARK    8  A    between atoms: C_28  and  C_29
REMARK    9  A    between atoms: C_33  and  C_34
REMARK                            x       y       z     vdW  Elec       q    Type
REMARK                         _______ _______ _______ _____ _____    ______ ____
ROOT
ATOM      1  N   UNL     1      -7.726  -2.848 130.265  0.00  0.00    +0.000 N 
ATOM      2  C   UNL     1      -6.620  -2.820 131.135  0.00  0.00    +0.000 C 
ATOM      3  O   UNL     1      -5.596  -2.146 131.058  0.00  0.00    +0.000 OA
ATOM      4  H   UNL     1      -8.489  -3.484 130.434  0.00  0.00    +0.000 HD
ENDROOT
BRANCH   2   5
ATOM      5  C   UNL     1      -6.606  -3.736 132.272  0.00  0.00    +0.000 A 
ATOM      6  C   UNL     1      -7.533  -3.536 133.324  0.00  0.00    +0.000 A 
ATOM      7  C   UNL     1      -7.374  -4.203 134.543  0.00  0.00    +0.000 A 
ATOM      8  C   UNL     1      -6.358  -5.172 134.631  0.00  0.00    +0.000 A 
ATOM      9  C   UNL     1      -6.251  -6.097 135.810  0.00  0.00    +0.000 C 
ATOM     10  C   UNL     1      -5.427  -5.337 133.579  0.00  0.00    +0.000 A 
ATOM     11  C   UNL     1      -5.536  -4.607 132.405  0.00  0.00    +0.000 A 
BRANCH   7  12
ATOM     12  C   UNL     1      -8.164  -3.854 135.705  0.00  0.00    +0.000 C 
ATOM     13  C   UNL     1      -8.890  -3.489 136.620  0.00  0.00    +0.000 C 
BRANCH  13  14
ATOM     14  C   UNL     1      -9.725  -3.115 137.721  0.00  0.00    +0.000 A 
ATOM     15  C   UNL     1      -9.586  -1.980 138.499  0.00  0.00    +0.000 A 
ATOM     16  N   UNL     1     -10.558  -1.887 139.465  0.00  0.00    +0.000 NA
ATOM     17  C   UNL     1     -11.300  -2.960 139.303  0.00  0.00    +0.000 A 
ATOM     18  C   UNL     1     -12.448  -3.393 140.013  0.00  0.00    +0.000 A 
ATOM     19  C   UNL     1     -13.043  -4.537 139.663  0.00  0.00    +0.000 A 
ATOM     20  C   UNL     1     -12.442  -5.284 138.532  0.00  0.00    +0.000 A 
ATOM     21  N   UNL     1     -11.398  -4.943 137.838  0.00  0.00    +0.000 NA
ATOM     22  N   UNL     1     -10.838  -3.757 138.253  0.00  0.00    +0.000 N 
ENDBRANCH  13  14
ENDBRANCH   7  12
ENDBRANCH   2   5
BRANCH   1  26
ATOM     23  C   UNL     1      -8.189  -0.612 126.664  0.00  0.00    +0.000 A 
ATOM     24  C   UNL     1      -7.779   0.048 127.824  0.00  0.00    +0.000 A 
ATOM     25  C   UNL     1      -7.527  -0.696 129.011  0.00  0.00    +0.000 A 
ATOM     26  C   UNL     1      -7.813  -2.072 129.095  0.00  0.00    +0.000 A 
ATOM     27  C   UNL     1      -8.203  -2.706 127.964  0.00  0.00    +0.000 A 
ATOM     28  C   UNL     1      -8.309  -2.029 126.793  0.00  0.00    +0.000 A 
BRANCH  28  29
ATOM     29  C   UNL     1      -8.486  -2.972 125.684  0.00  0.00    +0.000 C 
ATOM     30  F   UNL     1      -9.605  -3.015 124.925  0.00  0.00    +0.000 F 
ATOM     31  F   UNL     1      -7.470  -2.946 124.784  0.00  0.00    +0.000 F 
ATOM     32  F   UNL     1      -8.604  -4.083 126.384  0.00  0.00    +0.000 F 
ENDBRANCH  28  29
BRANCH  23  33
ATOM     33  C   UNL     1      -8.320   0.144 125.300  0.00  0.00    +0.000 C 
BRANCH  33  38
ATOM     34  C   UNL     1      -7.835   3.391 121.590  0.00  0.00    +0.000 C 
ATOM     35  N   UNL     1      -8.632   3.167 122.810  0.00  0.00    +0.000 NA
ATOM     36  C   UNL     1      -7.741   3.025 123.997  0.00  0.00    +0.000 C 
ATOM     37  C   UNL     1      -8.503   2.613 125.295  0.00  0.00    +0.000 C 
ATOM     38  N   UNL     1      -9.232   1.329 125.230  0.00  0.00    +0.000 NA
ATOM     39  C   UNL     1     -10.047   1.442 124.007  0.00  0.00    +0.000 C 
ATOM     40  C   UNL     1      -9.274   1.869 122.666  0.00  0.00    +0.000 C 
ENDBRANCH  33  38
ENDBRANCH  23  33
ENDBRANCH   1  26
TORSDOF 7
ENDMDL
MODEL 7
REMARK VINA RESULT:      -8.7      4.964     11.731
REMARK  Name = Ponatinib
REMARK  9 active torsions:
REMARK  status: ('A' for Active; 'I' for Inactive)
REMARK    1  A    between atoms: C_1  and  N_2
REMARK    2  A    between atoms: N_5  and  C_6
REMARK    3  A    between atoms: C_6  and  C_7
REMARK    4  A    between atoms: C_10  and  N_11
REMARK    5  A    between atoms: C_12  and  C_14
REMARK    6  A    between atoms: C_16  and  C_17
REMARK    7  A    between atoms: C_18  and  C_19
REMARK    8  A    between atoms: C_28  and  C_29
REMARK    9  A    between atoms: C_33  and  C_34
REMARK                            x       y       z     vdW  Elec       q    Type
REMARK                         _______ _______ _______ _____ _____    ______ ____
ROOT
ATOM      1  N   UNL     1      -3.287   5.481 130.862  0.00  0.00    +0.000 N 
ATOM      2  C   UNL     1      -2.940   6.839 130.977  0.00  0.00    +0.000 C 
ATOM      3  O   UNL     1      -3.200   7.769 130.217  0.00  0.00    +0.000 OA
ATOM      4  H   UNL     1      -2.972   4.815 131.550  0.00  0.00    +0.000 HD
ENDROOT
BRANCH   2   5
ATOM      5  C   UNL     1      -2.108   7.251 132.105  0.00  0.00    +0.000 A 
ATOM      6  C   UNL     1      -2.303   8.537 132.665  0.00  0.00    +0.000 A 
ATOM      7  C   UNL     1      -1.359   9.075 133.545  0.00  0.00    +0.000 A 
ATOM      8  C   UNL     1      -0.299   8.246 133.955  0.00  0.00    +0.000 A 
ATOM      9  C   UNL     1       0.632   8.648 135.064  0.00  0.00    +0.000 C 
ATOM     10  C   UNL     1      -0.107   6.976 133.363  0.00  0.00    +0.000 A 
ATOM     11  C   UNL     1      -0.998   6.482 132.422  0.00  0.00    +0.000 A 
BRANCH   7  12
ATOM     12  C   UNL     1      -1.414  10.462 133.956  0.00  0.00    +0.000 C 
ATOM     13  C   UNL     1      -1.524  11.601 134.390  0.00  0.00    +0.000 C 
BRANCH  13  14
ATOM     14  C   UNL     1      -1.601  12.950 134.866  0.00  0.00    +0.000 A 
ATOM     15  C   UNL     1      -1.066  13.427 136.049  0.00  0.00    +0.000 A 
ATOM     16  N   UNL     1      -1.285  14.773 136.215  0.00  0.00    +0.000 NA
ATOM     17  C   UNL     1      -1.961  15.140 135.149  0.00  0.00    +0.000 A 
ATOM     18  C   UNL     1      -2.458  16.414 134.777  0.00  0.00    +0.000 A 
ATOM     19  C   UNL     1      -3.127  16.546 133.627  0.00  0.00    +0.000 A 
ATOM     20  C   UNL     1      -3.303  15.321 132.811  0.00  0.00    +0.000 A 
ATOM     21  N   UNL     1      -2.871  14.128 133.090  0.00  0.00    +0.000 NA
ATOM     22  N   UNL     1      -2.191  14.067 134.285  0.00  0.00    +0.000 N 
ENDBRANCH  13  14
ENDBRANCH   7  12
ENDBRANCH   2   5
BRANCH   1  26
ATOM     23  C   UNL     1      -5.343   3.699 127.578  0.00  0.00    +0.000 A 
ATOM     24  C   UNL     1      -6.084   4.319 128.587  0.00  0.00    +0.000 A 
ATOM     25  C   UNL     1      -5.414   5.001 129.640  0.00  0.00    +0.000 A 
ATOM     26  C   UNL     1      -4.014   4.955 129.778  0.00  0.00    +0.000 A 
ATOM     27  C   UNL     1      -3.302   4.359 128.792  0.00  0.00    +0.000 A 
ATOM     28  C   UNL     1      -3.928   3.829 127.711  0.00  0.00    +0.000 A 
BRANCH  28  29
ATOM     29  C   UNL     1      -2.942   3.488 126.681  0.00  0.00    +0.000 C 
ATOM     30  F   UNL     1      -2.702   2.216 126.283  0.00  0.00    +0.000 F 
ATOM     31  F   UNL     1      -3.108   4.175 125.522  0.00  0.00    +0.000 F 
ATOM     32  F   UNL     1      -1.844   3.760 127.356  0.00  0.00    +0.000 F 
ENDBRANCH  28  29
BRANCH  23  33
ATOM     33  C   UNL     1      -6.039   3.081 126.320  0.00  0.00    +0.000 C 
BRANCH  33  38
ATOM     34  C   UNL     1      -5.747   3.037 121.375  0.00  0.00    +0.000 C 
ATOM     35  N   UNL     1      -6.483   3.702 122.466  0.00  0.00    +0.000 NA
ATOM     36  C   UNL     1      -5.534   4.356 123.413  0.00  0.00    +0.000 C 
ATOM     37  C   UNL     1      -6.229   4.931 124.686  0.00  0.00    +0.000 C 
ATOM     38  N   UNL     1      -6.957   3.949 125.517  0.00  0.00    +0.000 NA
ATOM     39  C   UNL     1      -7.831   3.248 124.560  0.00  0.00    +0.000 C 
ATOM     40  C   UNL     1      -7.127   2.655 123.245  0.00  0.00    +0.000 C 
ENDBRANCH  33  38
ENDBRANCH  23  33
ENDBRANCH   1  26
TORSDOF 7
ENDMDL
MODEL 8
REMARK VINA RESULT:      -8.4      5.220     12.797
REMARK  Name = Ponatinib
REMARK  9 active torsions:
REMARK  status: ('A' for Active; 'I' for Inactive)
REMARK    1  A    between atoms: C_1  and  N_2
REMARK    2  A    between atoms: N_5  and  C_6
REMARK    3  A    between atoms: C_6  and  C_7
REMARK    4  A    between atoms: C_10  and  N_11
REMARK    5  A    between atoms: C_12  and  C_14
REMARK    6  A    between atoms: C_16  and  C_17
REMARK    7  A    between atoms: C_18  and  C_19
REMARK    8  A    between atoms: C_28  and  C_29
REMARK    9  A    between atoms: C_33  and  C_34
REMARK                            x       y       z     vdW  Elec       q    Type
REMARK                         _______ _______ _______ _____ _____    ______ ____
ROOT
ATOM      1  N   UNL     1      -4.660   4.792 129.802  0.00  0.00    +0.000 N 
ATOM      2  C   UNL     1      -4.402   6.103 130.242  0.00  0.00    +0.000 C 
ATOM      3  O   UNL     1      -4.899   7.158 129.857  0.00  0.00    +0.000 OA
ATOM      4  H   UNL     1      -4.146   4.016 130.187  0.00  0.00    +0.000 HD
ENDROOT
BRANCH   2   5
ATOM      5  C   UNL     1      -3.369   6.306 131.255  0.00  0.00    +0.000 A 
ATOM      6  C   UNL     1      -3.256   7.575 131.872  0.00  0.00    +0.000 A 
ATOM      7  C   UNL     1      -2.124   7.896 132.629  0.00  0.00    +0.000 A 
ATOM      8  C   UNL     1      -1.185   6.875 132.865  0.00  0.00    +0.000 A 
ATOM      9  C   UNL     1      -0.059   7.052 133.845  0.00  0.00    +0.000 C 
ATOM     10  C   UNL     1      -1.302   5.624 132.216  0.00  0.00    +0.000 A 
ATOM     11  C   UNL     1      -2.383   5.341 131.395  0.00  0.00    +0.000 A 
BRANCH   7  12
ATOM     12  C   UNL     1      -1.876   9.248 133.082  0.00  0.00    +0.000 C 
ATOM     13  C   UNL     1      -1.557  10.363 133.473  0.00  0.00    +0.000 C 
BRANCH  13  14
ATOM     14  C   UNL     1      -1.236  11.690 133.906  0.00  0.00    +0.000 A 
ATOM     15  C   UNL     1      -2.133  12.728 134.082  0.00  0.00    +0.000 A 
ATOM     16  N   UNL     1      -1.524  13.874 134.529  0.00  0.00    +0.000 NA
ATOM     17  C   UNL     1      -0.250  13.565 134.626  0.00  0.00    +0.000 A 
ATOM     18  C   UNL     1       0.853  14.353 135.039  0.00  0.00    +0.000 A 
ATOM     19  C   UNL     1       2.076  13.813 135.056  0.00  0.00    +0.000 A 
ATOM     20  C   UNL     1       2.187  12.397 134.629  0.00  0.00    +0.000 A 
ATOM     21  N   UNL     1       1.221  11.620 134.244  0.00  0.00    +0.000 NA
ATOM     22  N   UNL     1      -0.008  12.240 134.253  0.00  0.00    +0.000 N 
ENDBRANCH  13  14
ENDBRANCH   7  12
ENDBRANCH   2   5
BRANCH   1  26
ATOM     23  C   UNL     1      -7.282   3.676 126.630  0.00  0.00    +0.000 A 
ATOM     24  C   UNL     1      -7.827   4.071 127.854  0.00  0.00    +0.000 A 
ATOM     25  C   UNL     1      -6.973   4.537 128.892  0.00  0.00    +0.000 A 
ATOM     26  C   UNL     1      -5.572   4.484 128.775  0.00  0.00    +0.000 A 
ATOM     27  C   UNL     1      -5.051   4.108 127.583  0.00  0.00    +0.000 A 
ATOM     28  C   UNL     1      -5.863   3.796 126.542  0.00  0.00    +0.000 A 
BRANCH  28  29
ATOM     29  C   UNL     1      -5.075   3.682 125.310  0.00  0.00    +0.000 C 
ATOM     30  F   UNL     1      -5.480   4.194 124.125  0.00  0.00    +0.000 F 
ATOM     31  F   UNL     1      -3.795   4.116 125.443  0.00  0.00    +0.000 F 
ATOM     32  F   UNL     1      -5.222   2.389 125.098  0.00  0.00    +0.000 F 
ENDBRANCH  28  29
BRANCH  23  33
ATOM     33  C   UNL     1      -8.195   3.312 125.412  0.00  0.00    +0.000 C 
BRANCH  33  38
ATOM     34  C   UNL     1      -7.099  -0.993 123.218  0.00  0.00    +0.000 C 
ATOM     35  N   UNL     1      -8.160  -0.365 124.027  0.00  0.00    +0.000 NA
ATOM     36  C   UNL     1      -8.656   0.876 123.365  0.00  0.00    +0.000 C 
ATOM     37  C   UNL     1      -9.656   1.688 124.246  0.00  0.00    +0.000 C 
ATOM     38  N   UNL     1      -9.132   2.152 125.548  0.00  0.00    +0.000 NA
ATOM     39  C   UNL     1      -8.566   0.936 126.160  0.00  0.00    +0.000 C 
ATOM     40  C   UNL     1      -7.539   0.092 125.261  0.00  0.00    +0.000 C 
ENDBRANCH  33  38
ENDBRANCH  23  33
ENDBRANCH   1  26
TORSDOF 7
ENDMDL
MODEL 9
REMARK VINA RESULT:      -8.4     11.283     13.582
REMARK  Name = Ponatinib
REMARK  9 active torsions:
REMARK  status: ('A' for Active; 'I' for Inactive)
REMARK    1  A    between atoms: C_1  and  N_2
REMARK    2  A    between atoms: N_5  and  C_6
REMARK    3  A    between atoms: C_6  and  C_7
REMARK    4  A    between atoms: C_10  and  N_11
REMARK    5  A    between atoms: C_12  and  C_14
REMARK    6  A    between atoms: C_16  and  C_17
REMARK    7  A    between atoms: C_18  and  C_19
REMARK    8  A    between atoms: C_28  and  C_29
REMARK    9  A    between atoms: C_33  and  C_34
REMARK                            x       y       z     vdW  Elec       q    Type
REMARK                         _______ _______ _______ _____ _____    ______ ____
ROOT
ATOM      1  N   UNL     1      -6.749  -3.095 129.009  0.00  0.00    +0.000 N 
ATOM      2  C   UNL     1      -8.005  -3.256 128.399  0.00  0.00    +0.000 C 
ATOM      3  O   UNL     1      -9.024  -3.771 128.854  0.00  0.00    +0.000 OA
ATOM      4  H   UNL     1      -5.985  -2.681 128.499  0.00  0.00    +0.000 HD
ENDROOT
BRANCH   2   5
ATOM      5  C   UNL     1      -8.167  -2.822 127.013  0.00  0.00    +0.000 A 
ATOM      6  C   UNL     1      -7.489  -1.657 126.578  0.00  0.00    +0.000 A 
ATOM      7  C   UNL     1      -7.829  -1.053 125.363  0.00  0.00    +0.000 A 
ATOM      8  C   UNL     1      -8.755  -1.718 124.539  0.00  0.00    +0.000 A 
ATOM      9  C   UNL     1      -9.014  -1.274 123.127  0.00  0.00    +0.000 C 
ATOM     10  C   UNL     1      -9.440  -2.864 125.004  0.00  0.00    +0.000 A 
ATOM     11  C   UNL     1      -9.163  -3.409 126.249  0.00  0.00    +0.000 A 
BRANCH   7  12
ATOM     12  C   UNL     1      -7.318   0.251 124.998  0.00  0.00    +0.000 C 
ATOM     13  C   UNL     1      -6.791   1.303 124.660  0.00  0.00    +0.000 C 
BRANCH  13  14
ATOM     14  C   UNL     1      -6.231   2.558 124.258  0.00  0.00    +0.000 A 
ATOM     15  C   UNL     1      -5.804   3.566 125.102  0.00  0.00    +0.000 A 
ATOM     16  N   UNL     1      -5.291   4.640 124.415  0.00  0.00    +0.000 NA
ATOM     17  C   UNL     1      -5.401   4.314 123.146  0.00  0.00    +0.000 A 
ATOM     18  C   UNL     1      -5.032   5.034 121.983  0.00  0.00    +0.000 A 
ATOM     19  C   UNL     1      -5.246   4.491 120.780  0.00  0.00    +0.000 A 
ATOM     20  C   UNL     1      -5.868   3.145 120.755  0.00  0.00    +0.000 A 
ATOM     21  N   UNL     1      -6.225   2.431 121.780  0.00  0.00    +0.000 NA
ATOM     22  N   UNL     1      -5.976   3.051 122.983  0.00  0.00    +0.000 N 
ENDBRANCH  13  14
ENDBRANCH   7  12
ENDBRANCH   2   5
BRANCH   1  26
ATOM     23  C   UNL     1      -6.086  -4.457 132.996  0.00  0.00    +0.000 A 
ATOM     24  C   UNL     1      -5.379  -5.053 131.948  0.00  0.00    +0.000 A 
ATOM     25  C   UNL     1      -5.516  -4.549 130.625  0.00  0.00    +0.000 A 
ATOM     26  C   UNL     1      -6.453  -3.548 130.308  0.00  0.00    +0.000 A 
ATOM     27  C   UNL     1      -7.129  -2.970 131.330  0.00  0.00    +0.000 A 
ATOM     28  C   UNL     1      -6.900  -3.349 132.612  0.00  0.00    +0.000 A 
BRANCH  28  29
ATOM     29  C   UNL     1      -7.545  -2.409 133.534  0.00  0.00    +0.000 C 
ATOM     30  F   UNL     1      -8.514  -2.778 134.404  0.00  0.00    +0.000 F 
ATOM     31  F   UNL     1      -6.668  -1.701 134.289  0.00  0.00    +0.000 F 
ATOM     32  F   UNL     1      -8.239  -1.712 132.656  0.00  0.00    +0.000 F 
ENDBRANCH  28  29
BRANCH  23  33
ATOM     33  C   UNL     1      -5.841  -4.875 134.483  0.00  0.00    +0.000 C 
BRANCH  33  38
ATOM     34  C   UNL     1      -4.598  -2.588 138.698  0.00  0.00    +0.000 C 
ATOM     35  N   UNL     1      -3.995  -3.384 137.614  0.00  0.00    +0.000 NA
ATOM     36  C   UNL     1      -4.251  -2.745 136.292  0.00  0.00    +0.000 C 
ATOM     37  C   UNL     1      -3.793  -3.620 135.084  0.00  0.00    +0.000 C 
ATOM     38  N   UNL     1      -4.431  -4.950 134.978  0.00  0.00    +0.000 NA
ATOM     39  C   UNL     1      -4.248  -5.542 136.315  0.00  0.00    +0.000 C 
ATOM     40  C   UNL     1      -4.713  -4.649 137.565  0.00  0.00    +0.000 C 
ENDBRANCH  33  38
ENDBRANCH  23  33
ENDBRANCH   1  26
TORSDOF 7
ENDMDL
