MODEL 1
REMARK VINA RESULT:      -7.5      0.000      0.000
REMARK  Name = Ponesimod
REMARK  12 active torsions:
REMARK  status: ('A' for Active; 'I' for Inactive)
REMARK    1  A    between atoms: C_1  and  C_2
REMARK    2  A    between atoms: C_2  and  C_3
REMARK    3  A    between atoms: C_3  and  N_4
REMARK    4  A    between atoms: C_8  and  C_9
REMARK    5  A    between atoms: C_12  and  O_13
REMARK    6  A    between atoms: O_13  and  C_14
REMARK    7  A    between atoms: C_14  and  C_15
REMARK    8  A    between atoms: C_15  and  O_16
REMARK    9  A    between atoms: C_15  and  C_17
REMARK   10  A    between atoms: C_17  and  O_18
REMARK   11  A    between atoms: N_24  and  C_25
REMARK   12  A    between atoms: C_30  and  C_31
REMARK                            x       y       z     vdW  Elec       q    Type
REMARK                         _______ _______ _______ _____ _____    ______ ____
ROOT
ATOM      1  N   UNL     1      -8.130   0.997 124.476  0.00  0.00    +0.000 NA
ATOM      2  C   UNL     1      -7.937   0.875 125.738  0.00  0.00    +0.000 C 
ATOM      3  S   UNL     1      -8.250   2.072 126.955  0.00  0.00    +0.000 S 
ATOM      4  C   UNL     1      -7.876   1.041 128.253  0.00  0.00    +0.000 C 
ATOM      5  C   UNL     1      -7.974   1.382 129.543  0.00  0.00    +0.000 C 
ATOM      6  C   UNL     1      -7.339  -0.247 127.731  0.00  0.00    +0.000 C 
ATOM      7  O   UNL     1      -6.834  -1.083 128.457  0.00  0.00    +0.000 OA
ATOM      8  N   UNL     1      -7.458  -0.268 126.341  0.00  0.00    +0.000 N 
ENDROOT
BRANCH   5   9
ATOM      9  C   UNL     1      -8.551   2.654 130.008  0.00  0.00    +0.000 A 
ATOM     10  C   UNL     1      -9.928   2.833 130.173  0.00  0.00    +0.000 A 
ATOM     11  C   UNL     1     -10.431   4.068 130.602  0.00  0.00    +0.000 A 
ATOM     12  C   UNL     1      -9.574   5.151 130.868  0.00  0.00    +0.000 A 
ATOM     13  C   UNL     1      -8.193   4.968 130.673  0.00  0.00    +0.000 A 
ATOM     14 CL   UNL     1      -6.948   6.158 130.871  0.00  0.00    +0.000 Cl
ATOM     15  C   UNL     1      -7.699   3.725 130.259  0.00  0.00    +0.000 A 
BRANCH  12  16
ATOM     16  O   UNL     1     -10.257   6.258 131.300  0.00  0.00    +0.000 OA
BRANCH  16  17
ATOM     17  C   UNL     1     -10.673   7.212 130.326  0.00  0.00    +0.000 C 
BRANCH  17  18
ATOM     18  C   UNL     1     -12.195   7.366 130.363  0.00  0.00    +0.000 C 
BRANCH  18  19
ATOM     19  O   UNL     1     -12.721   6.889 131.606  0.00  0.00    +0.000 OA
ATOM     20  H   UNL     1     -12.626   5.921 131.627  0.00  0.00    +0.000 HD
ENDBRANCH  18  19
BRANCH  18  21
ATOM     21  C   UNL     1     -12.841   6.589 129.208  0.00  0.00    +0.000 C 
BRANCH  21  22
ATOM     22  O   UNL     1     -11.966   6.442 128.099  0.00  0.00    +0.000 OA
ATOM     23  H   UNL     1     -11.543   7.303 127.938  0.00  0.00    +0.000 HD
ENDBRANCH  21  22
ENDBRANCH  18  21
ENDBRANCH  17  18
ENDBRANCH  16  17
ENDBRANCH  12  16
ENDBRANCH   5   9
BRANCH   8  24
ATOM     24  C   UNL     1      -7.017  -1.389 125.597  0.00  0.00    +0.000 A 
ATOM     25  C   UNL     1      -5.704  -1.376 125.098  0.00  0.00    +0.000 A 
ATOM     26  C   UNL     1      -5.213  -2.455 124.365  0.00  0.00    +0.000 A 
ATOM     27  C   UNL     1      -6.032  -3.548 124.109  0.00  0.00    +0.000 A 
ATOM     28  C   UNL     1      -7.343  -3.568 124.589  0.00  0.00    +0.000 A 
ATOM     29  C   UNL     1      -7.856  -2.497 125.338  0.00  0.00    +0.000 A 
ATOM     30  C   UNL     1      -9.304  -2.543 125.749  0.00  0.00    +0.000 C 
ENDBRANCH   8  24
BRANCH   1  31
ATOM     31  C   UNL     1      -8.531   2.248 123.834  0.00  0.00    +0.000 C 
BRANCH  31  33
ATOM     32  C   UNL     1     -10.131   0.706 122.625  0.00  0.00    +0.000 C 
ATOM     33  C   UNL     1      -9.374   2.004 122.595  0.00  0.00    +0.000 C 
ENDBRANCH  31  33
ENDBRANCH   1  31
TORSDOF 10
ENDMDL
MODEL 2
REMARK VINA RESULT:      -7.4      5.319      7.481
REMARK  Name = Ponesimod
REMARK  12 active torsions:
REMARK  status: ('A' for Active; 'I' for Inactive)
REMARK    1  A    between atoms: C_1  and  C_2
REMARK    2  A    between atoms: C_2  and  C_3
REMARK    3  A    between atoms: C_3  and  N_4
REMARK    4  A    between atoms: C_8  and  C_9
REMARK    5  A    between atoms: C_12  and  O_13
REMARK    6  A    between atoms: O_13  and  C_14
REMARK    7  A    between atoms: C_14  and  C_15
REMARK    8  A    between atoms: C_15  and  O_16
REMARK    9  A    between atoms: C_15  and  C_17
REMARK   10  A    between atoms: C_17  and  O_18
REMARK   11  A    between atoms: N_24  and  C_25
REMARK   12  A    between atoms: C_30  and  C_31
REMARK                            x       y       z     vdW  Elec       q    Type
REMARK                         _______ _______ _______ _____ _____    ______ ____
ROOT
ATOM      1  N   UNL     1      -5.834  -3.173 125.907  0.00  0.00    +0.000 NA
ATOM      2  C   UNL     1      -5.729  -1.962 126.316  0.00  0.00    +0.000 C 
ATOM      3  S   UNL     1      -5.701  -0.533 125.331  0.00  0.00    +0.000 S 
ATOM      4  C   UNL     1      -5.703   0.537 126.651  0.00  0.00    +0.000 C 
ATOM      5  C   UNL     1      -5.734   1.870 126.544  0.00  0.00    +0.000 C 
ATOM      6  C   UNL     1      -5.568  -0.232 127.920  0.00  0.00    +0.000 C 
ATOM      7  O   UNL     1      -5.366   0.310 128.991  0.00  0.00    +0.000 OA
ATOM      8  N   UNL     1      -5.641  -1.598 127.642  0.00  0.00    +0.000 N 
ENDROOT
BRANCH   5   9
ATOM      9  C   UNL     1      -5.910   2.581 125.268  0.00  0.00    +0.000 A 
ATOM     10  C   UNL     1      -5.012   3.558 124.827  0.00  0.00    +0.000 A 
ATOM     11  C   UNL     1      -5.231   4.220 123.612  0.00  0.00    +0.000 A 
ATOM     12  C   UNL     1      -6.353   3.927 122.816  0.00  0.00    +0.000 A 
ATOM     13  C   UNL     1      -7.264   2.963 123.281  0.00  0.00    +0.000 A 
ATOM     14 CL   UNL     1      -8.742   2.475 122.518  0.00  0.00    +0.000 Cl
ATOM     15  C   UNL     1      -7.027   2.296 124.489  0.00  0.00    +0.000 A 
BRANCH  12  16
ATOM     16  O   UNL     1      -6.372   4.662 121.659  0.00  0.00    +0.000 OA
BRANCH  16  17
ATOM     17  C   UNL     1      -5.741   4.112 120.505  0.00  0.00    +0.000 C 
BRANCH  17  18
ATOM     18  C   UNL     1      -5.064   5.224 119.700  0.00  0.00    +0.000 C 
BRANCH  18  19
ATOM     19  O   UNL     1      -4.634   6.282 120.563  0.00  0.00    +0.000 OA
ATOM     20  H   UNL     1      -4.841   7.131 120.133  0.00  0.00    +0.000 HD
ENDBRANCH  18  19
BRANCH  18  21
ATOM     21  C   UNL     1      -6.029   5.789 118.648  0.00  0.00    +0.000 C 
BRANCH  21  22
ATOM     22  O   UNL     1      -7.070   4.877 118.326  0.00  0.00    +0.000 OA
ATOM     23  H   UNL     1      -6.670   3.999 118.207  0.00  0.00    +0.000 HD
ENDBRANCH  21  22
ENDBRANCH  18  21
ENDBRANCH  17  18
ENDBRANCH  16  17
ENDBRANCH  12  16
ENDBRANCH   5   9
BRANCH   8  24
ATOM     24  C   UNL     1      -5.540  -2.552 128.685  0.00  0.00    +0.000 A 
ATOM     25  C   UNL     1      -4.259  -2.999 129.048  0.00  0.00    +0.000 A 
ATOM     26  C   UNL     1      -4.097  -3.931 130.072  0.00  0.00    +0.000 A 
ATOM     27  C   UNL     1      -5.212  -4.437 130.729  0.00  0.00    +0.000 A 
ATOM     28  C   UNL     1      -6.491  -4.010 130.370  0.00  0.00    +0.000 A 
ATOM     29  C   UNL     1      -6.678  -3.064 129.349  0.00  0.00    +0.000 A 
ATOM     30  C   UNL     1      -8.087  -2.714 128.951  0.00  0.00    +0.000 C 
ENDBRANCH   8  24
BRANCH   1  31
ATOM     31  C   UNL     1      -5.813  -3.557 124.496  0.00  0.00    +0.000 C 
BRANCH  31  33
ATOM     32  C   UNL     1      -4.282  -5.117 123.221  0.00  0.00    +0.000 C 
ATOM     33  C   UNL     1      -4.403  -3.842 124.009  0.00  0.00    +0.000 C 
ENDBRANCH  31  33
ENDBRANCH   1  31
TORSDOF 10
ENDMDL
MODEL 3
REMARK VINA RESULT:      -7.0      4.334      5.204
REMARK  Name = Ponesimod
REMARK  12 active torsions:
REMARK  status: ('A' for Active; 'I' for Inactive)
REMARK    1  A    between atoms: C_1  and  C_2
REMARK    2  A    between atoms: C_2  and  C_3
REMARK    3  A    between atoms: C_3  and  N_4
REMARK    4  A    between atoms: C_8  and  C_9
REMARK    5  A    between atoms: C_12  and  O_13
REMARK    6  A    between atoms: O_13  and  C_14
REMARK    7  A    between atoms: C_14  and  C_15
REMARK    8  A    between atoms: C_15  and  O_16
REMARK    9  A    between atoms: C_15  and  C_17
REMARK   10  A    between atoms: C_17  and  O_18
REMARK   11  A    between atoms: N_24  and  C_25
REMARK   12  A    between atoms: C_30  and  C_31
REMARK                            x       y       z     vdW  Elec       q    Type
REMARK                         _______ _______ _______ _____ _____    ______ ____
ROOT
ATOM      1  N   UNL     1      -8.307   1.499 124.386  0.00  0.00    +0.000 NA
ATOM      2  C   UNL     1      -7.339   1.134 125.144  0.00  0.00    +0.000 C 
ATOM      3  S   UNL     1      -6.153   2.165 125.880  0.00  0.00    +0.000 S 
ATOM      4  C   UNL     1      -5.426   0.915 126.772  0.00  0.00    +0.000 C 
ATOM      5  C   UNL     1      -4.414   1.086 127.629  0.00  0.00    +0.000 C 
ATOM      6  C   UNL     1      -6.022  -0.394 126.378  0.00  0.00    +0.000 C 
ATOM      7  O   UNL     1      -5.554  -1.457 126.739  0.00  0.00    +0.000 OA
ATOM      8  N   UNL     1      -7.098  -0.170 125.518  0.00  0.00    +0.000 N 
ENDROOT
BRANCH   5   9
ATOM      9  C   UNL     1      -3.888   2.405 128.015  0.00  0.00    +0.000 A 
ATOM     10  C   UNL     1      -3.211   3.233 127.114  0.00  0.00    +0.000 A 
ATOM     11  C   UNL     1      -2.714   4.473 127.533  0.00  0.00    +0.000 A 
ATOM     12  C   UNL     1      -2.875   4.911 128.860  0.00  0.00    +0.000 A 
ATOM     13  C   UNL     1      -3.533   4.060 129.766  0.00  0.00    +0.000 A 
ATOM     14 CL   UNL     1      -3.800   4.344 131.455  0.00  0.00    +0.000 Cl
ATOM     15  C   UNL     1      -4.040   2.829 129.332  0.00  0.00    +0.000 A 
BRANCH  12  16
ATOM     16  O   UNL     1      -2.343   6.158 129.062  0.00  0.00    +0.000 OA
BRANCH  16  17
ATOM     17  C   UNL     1      -3.187   7.289 128.860  0.00  0.00    +0.000 C 
BRANCH  17  18
ATOM     18  C   UNL     1      -4.023   7.549 130.115  0.00  0.00    +0.000 C 
BRANCH  18  19
ATOM     19  O   UNL     1      -5.125   8.413 129.818  0.00  0.00    +0.000 OA
ATOM     20  H   UNL     1      -4.969   8.817 128.946  0.00  0.00    +0.000 HD
ENDBRANCH  18  19
BRANCH  18  21
ATOM     21  C   UNL     1      -3.160   8.188 131.211  0.00  0.00    +0.000 C 
BRANCH  21  22
ATOM     22  O   UNL     1      -2.170   7.297 131.708  0.00  0.00    +0.000 OA
ATOM     23  H   UNL     1      -2.098   7.438 132.668  0.00  0.00    +0.000 HD
ENDBRANCH  21  22
ENDBRANCH  18  21
ENDBRANCH  17  18
ENDBRANCH  16  17
ENDBRANCH  12  16
ENDBRANCH   5   9
BRANCH   8  24
ATOM     24  C   UNL     1      -7.841  -1.258 124.996  0.00  0.00    +0.000 A 
ATOM     25  C   UNL     1      -8.837  -1.827 125.808  0.00  0.00    +0.000 A 
ATOM     26  C   UNL     1      -9.605  -2.894 125.346  0.00  0.00    +0.000 A 
ATOM     27  C   UNL     1      -9.375  -3.413 124.077  0.00  0.00    +0.000 A 
ATOM     28  C   UNL     1      -8.380  -2.865 123.266  0.00  0.00    +0.000 A 
ATOM     29  C   UNL     1      -7.601  -1.783 123.706  0.00  0.00    +0.000 A 
ATOM     30  C   UNL     1      -6.487  -1.298 122.817  0.00  0.00    +0.000 C 
ENDBRANCH   8  24
BRANCH   1  31
ATOM     31  C   UNL     1      -8.488   2.867 123.904  0.00  0.00    +0.000 C 
BRANCH  31  33
ATOM     32  C   UNL     1      -8.714   3.376 121.435  0.00  0.00    +0.000 C 
ATOM     33  C   UNL     1      -7.780   3.099 122.580  0.00  0.00    +0.000 C 
ENDBRANCH  31  33
ENDBRANCH   1  31
TORSDOF 10
ENDMDL
MODEL 4
REMARK VINA RESULT:      -7.0      2.276      2.754
REMARK  Name = Ponesimod
REMARK  12 active torsions:
REMARK  status: ('A' for Active; 'I' for Inactive)
REMARK    1  A    between atoms: C_1  and  C_2
REMARK    2  A    between atoms: C_2  and  C_3
REMARK    3  A    between atoms: C_3  and  N_4
REMARK    4  A    between atoms: C_8  and  C_9
REMARK    5  A    between atoms: C_12  and  O_13
REMARK    6  A    between atoms: O_13  and  C_14
REMARK    7  A    between atoms: C_14  and  C_15
REMARK    8  A    between atoms: C_15  and  O_16
REMARK    9  A    between atoms: C_15  and  C_17
REMARK   10  A    between atoms: C_17  and  O_18
REMARK   11  A    between atoms: N_24  and  C_25
REMARK   12  A    between atoms: C_30  and  C_31
REMARK                            x       y       z     vdW  Elec       q    Type
REMARK                         _______ _______ _______ _____ _____    ______ ____
ROOT
ATOM      1  N   UNL     1      -7.354   0.758 125.900  0.00  0.00    +0.000 NA
ATOM      2  C   UNL     1      -7.389   0.173 127.041  0.00  0.00    +0.000 C 
ATOM      3  S   UNL     1      -7.590   0.932 128.589  0.00  0.00    +0.000 S 
ATOM      4  C   UNL     1      -7.673  -0.535 129.444  0.00  0.00    +0.000 C 
ATOM      5  C   UNL     1      -7.882  -0.631 130.762  0.00  0.00    +0.000 C 
ATOM      6  C   UNL     1      -7.384  -1.670 128.522  0.00  0.00    +0.000 C 
ATOM      7  O   UNL     1      -7.207  -2.805 128.923  0.00  0.00    +0.000 OA
ATOM      8  N   UNL     1      -7.291  -1.190 127.214  0.00  0.00    +0.000 N 
ENDROOT
BRANCH   5   9
ATOM      9  C   UNL     1      -8.204   0.518 131.622  0.00  0.00    +0.000 A 
ATOM     10  C   UNL     1      -9.466   1.120 131.622  0.00  0.00    +0.000 A 
ATOM     11  C   UNL     1      -9.721   2.223 132.446  0.00  0.00    +0.000 A 
ATOM     12  C   UNL     1      -8.722   2.753 133.282  0.00  0.00    +0.000 A 
ATOM     13  C   UNL     1      -7.448   2.157 133.255  0.00  0.00    +0.000 A 
ATOM     14 CL   UNL     1      -6.045   2.661 134.140  0.00  0.00    +0.000 Cl
ATOM     15  C   UNL     1      -7.209   1.045 132.438  0.00  0.00    +0.000 A 
BRANCH  12  16
ATOM     16  O   UNL     1      -9.176   3.811 134.026  0.00  0.00    +0.000 OA
BRANCH  16  17
ATOM     17  C   UNL     1      -8.522   5.068 133.874  0.00  0.00    +0.000 C 
BRANCH  17  18
ATOM     18  C   UNL     1      -9.305   5.950 132.898  0.00  0.00    +0.000 C 
BRANCH  18  19
ATOM     19  O   UNL     1     -10.688   5.583 132.884  0.00  0.00    +0.000 OA
ATOM     20  H   UNL     1     -10.844   4.951 133.607  0.00  0.00    +0.000 HD
ENDBRANCH  18  19
BRANCH  18  21
ATOM     21  C   UNL     1      -8.732   5.820 131.480  0.00  0.00    +0.000 C 
BRANCH  21  22
ATOM     22  O   UNL     1      -8.225   7.053 130.987  0.00  0.00    +0.000 OA
ATOM     23  H   UNL     1      -7.410   7.256 131.477  0.00  0.00    +0.000 HD
ENDBRANCH  21  22
ENDBRANCH  18  21
ENDBRANCH  17  18
ENDBRANCH  16  17
ENDBRANCH  12  16
ENDBRANCH   5   9
BRANCH   8  24
ATOM     24  C   UNL     1      -7.022  -2.074 126.141  0.00  0.00    +0.000 A 
ATOM     25  C   UNL     1      -5.698  -2.168 125.680  0.00  0.00    +0.000 A 
ATOM     26  C   UNL     1      -5.371  -3.027 124.632  0.00  0.00    +0.000 A 
ATOM     27  C   UNL     1      -6.364  -3.784 124.023  0.00  0.00    +0.000 A 
ATOM     28  C   UNL     1      -7.685  -3.690 124.462  0.00  0.00    +0.000 A 
ATOM     29  C   UNL     1      -8.036  -2.840 125.524  0.00  0.00    +0.000 A 
ATOM     30  C   UNL     1      -9.492  -2.720 125.889  0.00  0.00    +0.000 C 
ENDBRANCH   8  24
BRANCH   1  31
ATOM     31  C   UNL     1      -7.344   2.211 125.733  0.00  0.00    +0.000 C 
BRANCH  31  33
ATOM     32  C   UNL     1      -9.172   1.821 124.027  0.00  0.00    +0.000 C 
ATOM     33  C   UNL     1      -8.632   2.717 125.106  0.00  0.00    +0.000 C 
ENDBRANCH  31  33
ENDBRANCH   1  31
TORSDOF 10
ENDMDL
MODEL 5
REMARK VINA RESULT:      -7.0      4.778      8.218
REMARK  Name = Ponesimod
REMARK  12 active torsions:
REMARK  status: ('A' for Active; 'I' for Inactive)
REMARK    1  A    between atoms: C_1  and  C_2
REMARK    2  A    between atoms: C_2  and  C_3
REMARK    3  A    between atoms: C_3  and  N_4
REMARK    4  A    between atoms: C_8  and  C_9
REMARK    5  A    between atoms: C_12  and  O_13
REMARK    6  A    between atoms: O_13  and  C_14
REMARK    7  A    between atoms: C_14  and  C_15
REMARK    8  A    between atoms: C_15  and  O_16
REMARK    9  A    between atoms: C_15  and  C_17
REMARK   10  A    between atoms: C_17  and  O_18
REMARK   11  A    between atoms: N_24  and  C_25
REMARK   12  A    between atoms: C_30  and  C_31
REMARK                            x       y       z     vdW  Elec       q    Type
REMARK                         _______ _______ _______ _____ _____    ______ ____
ROOT
ATOM      1  N   UNL     1      -6.621  -1.054 123.312  0.00  0.00    +0.000 NA
ATOM      2  C   UNL     1      -6.891  -0.622 124.489  0.00  0.00    +0.000 C 
ATOM      3  S   UNL     1      -6.827  -1.531 125.966  0.00  0.00    +0.000 S 
ATOM      4  C   UNL     1      -7.159  -0.193 126.959  0.00  0.00    +0.000 C 
ATOM      5  C   UNL     1      -7.203  -0.234 128.296  0.00  0.00    +0.000 C 
ATOM      6  C   UNL     1      -7.485   0.990 126.113  0.00  0.00    +0.000 C 
ATOM      7  O   UNL     1      -7.930   2.022 126.580  0.00  0.00    +0.000 OA
ATOM      8  N   UNL     1      -7.261   0.674 124.772  0.00  0.00    +0.000 N 
ENDROOT
BRANCH   5   9
ATOM      9  C   UNL     1      -6.832  -1.418 129.086  0.00  0.00    +0.000 A 
ATOM     10  C   UNL     1      -7.779  -2.188 129.768  0.00  0.00    +0.000 A 
ATOM     11  C   UNL     1      -7.376  -3.297 130.523  0.00  0.00    +0.000 A 
ATOM     12  C   UNL     1      -6.019  -3.657 130.619  0.00  0.00    +0.000 A 
ATOM     13  C   UNL     1      -5.072  -2.860 129.951  0.00  0.00    +0.000 A 
ATOM     14 CL   UNL     1      -3.350  -3.060 129.966  0.00  0.00    +0.000 Cl
ATOM     15  C   UNL     1      -5.488  -1.763 129.187  0.00  0.00    +0.000 A 
BRANCH  12  16
ATOM     16  O   UNL     1      -5.835  -4.782 131.379  0.00  0.00    +0.000 OA
BRANCH  16  17
ATOM     17  C   UNL     1      -5.679  -4.623 132.787  0.00  0.00    +0.000 C 
BRANCH  17  18
ATOM     18  C   UNL     1      -4.443  -5.387 133.266  0.00  0.00    +0.000 C 
BRANCH  18  19
ATOM     19  O   UNL     1      -4.688  -5.998 134.537  0.00  0.00    +0.000 OA
ATOM     20  H   UNL     1      -5.101  -6.867 134.384  0.00  0.00    +0.000 HD
ENDBRANCH  18  19
BRANCH  18  21
ATOM     21  C   UNL     1      -3.240  -4.442 133.383  0.00  0.00    +0.000 C 
BRANCH  21  22
ATOM     22  O   UNL     1      -2.004  -5.142 133.428  0.00  0.00    +0.000 OA
ATOM     23  H   UNL     1      -1.621  -5.125 132.534  0.00  0.00    +0.000 HD
ENDBRANCH  21  22
ENDBRANCH  18  21
ENDBRANCH  17  18
ENDBRANCH  16  17
ENDBRANCH  12  16
ENDBRANCH   5   9
BRANCH   8  24
ATOM     24  C   UNL     1      -7.497   1.634 123.757  0.00  0.00    +0.000 A 
ATOM     25  C   UNL     1      -6.428   2.457 123.366  0.00  0.00    +0.000 A 
ATOM     26  C   UNL     1      -6.597   3.414 122.367  0.00  0.00    +0.000 A 
ATOM     27  C   UNL     1      -7.838   3.569 121.762  0.00  0.00    +0.000 A 
ATOM     28  C   UNL     1      -8.912   2.767 122.149  0.00  0.00    +0.000 A 
ATOM     29  C   UNL     1      -8.762   1.788 123.146  0.00  0.00    +0.000 A 
ATOM     30  C   UNL     1      -9.981   1.018 123.579  0.00  0.00    +0.000 C 
ENDBRANCH   8  24
BRANCH   1  31
ATOM     31  C   UNL     1      -6.339  -2.456 123.007  0.00  0.00    +0.000 C 
BRANCH  31  33
ATOM     32  C   UNL     1      -4.671  -4.216 123.730  0.00  0.00    +0.000 C 
ATOM     33  C   UNL     1      -4.882  -2.806 123.252  0.00  0.00    +0.000 C 
ENDBRANCH  31  33
ENDBRANCH   1  31
TORSDOF 10
ENDMDL
MODEL 6
REMARK VINA RESULT:      -6.8      4.692      9.275
REMARK  Name = Ponesimod
REMARK  12 active torsions:
REMARK  status: ('A' for Active; 'I' for Inactive)
REMARK    1  A    between atoms: C_1  and  C_2
REMARK    2  A    between atoms: C_2  and  C_3
REMARK    3  A    between atoms: C_3  and  N_4
REMARK    4  A    between atoms: C_8  and  C_9
REMARK    5  A    between atoms: C_12  and  O_13
REMARK    6  A    between atoms: O_13  and  C_14
REMARK    7  A    between atoms: C_14  and  C_15
REMARK    8  A    between atoms: C_15  and  O_16
REMARK    9  A    between atoms: C_15  and  C_17
REMARK   10  A    between atoms: C_17  and  O_18
REMARK   11  A    between atoms: N_24  and  C_25
REMARK   12  A    between atoms: C_30  and  C_31
REMARK                            x       y       z     vdW  Elec       q    Type
REMARK                         _______ _______ _______ _____ _____    ______ ____
ROOT
ATOM      1  N   UNL     1      -5.637   3.890 131.576  0.00  0.00    +0.000 NA
ATOM      2  C   UNL     1      -5.113   3.667 130.427  0.00  0.00    +0.000 C 
ATOM      3  S   UNL     1      -5.729   2.610 129.195  0.00  0.00    +0.000 S 
ATOM      4  C   UNL     1      -4.553   3.047 128.048  0.00  0.00    +0.000 C 
ATOM      5  C   UNL     1      -4.510   2.581 126.795  0.00  0.00    +0.000 C 
ATOM      6  C   UNL     1      -3.541   3.939 128.682  0.00  0.00    +0.000 C 
ATOM      7  O   UNL     1      -2.504   4.246 128.124  0.00  0.00    +0.000 OA
ATOM      8  N   UNL     1      -3.958   4.266 129.973  0.00  0.00    +0.000 N 
ENDROOT
BRANCH   5   9
ATOM      9  C   UNL     1      -5.557   1.735 126.204  0.00  0.00    +0.000 A 
ATOM     10  C   UNL     1      -5.490   0.338 126.225  0.00  0.00    +0.000 A 
ATOM     11  C   UNL     1      -6.504  -0.426 125.633  0.00  0.00    +0.000 A 
ATOM     12  C   UNL     1      -7.602   0.186 125.003  0.00  0.00    +0.000 A 
ATOM     13  C   UNL     1      -7.648   1.591 124.963  0.00  0.00    +0.000 A 
ATOM     14 CL   UNL     1      -8.855   2.572 124.198  0.00  0.00    +0.000 Cl
ATOM     15  C   UNL     1      -6.636   2.345 125.571  0.00  0.00    +0.000 A 
BRANCH  12  16
ATOM     16  O   UNL     1      -8.494  -0.732 124.511  0.00  0.00    +0.000 OA
BRANCH  16  17
ATOM     17  C   UNL     1      -8.011  -1.715 123.599  0.00  0.00    +0.000 C 
BRANCH  17  18
ATOM     18  C   UNL     1      -8.746  -3.040 123.822  0.00  0.00    +0.000 C 
BRANCH  18  19
ATOM     19  O   UNL     1     -10.042  -3.006 123.215  0.00  0.00    +0.000 OA
ATOM     20  H   UNL     1     -10.566  -3.743 123.574  0.00  0.00    +0.000 HD
ENDBRANCH  18  19
BRANCH  18  21
ATOM     21  C   UNL     1      -8.896  -3.324 125.322  0.00  0.00    +0.000 C 
BRANCH  21  22
ATOM     22  O   UNL     1     -10.159  -2.911 125.826  0.00  0.00    +0.000 OA
ATOM     23  H   UNL     1     -10.766  -3.669 125.761  0.00  0.00    +0.000 HD
ENDBRANCH  21  22
ENDBRANCH  18  21
ENDBRANCH  17  18
ENDBRANCH  16  17
ENDBRANCH  12  16
ENDBRANCH   5   9
BRANCH   8  24
ATOM     24  C   UNL     1      -3.168   5.108 130.794  0.00  0.00    +0.000 A 
ATOM     25  C   UNL     1      -2.248   4.505 131.666  0.00  0.00    +0.000 A 
ATOM     26  C   UNL     1      -1.438   5.283 132.492  0.00  0.00    +0.000 A 
ATOM     27  C   UNL     1      -1.552   6.668 132.466  0.00  0.00    +0.000 A 
ATOM     28  C   UNL     1      -2.472   7.279 131.613  0.00  0.00    +0.000 A 
ATOM     29  C   UNL     1      -3.290   6.516 130.764  0.00  0.00    +0.000 A 
ATOM     30  C   UNL     1      -4.322   7.233 129.935  0.00  0.00    +0.000 C 
ENDBRANCH   8  24
BRANCH   1  31
ATOM     31  C   UNL     1      -6.797   3.167 132.093  0.00  0.00    +0.000 C 
BRANCH  31  33
ATOM     32  C   UNL     1      -8.712   3.650 133.676  0.00  0.00    +0.000 C 
ATOM     33  C   UNL     1      -7.925   4.108 132.480  0.00  0.00    +0.000 C 
ENDBRANCH  31  33
ENDBRANCH   1  31
TORSDOF 10
ENDMDL
MODEL 7
REMARK VINA RESULT:      -6.7      4.674      7.617
REMARK  Name = Ponesimod
REMARK  12 active torsions:
REMARK  status: ('A' for Active; 'I' for Inactive)
REMARK    1  A    between atoms: C_1  and  C_2
REMARK    2  A    between atoms: C_2  and  C_3
REMARK    3  A    between atoms: C_3  and  N_4
REMARK    4  A    between atoms: C_8  and  C_9
REMARK    5  A    between atoms: C_12  and  O_13
REMARK    6  A    between atoms: O_13  and  C_14
REMARK    7  A    between atoms: C_14  and  C_15
REMARK    8  A    between atoms: C_15  and  O_16
REMARK    9  A    between atoms: C_15  and  C_17
REMARK   10  A    between atoms: C_17  and  O_18
REMARK   11  A    between atoms: N_24  and  C_25
REMARK   12  A    between atoms: C_30  and  C_31
REMARK                            x       y       z     vdW  Elec       q    Type
REMARK                         _______ _______ _______ _____ _____    ______ ____
ROOT
ATOM      1  N   UNL     1      -7.471   3.165 125.928  0.00  0.00    +0.000 NA
ATOM      2  C   UNL     1      -7.210   1.938 125.661  0.00  0.00    +0.000 C 
ATOM      3  S   UNL     1      -6.814   0.691 126.801  0.00  0.00    +0.000 S 
ATOM      4  C   UNL     1      -6.795  -0.548 125.638  0.00  0.00    +0.000 C 
ATOM      5  C   UNL     1      -6.582  -1.841 125.913  0.00  0.00    +0.000 C 
ATOM      6  C   UNL     1      -6.953   0.038 124.277  0.00  0.00    +0.000 C 
ATOM      7  O   UNL     1      -6.795  -0.617 123.264  0.00  0.00    +0.000 OA
ATOM      8  N   UNL     1      -7.226   1.402 124.392  0.00  0.00    +0.000 N 
ENDROOT
BRANCH   5   9
ATOM      9  C   UNL     1      -6.473  -2.375 127.279  0.00  0.00    +0.000 A 
ATOM     10  C   UNL     1      -7.592  -2.780 128.015  0.00  0.00    +0.000 A 
ATOM     11  C   UNL     1      -7.440  -3.267 129.319  0.00  0.00    +0.000 A 
ATOM     12  C   UNL     1      -6.171  -3.354 129.920  0.00  0.00    +0.000 A 
ATOM     13  C   UNL     1      -5.055  -2.920 129.182  0.00  0.00    +0.000 A 
ATOM     14 CL   UNL     1      -3.408  -2.871 129.719  0.00  0.00    +0.000 Cl
ATOM     15  C   UNL     1      -5.217  -2.449 127.873  0.00  0.00    +0.000 A 
BRANCH  12  16
ATOM     16  O   UNL     1      -6.232  -3.879 131.185  0.00  0.00    +0.000 OA
BRANCH  16  17
ATOM     17  C   UNL     1      -6.198  -2.977 132.288  0.00  0.00    +0.000 C 
BRANCH  17  18
ATOM     18  C   UNL     1      -7.406  -3.217 133.197  0.00  0.00    +0.000 C 
BRANCH  18  19
ATOM     19  O   UNL     1      -7.890  -1.979 133.730  0.00  0.00    +0.000 OA
ATOM     20  H   UNL     1      -8.764  -2.138 134.126  0.00  0.00    +0.000 HD
ENDBRANCH  18  19
BRANCH  18  21
ATOM     21  C   UNL     1      -7.029  -4.153 134.353  0.00  0.00    +0.000 C 
BRANCH  21  22
ATOM     22  O   UNL     1      -6.255  -5.262 133.919  0.00  0.00    +0.000 OA
ATOM     23  H   UNL     1      -5.389  -4.925 133.629  0.00  0.00    +0.000 HD
ENDBRANCH  21  22
ENDBRANCH  18  21
ENDBRANCH  17  18
ENDBRANCH  16  17
ENDBRANCH  12  16
ENDBRANCH   5   9
BRANCH   8  24
ATOM     24  C   UNL     1      -7.421   2.197 123.235  0.00  0.00    +0.000 A 
ATOM     25  C   UNL     1      -6.308   2.862 122.696  0.00  0.00    +0.000 A 
ATOM     26  C   UNL     1      -6.437   3.652 121.555  0.00  0.00    +0.000 A 
ATOM     27  C   UNL     1      -7.681   3.799 120.953  0.00  0.00    +0.000 A 
ATOM     28  C   UNL     1      -8.797   3.154 121.486  0.00  0.00    +0.000 A 
ATOM     29  C   UNL     1      -8.689   2.344 122.629  0.00  0.00    +0.000 A 
ATOM     30  C   UNL     1      -9.947   1.750 123.203  0.00  0.00    +0.000 C 
ENDBRANCH   8  24
BRANCH   1  31
ATOM     31  C   UNL     1      -7.341   3.750 127.261  0.00  0.00    +0.000 C 
BRANCH  31  33
ATOM     32  C   UNL     1      -5.245   4.824 126.337  0.00  0.00    +0.000 C 
ATOM     33  C   UNL     1      -5.925   4.225 127.536  0.00  0.00    +0.000 C 
ENDBRANCH  31  33
ENDBRANCH   1  31
TORSDOF 10
ENDMDL
MODEL 8
REMARK VINA RESULT:      -6.7      4.539      6.570
REMARK  Name = Ponesimod
REMARK  12 active torsions:
REMARK  status: ('A' for Active; 'I' for Inactive)
REMARK    1  A    between atoms: C_1  and  C_2
REMARK    2  A    between atoms: C_2  and  C_3
REMARK    3  A    between atoms: C_3  and  N_4
REMARK    4  A    between atoms: C_8  and  C_9
REMARK    5  A    between atoms: C_12  and  O_13
REMARK    6  A    between atoms: O_13  and  C_14
REMARK    7  A    between atoms: C_14  and  C_15
REMARK    8  A    between atoms: C_15  and  O_16
REMARK    9  A    between atoms: C_15  and  C_17
REMARK   10  A    between atoms: C_17  and  O_18
REMARK   11  A    between atoms: N_24  and  C_25
REMARK   12  A    between atoms: C_30  and  C_31
REMARK                            x       y       z     vdW  Elec       q    Type
REMARK                         _______ _______ _______ _____ _____    ______ ____
ROOT
ATOM      1  N   UNL     1      -5.856  -1.880 128.078  0.00  0.00    +0.000 NA
ATOM      2  C   UNL     1      -5.980  -0.747 127.490  0.00  0.00    +0.000 C 
ATOM      3  S   UNL     1      -5.365   0.780 128.041  0.00  0.00    +0.000 S 
ATOM      4  C   UNL     1      -5.833   1.622 126.641  0.00  0.00    +0.000 C 
ATOM      5  C   UNL     1      -5.584   2.918 126.420  0.00  0.00    +0.000 C 
ATOM      6  C   UNL     1      -6.636   0.726 125.761  0.00  0.00    +0.000 C 
ATOM      7  O   UNL     1      -7.236   1.140 124.786  0.00  0.00    +0.000 OA
ATOM      8  N   UNL     1      -6.620  -0.568 126.283  0.00  0.00    +0.000 N 
ENDROOT
BRANCH   5   9
ATOM      9  C   UNL     1      -4.750   3.749 127.301  0.00  0.00    +0.000 A 
ATOM     10  C   UNL     1      -3.359   3.818 127.168  0.00  0.00    +0.000 A 
ATOM     11  C   UNL     1      -2.605   4.610 128.042  0.00  0.00    +0.000 A 
ATOM     12  C   UNL     1      -3.220   5.346 129.072  0.00  0.00    +0.000 A 
ATOM     13  C   UNL     1      -4.616   5.249 129.214  0.00  0.00    +0.000 A 
ATOM     14 CL   UNL     1      -5.592   6.004 130.432  0.00  0.00    +0.000 Cl
ATOM     15  C   UNL     1      -5.362   4.466 128.325  0.00  0.00    +0.000 A 
BRANCH  12  16
ATOM     16  O   UNL     1      -2.316   6.075 129.799  0.00  0.00    +0.000 OA
BRANCH  16  17
ATOM     17  C   UNL     1      -2.088   5.702 131.156  0.00  0.00    +0.000 C 
BRANCH  17  18
ATOM     18  C   UNL     1      -1.438   6.861 131.915  0.00  0.00    +0.000 C 
BRANCH  18  19
ATOM     19  O   UNL     1      -0.013   6.723 131.921  0.00  0.00    +0.000 OA
ATOM     20  H   UNL     1       0.343   7.197 131.148  0.00  0.00    +0.000 HD
ENDBRANCH  18  19
BRANCH  18  21
ATOM     21  C   UNL     1      -1.948   6.908 133.361  0.00  0.00    +0.000 C 
BRANCH  21  22
ATOM     22  O   UNL     1      -1.669   5.710 134.072  0.00  0.00    +0.000 OA
ATOM     23  H   UNL     1      -1.063   5.931 134.800  0.00  0.00    +0.000 HD
ENDBRANCH  21  22
ENDBRANCH  18  21
ENDBRANCH  17  18
ENDBRANCH  16  17
ENDBRANCH  12  16
ENDBRANCH   5   9
BRANCH   8  24
ATOM     24  C   UNL     1      -7.313  -1.616 125.629  0.00  0.00    +0.000 A 
ATOM     25  C   UNL     1      -8.640  -1.871 126.013  0.00  0.00    +0.000 A 
ATOM     26  C   UNL     1      -9.374  -2.885 125.400  0.00  0.00    +0.000 A 
ATOM     27  C   UNL     1      -8.784  -3.664 124.411  0.00  0.00    +0.000 A 
ATOM     28  C   UNL     1      -7.463  -3.429 124.029  0.00  0.00    +0.000 A 
ATOM     29  C   UNL     1      -6.708  -2.406 124.626  0.00  0.00    +0.000 A 
ATOM     30  C   UNL     1      -5.262  -2.265 124.231  0.00  0.00    +0.000 C 
ENDBRANCH   8  24
BRANCH   1  31
ATOM     31  C   UNL     1      -5.275  -2.043 129.410  0.00  0.00    +0.000 C 
BRANCH  31  33
ATOM     32  C   UNL     1      -3.333  -3.654 129.221  0.00  0.00    +0.000 C 
ATOM     33  C   UNL     1      -4.764  -3.456 129.635  0.00  0.00    +0.000 C 
ENDBRANCH  31  33
ENDBRANCH   1  31
TORSDOF 10
ENDMDL
MODEL 9
REMARK VINA RESULT:      -6.7      5.460      8.515
REMARK  Name = Ponesimod
REMARK  12 active torsions:
REMARK  status: ('A' for Active; 'I' for Inactive)
REMARK    1  A    between atoms: C_1  and  C_2
REMARK    2  A    between atoms: C_2  and  C_3
REMARK    3  A    between atoms: C_3  and  N_4
REMARK    4  A    between atoms: C_8  and  C_9
REMARK    5  A    between atoms: C_12  and  O_13
REMARK    6  A    between atoms: O_13  and  C_14
REMARK    7  A    between atoms: C_14  and  C_15
REMARK    8  A    between atoms: C_15  and  O_16
REMARK    9  A    between atoms: C_15  and  C_17
REMARK   10  A    between atoms: C_17  and  O_18
REMARK   11  A    between atoms: N_24  and  C_25
REMARK   12  A    between atoms: C_30  and  C_31
REMARK                            x       y       z     vdW  Elec       q    Type
REMARK                         _______ _______ _______ _____ _____    ______ ____
ROOT
ATOM      1  N   UNL     1      -6.366   0.485 125.869  0.00  0.00    +0.000 NA
ATOM      2  C   UNL     1      -6.963  -0.513 126.411  0.00  0.00    +0.000 C 
ATOM      3  S   UNL     1      -6.435  -1.406 127.803  0.00  0.00    +0.000 S 
ATOM      4  C   UNL     1      -7.835  -2.365 127.883  0.00  0.00    +0.000 C 
ATOM      5  C   UNL     1      -8.073  -3.280 128.830  0.00  0.00    +0.000 C 
ATOM      6  C   UNL     1      -8.695  -2.096 126.695  0.00  0.00    +0.000 C 
ATOM      7  O   UNL     1      -9.665  -2.781 126.426  0.00  0.00    +0.000 OA
ATOM      8  N   UNL     1      -8.161  -1.030 125.971  0.00  0.00    +0.000 N 
ENDROOT
BRANCH   5   9
ATOM      9  C   UNL     1      -7.211  -3.477 130.006  0.00  0.00    +0.000 A 
ATOM     10  C   UNL     1      -6.134  -4.369 130.001  0.00  0.00    +0.000 A 
ATOM     11  C   UNL     1      -5.352  -4.536 131.151  0.00  0.00    +0.000 A 
ATOM     12  C   UNL     1      -5.632  -3.823 132.331  0.00  0.00    +0.000 A 
ATOM     13  C   UNL     1      -6.734  -2.949 132.334  0.00  0.00    +0.000 A 
ATOM     14 CL   UNL     1      -7.316  -2.012 133.672  0.00  0.00    +0.000 Cl
ATOM     15  C   UNL     1      -7.500  -2.779 131.174  0.00  0.00    +0.000 A 
BRANCH  12  16
ATOM     16  O   UNL     1      -4.739  -4.106 133.332  0.00  0.00    +0.000 OA
BRANCH  16  17
ATOM     17  C   UNL     1      -3.487  -4.683 132.970  0.00  0.00    +0.000 C 
BRANCH  17  18
ATOM     18  C   UNL     1      -2.729  -5.119 134.227  0.00  0.00    +0.000 C 
BRANCH  18  19
ATOM     19  O   UNL     1      -1.817  -6.180 133.924  0.00  0.00    +0.000 OA
ATOM     20  H   UNL     1      -1.098  -5.817 133.377  0.00  0.00    +0.000 HD
ENDBRANCH  18  19
BRANCH  18  21
ATOM     21  C   UNL     1      -3.711  -5.588 135.308  0.00  0.00    +0.000 C 
BRANCH  21  22
ATOM     22  O   UNL     1      -4.644  -6.540 134.815  0.00  0.00    +0.000 OA
ATOM     23  H   UNL     1      -5.510  -6.340 135.211  0.00  0.00    +0.000 HD
ENDBRANCH  21  22
ENDBRANCH  18  21
ENDBRANCH  17  18
ENDBRANCH  16  17
ENDBRANCH  12  16
ENDBRANCH   5   9
BRANCH   8  24
ATOM     24  C   UNL     1      -8.795  -0.573 124.789  0.00  0.00    +0.000 A 
ATOM     25  C   UNL     1      -9.571   0.596 124.866  0.00  0.00    +0.000 A 
ATOM     26  C   UNL     1     -10.212   1.097 123.734  0.00  0.00    +0.000 A 
ATOM     27  C   UNL     1     -10.099   0.428 122.522  0.00  0.00    +0.000 A 
ATOM     28  C   UNL     1      -9.341  -0.741 122.435  0.00  0.00    +0.000 A 
ATOM     29  C   UNL     1      -8.678  -1.259 123.559  0.00  0.00    +0.000 A 
ATOM     30  C   UNL     1      -7.952  -2.570 123.417  0.00  0.00    +0.000 C 
ENDBRANCH   8  24
BRANCH   1  31
ATOM     31  C   UNL     1      -5.041   0.954 126.273  0.00  0.00    +0.000 C 
BRANCH  31  33
ATOM     32  C   UNL     1      -3.645   3.043 126.571  0.00  0.00    +0.000 C 
ATOM     33  C   UNL     1      -5.025   2.450 126.534  0.00  0.00    +0.000 C 
ENDBRANCH  31  33
ENDBRANCH   1  31
TORSDOF 10
ENDMDL
