MODEL 1
REMARK VINA RESULT:      -6.2      0.000      0.000
REMARK  Name = Practolol
REMARK  11 active torsions:
REMARK  status: ('A' for Active; 'I' for Inactive)
REMARK    1  A    between atoms: C_1  and  C_2
REMARK    2  A    between atoms: C_2  and  C_3
REMARK    3  A    between atoms: C_2  and  N_4
REMARK    4  A    between atoms: N_4  and  C_5
REMARK    5  A    between atoms: C_5  and  C_6
REMARK    6  A    between atoms: C_6  and  O_7
REMARK    7  A    between atoms: C_6  and  C_8
REMARK    8  A    between atoms: C_8  and  O_9
REMARK    9  A    between atoms: O_9  and  C_10
REMARK   10  A    between atoms: C_13  and  N_14
REMARK   11  A    between atoms: C_15  and  C_16
REMARK                            x       y       z     vdW  Elec       q    Type
REMARK                         _______ _______ _______ _____ _____    ______ ____
ROOT
ATOM      1  O   UNL     1      -9.577  -0.622 124.011  0.00  0.00    +0.000 OA
ENDROOT
BRANCH   1   2
ATOM      2  C   UNL     1      -8.817   0.472 123.729  0.00  0.00    +0.000 A 
ATOM      3  C   UNL     1      -7.589   0.610 124.379  0.00  0.00    +0.000 A 
ATOM      4  C   UNL     1      -6.812   1.774 124.206  0.00  0.00    +0.000 A 
ATOM      5  C   UNL     1      -7.270   2.805 123.379  0.00  0.00    +0.000 A 
ATOM      6  C   UNL     1      -8.556   2.683 122.880  0.00  0.00    +0.000 A 
ATOM      7  C   UNL     1      -9.287   1.513 122.961  0.00  0.00    +0.000 A 
BRANCH   5   8
ATOM      8  N   UNL     1      -6.441   3.907 123.082  0.00  0.00    +0.000 N 
ATOM      9  C   UNL     1      -5.594   4.156 122.036  0.00  0.00    +0.000 C 
ATOM     10  C   UNL     1      -5.400   3.236 120.856  0.00  0.00    +0.000 C 
ATOM     11  O   UNL     1      -4.939   5.216 122.065  0.00  0.00    +0.000 OA
ATOM     12  H   UNL     1      -6.356   4.621 123.800  0.00  0.00    +0.000 HD
ENDBRANCH   5   8
ENDBRANCH   1   2
BRANCH   1  13
ATOM     13  C   UNL     1      -9.308  -1.765 123.195  0.00  0.00    +0.000 C 
BRANCH  13  14
ATOM     14  C   UNL     1      -9.256  -3.001 124.094  0.00  0.00    +0.000 C 
BRANCH  14  15
ATOM     15  O   UNL     1     -10.059  -2.815 125.265  0.00  0.00    +0.000 OA
ATOM     16  H   UNL     1      -9.464  -2.544 125.983  0.00  0.00    +0.000 HD
ENDBRANCH  14  15
BRANCH  14  17
ATOM     17  C   UNL     1      -7.804  -3.247 124.507  0.00  0.00    +0.000 C 
BRANCH  17  18
ATOM     18  N   UNL     1      -6.886  -2.850 123.438  0.00  0.00    +0.000 NA
ATOM     19  H   UNL     1      -6.846  -3.607 122.748  0.00  0.00    +0.000 HD
BRANCH  18  21
ATOM     20  C   UNL     1      -5.613  -2.394 125.461  0.00  0.00    +0.000 C 
ATOM     21  C   UNL     1      -5.552  -2.519 123.939  0.00  0.00    +0.000 C 
ATOM     22  C   UNL     1      -4.542  -3.604 123.560  0.00  0.00    +0.000 C 
ENDBRANCH  18  21
ENDBRANCH  17  18
ENDBRANCH  14  17
ENDBRANCH  13  14
ENDBRANCH   1  13
TORSDOF 8
ENDMDL
MODEL 2
REMARK VINA RESULT:      -5.8      4.158      6.908
REMARK  Name = Practolol
REMARK  11 active torsions:
REMARK  status: ('A' for Active; 'I' for Inactive)
REMARK    1  A    between atoms: C_1  and  C_2
REMARK    2  A    between atoms: C_2  and  C_3
REMARK    3  A    between atoms: C_2  and  N_4
REMARK    4  A    between atoms: N_4  and  C_5
REMARK    5  A    between atoms: C_5  and  C_6
REMARK    6  A    between atoms: C_6  and  O_7
REMARK    7  A    between atoms: C_6  and  C_8
REMARK    8  A    between atoms: C_8  and  O_9
REMARK    9  A    between atoms: O_9  and  C_10
REMARK   10  A    between atoms: C_13  and  N_14
REMARK   11  A    between atoms: C_15  and  C_16
REMARK                            x       y       z     vdW  Elec       q    Type
REMARK                         _______ _______ _______ _____ _____    ______ ____
ROOT
ATOM      1  O   UNL     1      -9.016  -2.971 125.613  0.00  0.00    +0.000 OA
ENDROOT
BRANCH   1   2
ATOM      2  C   UNL     1      -8.555  -2.933 126.893  0.00  0.00    +0.000 A 
ATOM      3  C   UNL     1      -9.017  -3.895 127.792  0.00  0.00    +0.000 A 
ATOM      4  C   UNL     1      -8.656  -3.838 129.154  0.00  0.00    +0.000 A 
ATOM      5  C   UNL     1      -7.830  -2.808 129.617  0.00  0.00    +0.000 A 
ATOM      6  C   UNL     1      -7.525  -1.800 128.719  0.00  0.00    +0.000 A 
ATOM      7  C   UNL     1      -7.788  -1.891 127.366  0.00  0.00    +0.000 A 
BRANCH   5   8
ATOM      8  N   UNL     1      -7.344  -2.820 130.941  0.00  0.00    +0.000 N 
ATOM      9  C   UNL     1      -6.369  -3.563 131.549  0.00  0.00    +0.000 C 
ATOM     10  C   UNL     1      -5.505  -4.579 130.843  0.00  0.00    +0.000 C 
ATOM     11  O   UNL     1      -6.187  -3.388 132.769  0.00  0.00    +0.000 OA
ATOM     12  H   UNL     1      -7.851  -2.258 131.619  0.00  0.00    +0.000 HD
ENDBRANCH   5   8
ENDBRANCH   1   2
BRANCH   1  13
ATOM     13  C   UNL     1      -9.031  -1.707 124.942  0.00  0.00    +0.000 C 
BRANCH  13  14
ATOM     14  C   UNL     1      -9.228  -1.955 123.446  0.00  0.00    +0.000 C 
BRANCH  14  15
ATOM     15  O   UNL     1     -10.022  -3.126 123.223  0.00  0.00    +0.000 OA
ATOM     16  H   UNL     1      -9.423  -3.890 123.251  0.00  0.00    +0.000 HD
ENDBRANCH  14  15
BRANCH  14  17
ATOM     17  C   UNL     1      -7.855  -2.139 122.795  0.00  0.00    +0.000 C 
BRANCH  17  18
ATOM     18  N   UNL     1      -7.007  -3.008 123.612  0.00  0.00    +0.000 NA
ATOM     19  H   UNL     1      -7.365  -3.003 124.571  0.00  0.00    +0.000 HD
BRANCH  18  21
ATOM     20  C   UNL     1      -5.310  -1.688 124.751  0.00  0.00    +0.000 C 
ATOM     21  C   UNL     1      -5.599  -2.615 123.570  0.00  0.00    +0.000 C 
ATOM     22  C   UNL     1      -4.686  -3.840 123.655  0.00  0.00    +0.000 C 
ENDBRANCH  18  21
ENDBRANCH  17  18
ENDBRANCH  14  17
ENDBRANCH  13  14
ENDBRANCH   1  13
TORSDOF 8
ENDMDL
MODEL 3
REMARK VINA RESULT:      -5.8      1.625      2.062
REMARK  Name = Practolol
REMARK  11 active torsions:
REMARK  status: ('A' for Active; 'I' for Inactive)
REMARK    1  A    between atoms: C_1  and  C_2
REMARK    2  A    between atoms: C_2  and  C_3
REMARK    3  A    between atoms: C_2  and  N_4
REMARK    4  A    between atoms: N_4  and  C_5
REMARK    5  A    between atoms: C_5  and  C_6
REMARK    6  A    between atoms: C_6  and  O_7
REMARK    7  A    between atoms: C_6  and  C_8
REMARK    8  A    between atoms: C_8  and  O_9
REMARK    9  A    between atoms: O_9  and  C_10
REMARK   10  A    between atoms: C_13  and  N_14
REMARK   11  A    between atoms: C_15  and  C_16
REMARK                            x       y       z     vdW  Elec       q    Type
REMARK                         _______ _______ _______ _____ _____    ______ ____
ROOT
ATOM      1  O   UNL     1      -9.447  -0.879 123.496  0.00  0.00    +0.000 OA
ENDROOT
BRANCH   1   2
ATOM      2  C   UNL     1      -8.968   0.383 123.675  0.00  0.00    +0.000 A 
ATOM      3  C   UNL     1      -7.681   0.673 123.220  0.00  0.00    +0.000 A 
ATOM      4  C   UNL     1      -7.096   1.931 123.474  0.00  0.00    +0.000 A 
ATOM      5  C   UNL     1      -7.806   2.901 124.191  0.00  0.00    +0.000 A 
ATOM      6  C   UNL     1      -9.012   2.510 124.746  0.00  0.00    +0.000 A 
ATOM      7  C   UNL     1      -9.639   1.321 124.427  0.00  0.00    +0.000 A 
BRANCH   5   8
ATOM      8  N   UNL     1      -7.294   4.208 124.326  0.00  0.00    +0.000 N 
ATOM      9  C   UNL     1      -6.239   4.705 125.043  0.00  0.00    +0.000 C 
ATOM     10  C   UNL     1      -5.296   3.866 125.870  0.00  0.00    +0.000 C 
ATOM     11  O   UNL     1      -6.049   5.937 125.011  0.00  0.00    +0.000 OA
ATOM     12  H   UNL     1      -7.838   4.958 123.909  0.00  0.00    +0.000 HD
ENDBRANCH   5   8
ENDBRANCH   1   2
BRANCH   1  13
ATOM     13  C   UNL     1      -8.527  -1.788 122.882  0.00  0.00    +0.000 C 
BRANCH  13  14
ATOM     14  C   UNL     1      -8.858  -3.204 123.354  0.00  0.00    +0.000 C 
BRANCH  14  15
ATOM     15  O   UNL     1     -10.135  -3.241 124.001  0.00  0.00    +0.000 OA
ATOM     16  H   UNL     1     -10.804  -3.020 123.333  0.00  0.00    +0.000 HD
ENDBRANCH  14  15
BRANCH  14  17
ATOM     17  C   UNL     1      -7.777  -3.660 124.336  0.00  0.00    +0.000 C 
BRANCH  17  18
ATOM     18  N   UNL     1      -7.428  -2.579 125.260  0.00  0.00    +0.000 NA
ATOM     19  H   UNL     1      -7.810  -1.702 124.892  0.00  0.00    +0.000 HD
BRANCH  18  21
ATOM     20  C   UNL     1      -5.258  -3.181 124.338  0.00  0.00    +0.000 C 
ATOM     21  C   UNL     1      -5.986  -2.477 125.483  0.00  0.00    +0.000 C 
ATOM     22  C   UNL     1      -5.544  -1.013 125.539  0.00  0.00    +0.000 C 
ENDBRANCH  18  21
ENDBRANCH  17  18
ENDBRANCH  14  17
ENDBRANCH  13  14
ENDBRANCH   1  13
TORSDOF 8
ENDMDL
MODEL 4
REMARK VINA RESULT:      -5.7      3.593      6.657
REMARK  Name = Practolol
REMARK  11 active torsions:
REMARK  status: ('A' for Active; 'I' for Inactive)
REMARK    1  A    between atoms: C_1  and  C_2
REMARK    2  A    between atoms: C_2  and  C_3
REMARK    3  A    between atoms: C_2  and  N_4
REMARK    4  A    between atoms: N_4  and  C_5
REMARK    5  A    between atoms: C_5  and  C_6
REMARK    6  A    between atoms: C_6  and  O_7
REMARK    7  A    between atoms: C_6  and  C_8
REMARK    8  A    between atoms: C_8  and  O_9
REMARK    9  A    between atoms: O_9  and  C_10
REMARK   10  A    between atoms: C_13  and  N_14
REMARK   11  A    between atoms: C_15  and  C_16
REMARK                            x       y       z     vdW  Elec       q    Type
REMARK                         _______ _______ _______ _____ _____    ______ ____
ROOT
ATOM      1  O   UNL     1      -9.261  -1.759 125.221  0.00  0.00    +0.000 OA
ENDROOT
BRANCH   1   2
ATOM      2  C   UNL     1      -8.874  -2.156 126.465  0.00  0.00    +0.000 A 
ATOM      3  C   UNL     1      -8.072  -1.293 127.214  0.00  0.00    +0.000 A 
ATOM      4  C   UNL     1      -7.555  -1.697 128.462  0.00  0.00    +0.000 A 
ATOM      5  C   UNL     1      -7.840  -2.973 128.959  0.00  0.00    +0.000 A 
ATOM      6  C   UNL     1      -8.511  -3.838 128.112  0.00  0.00    +0.000 A 
ATOM      7  C   UNL     1      -9.105  -3.429 126.934  0.00  0.00    +0.000 A 
BRANCH   5   8
ATOM      8  N   UNL     1      -7.452  -3.336 130.266  0.00  0.00    +0.000 N 
ATOM      9  C   UNL     1      -6.257  -3.763 130.777  0.00  0.00    +0.000 C 
ATOM     10  C   UNL     1      -4.984  -3.892 129.978  0.00  0.00    +0.000 C 
ATOM     11  O   UNL     1      -6.222  -4.065 131.986  0.00  0.00    +0.000 OA
ATOM     12  H   UNL     1      -8.191  -3.400 130.961  0.00  0.00    +0.000 HD
ENDBRANCH   5   8
ENDBRANCH   1   2
BRANCH   1  13
ATOM     13  C   UNL     1      -9.207  -0.347 124.997  0.00  0.00    +0.000 C 
BRANCH  13  14
ATOM     14  C   UNL     1      -8.906  -0.102 123.518  0.00  0.00    +0.000 C 
BRANCH  14  15
ATOM     15  O   UNL     1      -9.707  -0.952 122.687  0.00  0.00    +0.000 OA
ATOM     16  H   UNL     1      -9.220  -1.785 122.573  0.00  0.00    +0.000 HD
ENDBRANCH  14  15
BRANCH  14  17
ATOM     17  C   UNL     1      -7.426  -0.392 123.263  0.00  0.00    +0.000 C 
BRANCH  17  18
ATOM     18  N   UNL     1      -7.230  -1.790 122.879  0.00  0.00    +0.000 NA
ATOM     19  H   UNL     1      -8.096  -2.304 123.071  0.00  0.00    +0.000 HD
BRANCH  18  21
ATOM     20  C   UNL     1      -5.584  -1.445 124.638  0.00  0.00    +0.000 C 
ATOM     21  C   UNL     1      -6.089  -2.403 123.559  0.00  0.00    +0.000 C 
ATOM     22  C   UNL     1      -6.488  -3.730 124.208  0.00  0.00    +0.000 C 
ENDBRANCH  18  21
ENDBRANCH  17  18
ENDBRANCH  14  17
ENDBRANCH  13  14
ENDBRANCH   1  13
TORSDOF 8
ENDMDL
MODEL 5
REMARK VINA RESULT:      -5.7      8.614     10.420
REMARK  Name = Practolol
REMARK  11 active torsions:
REMARK  status: ('A' for Active; 'I' for Inactive)
REMARK    1  A    between atoms: C_1  and  C_2
REMARK    2  A    between atoms: C_2  and  C_3
REMARK    3  A    between atoms: C_2  and  N_4
REMARK    4  A    between atoms: N_4  and  C_5
REMARK    5  A    between atoms: C_5  and  C_6
REMARK    6  A    between atoms: C_6  and  O_7
REMARK    7  A    between atoms: C_6  and  C_8
REMARK    8  A    between atoms: C_8  and  O_9
REMARK    9  A    between atoms: O_9  and  C_10
REMARK   10  A    between atoms: C_13  and  N_14
REMARK   11  A    between atoms: C_15  and  C_16
REMARK                            x       y       z     vdW  Elec       q    Type
REMARK                         _______ _______ _______ _____ _____    ______ ____
ROOT
ATOM      1  O   UNL     1      -9.955   5.132 129.463  0.00  0.00    +0.000 OA
ENDROOT
BRANCH   1   2
ATOM      2  C   UNL     1      -8.726   5.416 129.977  0.00  0.00    +0.000 A 
ATOM      3  C   UNL     1      -8.561   6.615 130.671  0.00  0.00    +0.000 A 
ATOM      4  C   UNL     1      -7.287   7.009 131.131  0.00  0.00    +0.000 A 
ATOM      5  C   UNL     1      -6.173   6.197 130.890  0.00  0.00    +0.000 A 
ATOM      6  C   UNL     1      -6.367   5.098 130.069  0.00  0.00    +0.000 A 
ATOM      7  C   UNL     1      -7.618   4.649 129.694  0.00  0.00    +0.000 A 
BRANCH   5   8
ATOM      8  N   UNL     1      -4.924   6.505 131.467  0.00  0.00    +0.000 N 
ATOM      9  C   UNL     1      -3.943   7.386 131.102  0.00  0.00    +0.000 C 
ATOM     10  C   UNL     1      -4.034   8.328 129.927  0.00  0.00    +0.000 C 
ATOM     11  O   UNL     1      -2.903   7.408 131.789  0.00  0.00    +0.000 OA
ATOM     12  H   UNL     1      -4.620   5.918 132.238  0.00  0.00    +0.000 HD
ENDBRANCH   5   8
ENDBRANCH   1   2
BRANCH   1  13
ATOM     13  C   UNL     1     -10.981   4.932 130.439  0.00  0.00    +0.000 C 
BRANCH  13  14
ATOM     14  C   UNL     1     -11.687   6.267 130.680  0.00  0.00    +0.000 C 
BRANCH  14  15
ATOM     15  O   UNL     1     -12.353   6.271 131.949  0.00  0.00    +0.000 OA
ATOM     16  H   UNL     1     -11.676   6.423 132.629  0.00  0.00    +0.000 HD
ENDBRANCH  14  15
BRANCH  14  17
ATOM     17  C   UNL     1     -12.714   6.488 129.567  0.00  0.00    +0.000 C 
BRANCH  17  18
ATOM     18  N   UNL     1     -12.056   6.558 128.262  0.00  0.00    +0.000 NA
ATOM     19  H   UNL     1     -11.138   6.109 128.337  0.00  0.00    +0.000 HD
BRANCH  18  21
ATOM     20  C   UNL     1     -12.989   8.797 128.458  0.00  0.00    +0.000 C 
ATOM     21  C   UNL     1     -11.935   7.930 127.769  0.00  0.00    +0.000 C 
ATOM     22  C   UNL     1     -10.544   8.496 128.063  0.00  0.00    +0.000 C 
ENDBRANCH  18  21
ENDBRANCH  17  18
ENDBRANCH  14  17
ENDBRANCH  13  14
ENDBRANCH   1  13
TORSDOF 8
ENDMDL
MODEL 6
REMARK VINA RESULT:      -5.6      7.718     10.377
REMARK  Name = Practolol
REMARK  11 active torsions:
REMARK  status: ('A' for Active; 'I' for Inactive)
REMARK    1  A    between atoms: C_1  and  C_2
REMARK    2  A    between atoms: C_2  and  C_3
REMARK    3  A    between atoms: C_2  and  N_4
REMARK    4  A    between atoms: N_4  and  C_5
REMARK    5  A    between atoms: C_5  and  C_6
REMARK    6  A    between atoms: C_6  and  O_7
REMARK    7  A    between atoms: C_6  and  C_8
REMARK    8  A    between atoms: C_8  and  O_9
REMARK    9  A    between atoms: O_9  and  C_10
REMARK   10  A    between atoms: C_13  and  N_14
REMARK   11  A    between atoms: C_15  and  C_16
REMARK                            x       y       z     vdW  Elec       q    Type
REMARK                         _______ _______ _______ _____ _____    ______ ____
ROOT
ATOM      1  O   UNL     1     -10.927   4.094 130.182  0.00  0.00    +0.000 OA
ENDROOT
BRANCH   1   2
ATOM      2  C   UNL     1     -10.046   3.116 130.527  0.00  0.00    +0.000 A 
ATOM      3  C   UNL     1      -9.070   2.748 129.599  0.00  0.00    +0.000 A 
ATOM      4  C   UNL     1      -8.200   1.669 129.862  0.00  0.00    +0.000 A 
ATOM      5  C   UNL     1      -8.312   0.954 131.059  0.00  0.00    +0.000 A 
ATOM      6  C   UNL     1      -9.389   1.263 131.873  0.00  0.00    +0.000 A 
ATOM      7  C   UNL     1     -10.187   2.374 131.678  0.00  0.00    +0.000 A 
BRANCH   5   8
ATOM      8  N   UNL     1      -7.360  -0.029 131.398  0.00  0.00    +0.000 N 
ATOM      9  C   UNL     1      -7.168  -1.308 130.948  0.00  0.00    +0.000 C 
ATOM     10  C   UNL     1      -7.985  -1.962 129.861  0.00  0.00    +0.000 C 
ATOM     11  O   UNL     1      -6.257  -1.974 131.476  0.00  0.00    +0.000 OA
ATOM     12  H   UNL     1      -6.750   0.177 132.185  0.00  0.00    +0.000 HD
ENDBRANCH   5   8
ENDBRANCH   1   2
BRANCH   1  13
ATOM     13  C   UNL     1     -10.370   5.410 130.125  0.00  0.00    +0.000 C 
BRANCH  13  14
ATOM     14  C   UNL     1     -11.327   6.373 130.829  0.00  0.00    +0.000 C 
BRANCH  14  15
ATOM     15  O   UNL     1     -11.837   5.794 132.036  0.00  0.00    +0.000 OA
ATOM     16  H   UNL     1     -11.153   5.197 132.381  0.00  0.00    +0.000 HD
ENDBRANCH  14  15
BRANCH  14  17
ATOM     17  C   UNL     1     -12.490   6.687 129.886  0.00  0.00    +0.000 C 
BRANCH  17  18
ATOM     18  N   UNL     1     -12.151   6.328 128.508  0.00  0.00    +0.000 NA
ATOM     19  H   UNL     1     -11.186   5.985 128.490  0.00  0.00    +0.000 HD
BRANCH  18  21
ATOM     20  C   UNL     1     -13.222   8.496 128.239  0.00  0.00    +0.000 C 
ATOM     21  C   UNL     1     -12.334   7.442 127.578  0.00  0.00    +0.000 C 
ATOM     22  C   UNL     1     -10.990   8.072 127.208  0.00  0.00    +0.000 C 
ENDBRANCH  18  21
ENDBRANCH  17  18
ENDBRANCH  14  17
ENDBRANCH  13  14
ENDBRANCH   1  13
TORSDOF 8
ENDMDL
MODEL 7
REMARK VINA RESULT:      -5.6      4.635      6.672
REMARK  Name = Practolol
REMARK  11 active torsions:
REMARK  status: ('A' for Active; 'I' for Inactive)
REMARK    1  A    between atoms: C_1  and  C_2
REMARK    2  A    between atoms: C_2  and  C_3
REMARK    3  A    between atoms: C_2  and  N_4
REMARK    4  A    between atoms: N_4  and  C_5
REMARK    5  A    between atoms: C_5  and  C_6
REMARK    6  A    between atoms: C_6  and  O_7
REMARK    7  A    between atoms: C_6  and  C_8
REMARK    8  A    between atoms: C_8  and  O_9
REMARK    9  A    between atoms: O_9  and  C_10
REMARK   10  A    between atoms: C_13  and  N_14
REMARK   11  A    between atoms: C_15  and  C_16
REMARK                            x       y       z     vdW  Elec       q    Type
REMARK                         _______ _______ _______ _____ _____    ______ ____
ROOT
ATOM      1  O   UNL     1      -8.492  -3.437 126.793  0.00  0.00    +0.000 OA
ENDROOT
BRANCH   1   2
ATOM      2  C   UNL     1      -8.226  -2.797 127.964  0.00  0.00    +0.000 A 
ATOM      3  C   UNL     1      -7.734  -1.492 127.907  0.00  0.00    +0.000 A 
ATOM      4  C   UNL     1      -7.341  -0.821 129.084  0.00  0.00    +0.000 A 
ATOM      5  C   UNL     1      -7.439  -1.464 130.323  0.00  0.00    +0.000 A 
ATOM      6  C   UNL     1      -7.790  -2.803 130.306  0.00  0.00    +0.000 A 
ATOM      7  C   UNL     1      -8.268  -3.443 129.179  0.00  0.00    +0.000 A 
BRANCH   5   8
ATOM      8  N   UNL     1      -7.188  -0.758 131.518  0.00  0.00    +0.000 N 
ATOM      9  C   UNL     1      -7.933   0.158 132.210  0.00  0.00    +0.000 C 
ATOM     10  C   UNL     1      -9.323   0.598 131.821  0.00  0.00    +0.000 C 
ATOM     11  O   UNL     1      -7.424   0.662 133.230  0.00  0.00    +0.000 OA
ATOM     12  H   UNL     1      -6.257  -0.845 131.913  0.00  0.00    +0.000 HD
ENDBRANCH   5   8
ENDBRANCH   1   2
BRANCH   1  13
ATOM     13  C   UNL     1      -9.435  -2.773 125.946  0.00  0.00    +0.000 C 
BRANCH  13  14
ATOM     14  C   UNL     1      -8.994  -2.954 124.493  0.00  0.00    +0.000 C 
BRANCH  14  15
ATOM     15  O   UNL     1     -10.096  -3.359 123.672  0.00  0.00    +0.000 OA
ATOM     16  H   UNL     1      -9.868  -4.223 123.290  0.00  0.00    +0.000 HD
ENDBRANCH  14  15
BRANCH  14  17
ATOM     17  C   UNL     1      -7.901  -4.023 124.442  0.00  0.00    +0.000 C 
BRANCH  17  18
ATOM     18  N   UNL     1      -6.574  -3.407 124.428  0.00  0.00    +0.000 NA
ATOM     19  H   UNL     1      -6.180  -3.464 125.372  0.00  0.00    +0.000 HD
BRANCH  18  21
ATOM     20  C   UNL     1      -5.701  -1.174 124.841  0.00  0.00    +0.000 C 
ATOM     21  C   UNL     1      -6.602  -2.026 123.948  0.00  0.00    +0.000 C 
ATOM     22  C   UNL     1      -6.109  -1.939 122.502  0.00  0.00    +0.000 C 
ENDBRANCH  18  21
ENDBRANCH  17  18
ENDBRANCH  14  17
ENDBRANCH  13  14
ENDBRANCH   1  13
TORSDOF 8
ENDMDL
MODEL 8
REMARK VINA RESULT:      -5.6      2.958      3.878
REMARK  Name = Practolol
REMARK  11 active torsions:
REMARK  status: ('A' for Active; 'I' for Inactive)
REMARK    1  A    between atoms: C_1  and  C_2
REMARK    2  A    between atoms: C_2  and  C_3
REMARK    3  A    between atoms: C_2  and  N_4
REMARK    4  A    between atoms: N_4  and  C_5
REMARK    5  A    between atoms: C_5  and  C_6
REMARK    6  A    between atoms: C_6  and  O_7
REMARK    7  A    between atoms: C_6  and  C_8
REMARK    8  A    between atoms: C_8  and  O_9
REMARK    9  A    between atoms: O_9  and  C_10
REMARK   10  A    between atoms: C_13  and  N_14
REMARK   11  A    between atoms: C_15  and  C_16
REMARK                            x       y       z     vdW  Elec       q    Type
REMARK                         _______ _______ _______ _____ _____    ______ ____
ROOT
ATOM      1  O   UNL     1      -7.542   1.746 122.967  0.00  0.00    +0.000 OA
ENDROOT
BRANCH   1   2
ATOM      2  C   UNL     1      -6.759   2.352 123.901  0.00  0.00    +0.000 A 
ATOM      3  C   UNL     1      -6.171   3.576 123.578  0.00  0.00    +0.000 A 
ATOM      4  C   UNL     1      -5.267   4.195 124.466  0.00  0.00    +0.000 A 
ATOM      5  C   UNL     1      -4.948   3.581 125.682  0.00  0.00    +0.000 A 
ATOM      6  C   UNL     1      -5.440   2.302 125.885  0.00  0.00    +0.000 A 
ATOM      7  C   UNL     1      -6.399   1.727 125.074  0.00  0.00    +0.000 A 
BRANCH   5   8
ATOM      8  N   UNL     1      -4.162   4.253 126.640  0.00  0.00    +0.000 N 
ATOM      9  C   UNL     1      -2.861   4.087 127.033  0.00  0.00    +0.000 C 
ATOM     10  C   UNL     1      -1.907   3.089 126.426  0.00  0.00    +0.000 C 
ATOM     11  O   UNL     1      -2.441   4.810 127.957  0.00  0.00    +0.000 OA
ATOM     12  H   UNL     1      -4.640   4.924 127.235  0.00  0.00    +0.000 HD
ENDBRANCH   5   8
ENDBRANCH   1   2
BRANCH   1  13
ATOM     13  C   UNL     1      -8.938   1.724 123.278  0.00  0.00    +0.000 C 
BRANCH  13  14
ATOM     14  C   UNL     1      -9.539   0.435 122.717  0.00  0.00    +0.000 C 
BRANCH  14  15
ATOM     15  O   UNL     1     -10.971   0.476 122.765  0.00  0.00    +0.000 OA
ATOM     16  H   UNL     1     -11.218   0.977 123.559  0.00  0.00    +0.000 HD
ENDBRANCH  14  15
BRANCH  14  17
ATOM     17  C   UNL     1      -9.037  -0.745 123.552  0.00  0.00    +0.000 C 
BRANCH  17  18
ATOM     18  N   UNL     1      -7.744  -1.218 123.054  0.00  0.00    +0.000 NA
ATOM     19  H   UNL     1      -7.889  -1.656 122.139  0.00  0.00    +0.000 HD
BRANCH  18  21
ATOM     20  C   UNL     1      -7.974  -3.372 124.163  0.00  0.00    +0.000 C 
ATOM     21  C   UNL     1      -7.089  -2.138 123.984  0.00  0.00    +0.000 C 
ATOM     22  C   UNL     1      -5.721  -2.571 123.452  0.00  0.00    +0.000 C 
ENDBRANCH  18  21
ENDBRANCH  17  18
ENDBRANCH  14  17
ENDBRANCH  13  14
ENDBRANCH   1  13
TORSDOF 8
ENDMDL
MODEL 9
REMARK VINA RESULT:      -5.5      3.195      6.902
REMARK  Name = Practolol
REMARK  11 active torsions:
REMARK  status: ('A' for Active; 'I' for Inactive)
REMARK    1  A    between atoms: C_1  and  C_2
REMARK    2  A    between atoms: C_2  and  C_3
REMARK    3  A    between atoms: C_2  and  N_4
REMARK    4  A    between atoms: N_4  and  C_5
REMARK    5  A    between atoms: C_5  and  C_6
REMARK    6  A    between atoms: C_6  and  O_7
REMARK    7  A    between atoms: C_6  and  C_8
REMARK    8  A    between atoms: C_8  and  O_9
REMARK    9  A    between atoms: O_9  and  C_10
REMARK   10  A    between atoms: C_13  and  N_14
REMARK   11  A    between atoms: C_15  and  C_16
REMARK                            x       y       z     vdW  Elec       q    Type
REMARK                         _______ _______ _______ _____ _____    ______ ____
ROOT
ATOM      1  O   UNL     1      -9.411  -1.419 124.405  0.00  0.00    +0.000 OA
ENDROOT
BRANCH   1   2
ATOM      2  C   UNL     1      -8.916  -1.873 125.589  0.00  0.00    +0.000 A 
ATOM      3  C   UNL     1      -9.282  -3.152 126.012  0.00  0.00    +0.000 A 
ATOM      4  C   UNL     1      -8.886  -3.630 127.278  0.00  0.00    +0.000 A 
ATOM      5  C   UNL     1      -8.122  -2.820 128.126  0.00  0.00    +0.000 A 
ATOM      6  C   UNL     1      -7.916  -1.512 127.721  0.00  0.00    +0.000 A 
ATOM      7  C   UNL     1      -8.212  -1.061 126.450  0.00  0.00    +0.000 A 
BRANCH   5   8
ATOM      8  N   UNL     1      -7.598  -3.335 129.329  0.00  0.00    +0.000 N 
ATOM      9  C   UNL     1      -6.313  -3.482 129.777  0.00  0.00    +0.000 C 
ATOM     10  C   UNL     1      -5.088  -3.032 129.019  0.00  0.00    +0.000 C 
ATOM     11  O   UNL     1      -6.146  -4.027 130.885  0.00  0.00    +0.000 OA
ATOM     12  H   UNL     1      -8.258  -3.778 129.963  0.00  0.00    +0.000 HD
ENDBRANCH   5   8
ENDBRANCH   1   2
BRANCH   1  13
ATOM     13  C   UNL     1      -8.806  -0.214 123.925  0.00  0.00    +0.000 C 
BRANCH  13  14
ATOM     14  C   UNL     1      -9.912   0.803 123.642  0.00  0.00    +0.000 C 
BRANCH  14  15
ATOM     15  O   UNL     1     -10.697   0.403 122.513  0.00  0.00    +0.000 OA
ATOM     16  H   UNL     1     -11.528   0.905 122.547  0.00  0.00    +0.000 HD
ENDBRANCH  14  15
BRANCH  14  17
ATOM     17  C   UNL     1      -9.267   2.162 123.356  0.00  0.00    +0.000 C 
BRANCH  17  18
ATOM     18  N   UNL     1      -9.290   3.008 124.550  0.00  0.00    +0.000 NA
ATOM     19  H   UNL     1      -9.892   3.816 124.364  0.00  0.00    +0.000 HD
BRANCH  18  21
ATOM     20  C   UNL     1      -7.560   2.661 126.226  0.00  0.00    +0.000 C 
ATOM     21  C   UNL     1      -7.952   3.429 124.964  0.00  0.00    +0.000 C 
ATOM     22  C   UNL     1      -6.926   3.150 123.863  0.00  0.00    +0.000 C 
ENDBRANCH  18  21
ENDBRANCH  17  18
ENDBRANCH  14  17
ENDBRANCH  13  14
ENDBRANCH   1  13
TORSDOF 8
ENDMDL
