MODEL 1
REMARK VINA RESULT:      -9.6      0.000      0.000
REMARK  Name = Pralsetinib
REMARK  11 active torsions:
REMARK  status: ('A' for Active; 'I' for Inactive)
REMARK    1  A    between atoms: C_1  and  O_2
REMARK    2  A    between atoms: O_2  and  C_3
REMARK    3  A    between atoms: C_3  and  C_23
REMARK    4  A    between atoms: C_6  and  C_9
REMARK    5  A    between atoms: C_11  and  N_12
REMARK    6  A    between atoms: C_16  and  C_17
REMARK    7  A    between atoms: C_20  and  C_21
REMARK    8  A    between atoms: N_25  and  C_26
REMARK    9  A    between atoms: C_26  and  C_27
REMARK   10  A    between atoms: C_26  and  C_28
REMARK   11  A    between atoms: C_31  and  N_34
REMARK                            x       y       z     vdW  Elec       q    Type
REMARK                         _______ _______ _______ _____ _____    ______ ____
ROOT
ATOM      1  C   UNL     1      -2.948   6.043 130.931  0.00  0.00    +0.000 C 
ATOM      2  C   UNL     1      -3.626   7.207 131.687  0.00  0.00    +0.000 C 
ATOM      3  C   UNL     1      -2.649   8.165 132.356  0.00  0.00    +0.000 C 
ATOM      4  C   UNL     1      -1.651   7.426 133.248  0.00  0.00    +0.000 C 
ATOM      5  C   UNL     1      -0.921   6.333 132.472  0.00  0.00    +0.000 C 
ATOM      6  C   UNL     1      -1.904   5.357 131.837  0.00  0.00    +0.000 C 
ENDROOT
BRANCH   4   7
ATOM      7  C   UNL     1      -0.662   8.410 133.816  0.00  0.00    +0.000 A 
ATOM      8  N   UNL     1      -0.429   9.543 133.116  0.00  0.00    +0.000 NA
ATOM      9  C   UNL     1       0.408  10.435 133.656  0.00  0.00    +0.000 A 
ATOM     10  C   UNL     1       0.995  10.196 134.884  0.00  0.00    +0.000 A 
ATOM     11  C   UNL     1       0.719   9.012 135.525  0.00  0.00    +0.000 A 
ATOM     12  C   UNL     1       1.352   8.710 136.846  0.00  0.00    +0.000 C 
ATOM     13  N   UNL     1      -0.108   8.098 135.001  0.00  0.00    +0.000 NA
BRANCH   9  14
ATOM     14  N   UNL     1       0.689  11.612 132.931  0.00  0.00    +0.000 N 
ATOM     15  C   UNL     1      -0.236  12.511 132.539  0.00  0.00    +0.000 A 
ATOM     16  N   UNL     1      -0.676  12.709 131.297  0.00  0.00    +0.000 NA
ATOM     17  N   UNL     1      -1.725  13.539 131.451  0.00  0.00    +0.000 N 
ATOM     18  C   UNL     1      -1.928  13.937 132.744  0.00  0.00    +0.000 A 
ATOM     19  C   UNL     1      -3.025  14.833 133.159  0.00  0.00    +0.000 C 
ATOM     20  C   UNL     1      -0.937  13.319 133.467  0.00  0.00    +0.000 A 
ATOM     21  H   UNL     1       1.539  11.487 132.394  0.00  0.00    +0.000 HD
ATOM     22  H   UNL     1      -2.271  13.782 130.631  0.00  0.00    +0.000 HD
ENDBRANCH   9  14
ENDBRANCH   4   7
BRANCH   1  23
ATOM     23  C   UNL     1      -4.106   5.078 130.507  0.00  0.00    +0.000 C 
ATOM     24  O   UNL     1      -3.890   4.049 129.858  0.00  0.00    +0.000 OA
ATOM     25  N   UNL     1      -5.345   5.334 131.053  0.00  0.00    +0.000 N 
ATOM     26  H   UNL     1      -5.529   6.221 131.502  0.00  0.00    +0.000 HD
BRANCH  25  27
ATOM     27  C   UNL     1      -6.437   4.374 130.971  0.00  0.00    +0.000 C 
ATOM     28  C   UNL     1      -6.650   3.674 132.318  0.00  0.00    +0.000 C 
BRANCH  27  29
ATOM     29  C   UNL     1      -7.704   5.080 130.539  0.00  0.00    +0.000 A 
ATOM     30  C   UNL     1      -7.973   6.404 130.916  0.00  0.00    +0.000 A 
ATOM     31  C   UNL     1      -9.091   7.063 130.412  0.00  0.00    +0.000 A 
ATOM     32  C   UNL     1      -9.962   6.352 129.594  0.00  0.00    +0.000 A 
ATOM     33  N   UNL     1      -9.780   5.040 129.286  0.00  0.00    +0.000 NA
ATOM     34  C   UNL     1      -8.651   4.446 129.742  0.00  0.00    +0.000 A 
BRANCH  32  35
ATOM     35  N   UNL     1     -11.055   7.046 129.000  0.00  0.00    +0.000 N 
ATOM     36  C   UNL     1     -11.681   8.163 129.519  0.00  0.00    +0.000 A 
ATOM     37  C   UNL     1     -12.608   8.526 128.584  0.00  0.00    +0.000 A 
ATOM     38  F   UNL     1     -13.378   9.573 128.624  0.00  0.00    +0.000 F 
ATOM     39  C   UNL     1     -12.549   7.569 127.572  0.00  0.00    +0.000 A 
ATOM     40  N   UNL     1     -11.581   6.676 127.799  0.00  0.00    +0.000 NA
ENDBRANCH  32  35
ENDBRANCH  27  29
ENDBRANCH  25  27
ENDBRANCH   1  23
BRANCH   1  42
ATOM     41  C   UNL     1      -3.127   7.192 128.835  0.00  0.00    +0.000 C 
ATOM     42  O   UNL     1      -2.257   6.610 129.801  0.00  0.00    +0.000 OA
ENDBRANCH   1  42
TORSDOF 7
ENDMDL
MODEL 2
REMARK VINA RESULT:      -8.7      4.059      5.236
REMARK  Name = Pralsetinib
REMARK  11 active torsions:
REMARK  status: ('A' for Active; 'I' for Inactive)
REMARK    1  A    between atoms: C_1  and  O_2
REMARK    2  A    between atoms: O_2  and  C_3
REMARK    3  A    between atoms: C_3  and  C_23
REMARK    4  A    between atoms: C_6  and  C_9
REMARK    5  A    between atoms: C_11  and  N_12
REMARK    6  A    between atoms: C_16  and  C_17
REMARK    7  A    between atoms: C_20  and  C_21
REMARK    8  A    between atoms: N_25  and  C_26
REMARK    9  A    between atoms: C_26  and  C_27
REMARK   10  A    between atoms: C_26  and  C_28
REMARK   11  A    between atoms: C_31  and  N_34
REMARK                            x       y       z     vdW  Elec       q    Type
REMARK                         _______ _______ _______ _____ _____    ______ ____
ROOT
ATOM      1  C   UNL     1      -3.872   5.860 129.795  0.00  0.00    +0.000 C 
ATOM      2  C   UNL     1      -2.393   5.756 130.230  0.00  0.00    +0.000 C 
ATOM      3  C   UNL     1      -2.117   6.295 131.627  0.00  0.00    +0.000 C 
ATOM      4  C   UNL     1      -2.652   7.716 131.803  0.00  0.00    +0.000 C 
ATOM      5  C   UNL     1      -4.136   7.795 131.455  0.00  0.00    +0.000 C 
ATOM      6  C   UNL     1      -4.399   7.289 130.043  0.00  0.00    +0.000 C 
ENDROOT
BRANCH   4   7
ATOM      7  C   UNL     1      -2.425   8.165 133.223  0.00  0.00    +0.000 A 
ATOM      8  N   UNL     1      -1.617   9.231 133.423  0.00  0.00    +0.000 NA
ATOM      9  C   UNL     1      -1.466   9.656 134.682  0.00  0.00    +0.000 A 
ATOM     10  C   UNL     1      -2.123   9.025 135.722  0.00  0.00    +0.000 A 
ATOM     11  C   UNL     1      -2.914   7.938 135.436  0.00  0.00    +0.000 A 
ATOM     12  C   UNL     1      -3.624   7.217 136.538  0.00  0.00    +0.000 C 
ATOM     13  N   UNL     1      -3.074   7.486 134.185  0.00  0.00    +0.000 NA
BRANCH   9  14
ATOM     14  N   UNL     1      -0.606  10.748 134.920  0.00  0.00    +0.000 N 
ATOM     15  C   UNL     1       0.166  11.336 133.984  0.00  0.00    +0.000 A 
ATOM     16  N   UNL     1       1.490  11.242 133.871  0.00  0.00    +0.000 NA
ATOM     17  N   UNL     1       1.758  11.812 132.681  0.00  0.00    +0.000 N 
ATOM     18  C   UNL     1       0.656  12.333 132.060  0.00  0.00    +0.000 A 
ATOM     19  C   UNL     1       0.699  12.994 130.740  0.00  0.00    +0.000 C 
ATOM     20  C   UNL     1      -0.390  12.079 132.914  0.00  0.00    +0.000 A 
ATOM     21  H   UNL     1      -0.320  10.752 135.892  0.00  0.00    +0.000 HD
ATOM     22  H   UNL     1       2.715  11.798 132.344  0.00  0.00    +0.000 HD
ENDBRANCH   9  14
ENDBRANCH   4   7
BRANCH   1  23
ATOM     23  C   UNL     1      -3.902   5.459 128.282  0.00  0.00    +0.000 C 
ATOM     24  O   UNL     1      -4.280   6.246 127.408  0.00  0.00    +0.000 OA
ATOM     25  N   UNL     1      -3.309   4.258 127.957  0.00  0.00    +0.000 N 
ATOM     26  H   UNL     1      -3.090   3.587 128.681  0.00  0.00    +0.000 HD
BRANCH  25  27
ATOM     27  C   UNL     1      -3.019   3.889 126.579  0.00  0.00    +0.000 C 
ATOM     28  C   UNL     1      -1.790   2.977 126.505  0.00  0.00    +0.000 C 
BRANCH  27  29
ATOM     29  C   UNL     1      -4.222   3.200 125.972  0.00  0.00    +0.000 A 
ATOM     30  C   UNL     1      -4.576   1.891 126.328  0.00  0.00    +0.000 A 
ATOM     31  C   UNL     1      -5.750   1.324 125.838  0.00  0.00    +0.000 A 
ATOM     32  C   UNL     1      -6.510   2.061 124.936  0.00  0.00    +0.000 A 
ATOM     33  N   UNL     1      -6.145   3.295 124.498  0.00  0.00    +0.000 NA
ATOM     34  C   UNL     1      -5.031   3.842 125.040  0.00  0.00    +0.000 A 
BRANCH  32  35
ATOM     35  N   UNL     1      -7.758   1.525 124.504  0.00  0.00    +0.000 N 
ATOM     36  C   UNL     1      -9.000   2.089 124.726  0.00  0.00    +0.000 A 
ATOM     37  C   UNL     1      -9.887   1.282 124.073  0.00  0.00    +0.000 A 
ATOM     38  F   UNL     1     -11.167   1.476 123.952  0.00  0.00    +0.000 F 
ATOM     39  C   UNL     1      -9.147   0.226 123.541  0.00  0.00    +0.000 A 
ATOM     40  N   UNL     1      -7.839   0.380 123.770  0.00  0.00    +0.000 NA
ENDBRANCH  32  35
ENDBRANCH  27  29
ENDBRANCH  25  27
ENDBRANCH   1  23
BRANCH   1  42
ATOM     41  C   UNL     1      -6.004   4.876 130.275  0.00  0.00    +0.000 C 
ATOM     42  O   UNL     1      -4.626   4.955 130.624  0.00  0.00    +0.000 OA
ENDBRANCH   1  42
TORSDOF 7
ENDMDL
MODEL 3
REMARK VINA RESULT:      -8.5      5.819     10.940
REMARK  Name = Pralsetinib
REMARK  11 active torsions:
REMARK  status: ('A' for Active; 'I' for Inactive)
REMARK    1  A    between atoms: C_1  and  O_2
REMARK    2  A    between atoms: O_2  and  C_3
REMARK    3  A    between atoms: C_3  and  C_23
REMARK    4  A    between atoms: C_6  and  C_9
REMARK    5  A    between atoms: C_11  and  N_12
REMARK    6  A    between atoms: C_16  and  C_17
REMARK    7  A    between atoms: C_20  and  C_21
REMARK    8  A    between atoms: N_25  and  C_26
REMARK    9  A    between atoms: C_26  and  C_27
REMARK   10  A    between atoms: C_26  and  C_28
REMARK   11  A    between atoms: C_31  and  N_34
REMARK                            x       y       z     vdW  Elec       q    Type
REMARK                         _______ _______ _______ _____ _____    ______ ____
ROOT
ATOM      1  C   UNL     1      -5.858   1.924 132.319  0.00  0.00    +0.000 C 
ATOM      2  C   UNL     1      -7.264   1.322 132.539  0.00  0.00    +0.000 C 
ATOM      3  C   UNL     1      -7.445  -0.067 131.941  0.00  0.00    +0.000 C 
ATOM      4  C   UNL     1      -7.044  -0.107 130.466  0.00  0.00    +0.000 C 
ATOM      5  C   UNL     1      -5.622   0.409 130.266  0.00  0.00    +0.000 C 
ATOM      6  C   UNL     1      -5.459   1.813 130.834  0.00  0.00    +0.000 C 
ENDROOT
BRANCH   4   7
ATOM      7  C   UNL     1      -7.165  -1.517 129.951  0.00  0.00    +0.000 A 
ATOM      8  N   UNL     1      -7.974  -1.731 128.889  0.00  0.00    +0.000 NA
ATOM      9  C   UNL     1      -8.032  -2.976 128.405  0.00  0.00    +0.000 A 
ATOM     10  C   UNL     1      -7.282  -3.989 128.973  0.00  0.00    +0.000 A 
ATOM     11  C   UNL     1      -6.496  -3.692 130.062  0.00  0.00    +0.000 A 
ATOM     12  C   UNL     1      -5.686  -4.766 130.716  0.00  0.00    +0.000 C 
ATOM     13  N   UNL     1      -6.428  -2.455 130.572  0.00  0.00    +0.000 NA
BRANCH   9  14
ATOM     14  N   UNL     1      -8.891  -3.230 127.316  0.00  0.00    +0.000 N 
ATOM     15  C   UNL     1      -8.736  -2.716 126.079  0.00  0.00    +0.000 A 
ATOM     16  N   UNL     1      -9.478  -1.764 125.515  0.00  0.00    +0.000 NA
ATOM     17  N   UNL     1      -8.808  -1.451 124.390  0.00  0.00    +0.000 N 
ATOM     18  C   UNL     1      -7.698  -2.221 124.178  0.00  0.00    +0.000 A 
ATOM     19  C   UNL     1      -6.797  -2.053 123.020  0.00  0.00    +0.000 C 
ATOM     20  C   UNL     1      -7.657  -3.089 125.242  0.00  0.00    +0.000 A 
ATOM     21  H   UNL     1      -9.815  -3.466 127.657  0.00  0.00    +0.000 HD
ATOM     22  H   UNL     1      -9.155  -0.687 123.819  0.00  0.00    +0.000 HD
ENDBRANCH   9  14
ENDBRANCH   4   7
BRANCH   1  23
ATOM     23  C   UNL     1      -5.947   3.407 132.812  0.00  0.00    +0.000 C 
ATOM     24  O   UNL     1      -5.097   4.248 132.501  0.00  0.00    +0.000 OA
ATOM     25  N   UNL     1      -7.114   3.770 133.448  0.00  0.00    +0.000 N 
ATOM     26  H   UNL     1      -7.756   3.061 133.777  0.00  0.00    +0.000 HD
BRANCH  25  27
ATOM     27  C   UNL     1      -7.449   5.162 133.711  0.00  0.00    +0.000 C 
ATOM     28  C   UNL     1      -6.181   6.009 133.861  0.00  0.00    +0.000 C 
BRANCH  27  29
ATOM     29  C   UNL     1      -8.310   5.700 132.589  0.00  0.00    +0.000 A 
ATOM     30  C   UNL     1      -9.710   5.714 132.679  0.00  0.00    +0.000 A 
ATOM     31  C   UNL     1     -10.471   6.316 131.680  0.00  0.00    +0.000 A 
ATOM     32  C   UNL     1      -9.811   6.828 130.568  0.00  0.00    +0.000 A 
ATOM     33  N   UNL     1      -8.464   6.745 130.406  0.00  0.00    +0.000 NA
ATOM     34  C   UNL     1      -7.748   6.209 131.423  0.00  0.00    +0.000 A 
BRANCH  32  35
ATOM     35  N   UNL     1     -10.574   7.527 129.588  0.00  0.00    +0.000 N 
ATOM     36  C   UNL     1     -11.850   8.028 129.763  0.00  0.00    +0.000 A 
ATOM     37  C   UNL     1     -12.146   8.680 128.600  0.00  0.00    +0.000 A 
ATOM     38  F   UNL     1     -13.221   9.367 128.350  0.00  0.00    +0.000 F 
ATOM     39  C   UNL     1     -11.061   8.484 127.747  0.00  0.00    +0.000 A 
ATOM     40  N   UNL     1     -10.079   7.807 128.350  0.00  0.00    +0.000 NA
ENDBRANCH  32  35
ENDBRANCH  27  29
ENDBRANCH  25  27
ENDBRANCH   1  23
BRANCH   1  42
ATOM     41  C   UNL     1      -5.266   1.057 134.474  0.00  0.00    +0.000 C 
ATOM     42  O   UNL     1      -4.931   1.137 133.092  0.00  0.00    +0.000 OA
ENDBRANCH   1  42
TORSDOF 7
ENDMDL
MODEL 4
REMARK VINA RESULT:      -8.4      3.104     10.478
REMARK  Name = Pralsetinib
REMARK  11 active torsions:
REMARK  status: ('A' for Active; 'I' for Inactive)
REMARK    1  A    between atoms: C_1  and  O_2
REMARK    2  A    between atoms: O_2  and  C_3
REMARK    3  A    between atoms: C_3  and  C_23
REMARK    4  A    between atoms: C_6  and  C_9
REMARK    5  A    between atoms: C_11  and  N_12
REMARK    6  A    between atoms: C_16  and  C_17
REMARK    7  A    between atoms: C_20  and  C_21
REMARK    8  A    between atoms: N_25  and  C_26
REMARK    9  A    between atoms: C_26  and  C_27
REMARK   10  A    between atoms: C_26  and  C_28
REMARK   11  A    between atoms: C_31  and  N_34
REMARK                            x       y       z     vdW  Elec       q    Type
REMARK                         _______ _______ _______ _____ _____    ______ ____
ROOT
ATOM      1  C   UNL     1      -4.306   6.024 133.339  0.00  0.00    +0.000 C 
ATOM      2  C   UNL     1      -5.513   5.892 134.295  0.00  0.00    +0.000 C 
ATOM      3  C   UNL     1      -6.755   5.295 133.647  0.00  0.00    +0.000 C 
ATOM      4  C   UNL     1      -7.136   6.032 132.363  0.00  0.00    +0.000 C 
ATOM      5  C   UNL     1      -5.964   6.083 131.387  0.00  0.00    +0.000 C 
ATOM      6  C   UNL     1      -4.737   6.716 132.030  0.00  0.00    +0.000 C 
ENDROOT
BRANCH   4   7
ATOM      7  C   UNL     1      -8.318   5.350 131.724  0.00  0.00    +0.000 A 
ATOM      8  N   UNL     1      -9.533   5.920 131.881  0.00  0.00    +0.000 NA
ATOM      9  C   UNL     1     -10.567   5.337 131.264  0.00  0.00    +0.000 A 
ATOM     10  C   UNL     1     -10.380   4.204 130.495  0.00  0.00    +0.000 A 
ATOM     11  C   UNL     1      -9.114   3.676 130.399  0.00  0.00    +0.000 A 
ATOM     12  C   UNL     1      -8.877   2.439 129.592  0.00  0.00    +0.000 C 
ATOM     13  N   UNL     1      -8.064   4.236 131.015  0.00  0.00    +0.000 NA
BRANCH   9  14
ATOM     14  N   UNL     1     -11.850   5.897 131.436  0.00  0.00    +0.000 N 
ATOM     15  C   UNL     1     -12.417   6.788 130.599  0.00  0.00    +0.000 A 
ATOM     16  N   UNL     1     -12.607   8.087 130.828  0.00  0.00    +0.000 NA
ATOM     17  N   UNL     1     -12.998   8.575 129.636  0.00  0.00    +0.000 N 
ATOM     18  C   UNL     1     -13.135   7.620 128.667  0.00  0.00    +0.000 A 
ATOM     19  C   UNL     1     -13.538   7.917 127.278  0.00  0.00    +0.000 C 
ATOM     20  C   UNL     1     -12.810   6.436 129.284  0.00  0.00    +0.000 A 
ATOM     21  H   UNL     1     -12.094   5.894 132.419  0.00  0.00    +0.000 HD
ATOM     22  H   UNL     1     -13.139   9.576 129.549  0.00  0.00    +0.000 HD
ENDBRANCH   9  14
ENDBRANCH   4   7
BRANCH   1  23
ATOM     23  C   UNL     1      -3.226   6.839 134.127  0.00  0.00    +0.000 C 
ATOM     24  O   UNL     1      -2.973   6.607 135.314  0.00  0.00    +0.000 OA
ATOM     25  N   UNL     1      -2.443   7.694 133.382  0.00  0.00    +0.000 N 
ATOM     26  H   UNL     1      -2.716   7.943 132.441  0.00  0.00    +0.000 HD
BRANCH  25  27
ATOM     27  C   UNL     1      -1.234   8.300 133.922  0.00  0.00    +0.000 C 
ATOM     28  C   UNL     1      -0.005   7.890 133.103  0.00  0.00    +0.000 C 
BRANCH  27  29
ATOM     29  C   UNL     1      -1.380   9.807 133.932  0.00  0.00    +0.000 A 
ATOM     30  C   UNL     1      -2.098  10.482 132.934  0.00  0.00    +0.000 A 
ATOM     31  C   UNL     1      -2.311  11.854 133.029  0.00  0.00    +0.000 A 
ATOM     32  C   UNL     1      -1.730  12.538 134.092  0.00  0.00    +0.000 A 
ATOM     33  N   UNL     1      -0.950  11.929 135.024  0.00  0.00    +0.000 NA
ATOM     34  C   UNL     1      -0.814  10.584 134.937  0.00  0.00    +0.000 A 
BRANCH  32  35
ATOM     35  N   UNL     1      -2.020  13.924 134.247  0.00  0.00    +0.000 N 
ATOM     36  C   UNL     1      -2.749  14.701 133.367  0.00  0.00    +0.000 A 
ATOM     37  C   UNL     1      -2.836  15.930 133.956  0.00  0.00    +0.000 A 
ATOM     38  F   UNL     1      -3.501  16.956 133.511  0.00  0.00    +0.000 F 
ATOM     39  C   UNL     1      -2.097  15.860 135.135  0.00  0.00    +0.000 A 
ATOM     40  N   UNL     1      -1.618  14.630 135.342  0.00  0.00    +0.000 NA
ENDBRANCH  32  35
ENDBRANCH  27  29
ENDBRANCH  25  27
ENDBRANCH   1  23
BRANCH   1  42
ATOM     41  C   UNL     1      -2.754   4.654 132.132  0.00  0.00    +0.000 C 
ATOM     42  O   UNL     1      -3.868   4.690 133.017  0.00  0.00    +0.000 OA
ENDBRANCH   1  42
TORSDOF 7
ENDMDL
MODEL 5
REMARK VINA RESULT:      -8.4      5.002     11.964
REMARK  Name = Pralsetinib
REMARK  11 active torsions:
REMARK  status: ('A' for Active; 'I' for Inactive)
REMARK    1  A    between atoms: C_1  and  O_2
REMARK    2  A    between atoms: O_2  and  C_3
REMARK    3  A    between atoms: C_3  and  C_23
REMARK    4  A    between atoms: C_6  and  C_9
REMARK    5  A    between atoms: C_11  and  N_12
REMARK    6  A    between atoms: C_16  and  C_17
REMARK    7  A    between atoms: C_20  and  C_21
REMARK    8  A    between atoms: N_25  and  C_26
REMARK    9  A    between atoms: C_26  and  C_27
REMARK   10  A    between atoms: C_26  and  C_28
REMARK   11  A    between atoms: C_31  and  N_34
REMARK                            x       y       z     vdW  Elec       q    Type
REMARK                         _______ _______ _______ _____ _____    ______ ____
ROOT
ATOM      1  C   UNL     1      -5.274   5.185 130.182  0.00  0.00    +0.000 C 
ATOM      2  C   UNL     1      -4.174   5.035 129.107  0.00  0.00    +0.000 C 
ATOM      3  C   UNL     1      -4.709   4.815 127.699  0.00  0.00    +0.000 C 
ATOM      4  C   UNL     1      -5.704   3.656 127.644  0.00  0.00    +0.000 C 
ATOM      5  C   UNL     1      -6.836   3.852 128.649  0.00  0.00    +0.000 C 
ATOM      6  C   UNL     1      -6.295   4.035 130.061  0.00  0.00    +0.000 C 
ENDROOT
BRANCH   4   7
ATOM      7  C   UNL     1      -6.261   3.537 126.249  0.00  0.00    +0.000 A 
ATOM      8  N   UNL     1      -7.497   3.008 126.109  0.00  0.00    +0.000 NA
ATOM      9  C   UNL     1      -8.004   2.958 124.872  0.00  0.00    +0.000 A 
ATOM     10  C   UNL     1      -7.283   3.439 123.795  0.00  0.00    +0.000 A 
ATOM     11  C   UNL     1      -6.025   3.946 124.021  0.00  0.00    +0.000 A 
ATOM     12  C   UNL     1      -5.208   4.457 122.877  0.00  0.00    +0.000 C 
ATOM     13  N   UNL     1      -5.491   3.999 125.248  0.00  0.00    +0.000 NA
BRANCH   9  14
ATOM     14  N   UNL     1      -9.280   2.385 124.697  0.00  0.00    +0.000 N 
ATOM     15  C   UNL     1      -9.530   1.272 123.978  0.00  0.00    +0.000 A 
ATOM     16  N   UNL     1     -10.131   1.210 122.790  0.00  0.00    +0.000 NA
ATOM     17  N   UNL     1      -9.951  -0.065 122.399  0.00  0.00    +0.000 N 
ATOM     18  C   UNL     1      -9.318  -0.843 123.330  0.00  0.00    +0.000 A 
ATOM     19  C   UNL     1      -8.997  -2.269 123.120  0.00  0.00    +0.000 C 
ATOM     20  C   UNL     1      -9.077  -0.004 124.391  0.00  0.00    +0.000 A 
ATOM     21  H   UNL     1      -9.992   3.100 124.793  0.00  0.00    +0.000 HD
ATOM     22  H   UNL     1     -10.272  -0.336 121.475  0.00  0.00    +0.000 HD
ENDBRANCH   9  14
ENDBRANCH   4   7
BRANCH   1  23
ATOM     23  C   UNL     1      -4.528   5.188 131.558  0.00  0.00    +0.000 C 
ATOM     24  O   UNL     1      -4.849   4.423 132.474  0.00  0.00    +0.000 OA
ATOM     25  N   UNL     1      -3.380   5.948 131.629  0.00  0.00    +0.000 N 
ATOM     26  H   UNL     1      -3.181   6.635 130.914  0.00  0.00    +0.000 HD
BRANCH  25  27
ATOM     27  C   UNL     1      -2.445   5.831 132.739  0.00  0.00    +0.000 C 
ATOM     28  C   UNL     1      -1.344   4.814 132.419  0.00  0.00    +0.000 C 
BRANCH  27  29
ATOM     29  C   UNL     1      -1.838   7.185 133.039  0.00  0.00    +0.000 A 
ATOM     30  C   UNL     1      -0.460   7.343 133.245  0.00  0.00    +0.000 A 
ATOM     31  C   UNL     1       0.083   8.615 133.408  0.00  0.00    +0.000 A 
ATOM     32  C   UNL     1      -0.783   9.702 133.436  0.00  0.00    +0.000 A 
ATOM     33  N   UNL     1      -2.132   9.574 133.333  0.00  0.00    +0.000 NA
ATOM     34  C   UNL     1      -2.623   8.331 133.114  0.00  0.00    +0.000 A 
BRANCH  32  35
ATOM     35  N   UNL     1      -0.226  11.012 133.508  0.00  0.00    +0.000 N 
ATOM     36  C   UNL     1       0.869  11.465 132.798  0.00  0.00    +0.000 A 
ATOM     37  C   UNL     1       0.990  12.786 133.123  0.00  0.00    +0.000 A 
ATOM     38  F   UNL     1       1.845  13.630 132.626  0.00  0.00    +0.000 F 
ATOM     39  C   UNL     1       0.002  13.056 134.069  0.00  0.00    +0.000 A 
ATOM     40  N   UNL     1      -0.769  11.987 134.290  0.00  0.00    +0.000 NA
ENDBRANCH  32  35
ENDBRANCH  27  29
ENDBRANCH  25  27
ENDBRANCH   1  23
BRANCH   1  42
ATOM     41  C   UNL     1      -6.785   6.856 130.999  0.00  0.00    +0.000 C 
ATOM     42  O   UNL     1      -5.961   6.423 129.921  0.00  0.00    +0.000 OA
ENDBRANCH   1  42
TORSDOF 7
ENDMDL
MODEL 6
REMARK VINA RESULT:      -8.3      7.068     12.091
REMARK  Name = Pralsetinib
REMARK  11 active torsions:
REMARK  status: ('A' for Active; 'I' for Inactive)
REMARK    1  A    between atoms: C_1  and  O_2
REMARK    2  A    between atoms: O_2  and  C_3
REMARK    3  A    between atoms: C_3  and  C_23
REMARK    4  A    between atoms: C_6  and  C_9
REMARK    5  A    between atoms: C_11  and  N_12
REMARK    6  A    between atoms: C_16  and  C_17
REMARK    7  A    between atoms: C_20  and  C_21
REMARK    8  A    between atoms: N_25  and  C_26
REMARK    9  A    between atoms: C_26  and  C_27
REMARK   10  A    between atoms: C_26  and  C_28
REMARK   11  A    between atoms: C_31  and  N_34
REMARK                            x       y       z     vdW  Elec       q    Type
REMARK                         _______ _______ _______ _____ _____    ______ ____
ROOT
ATOM      1  C   UNL     1      -7.686  -0.392 130.519  0.00  0.00    +0.000 C 
ATOM      2  C   UNL     1      -8.876  -0.007 131.426  0.00  0.00    +0.000 C 
ATOM      3  C   UNL     1      -9.206   1.479 131.419  0.00  0.00    +0.000 C 
ATOM      4  C   UNL     1      -7.976   2.336 131.717  0.00  0.00    +0.000 C 
ATOM      5  C   UNL     1      -6.832   2.012 130.761  0.00  0.00    +0.000 C 
ATOM      6  C   UNL     1      -6.482   0.530 130.802  0.00  0.00    +0.000 C 
ENDROOT
BRANCH   4   7
ATOM      7  C   UNL     1      -8.343   3.794 131.616  0.00  0.00    +0.000 A 
ATOM      8  N   UNL     1      -9.645   4.126 131.770  0.00  0.00    +0.000 NA
ATOM      9  C   UNL     1      -9.953   5.427 131.733  0.00  0.00    +0.000 A 
ATOM     10  C   UNL     1      -8.967   6.379 131.553  0.00  0.00    +0.000 A 
ATOM     11  C   UNL     1      -7.669   5.957 131.388  0.00  0.00    +0.000 A 
ATOM     12  C   UNL     1      -6.578   6.958 131.170  0.00  0.00    +0.000 C 
ATOM     13  N   UNL     1      -7.336   4.660 131.410  0.00  0.00    +0.000 NA
BRANCH   9  14
ATOM     14  N   UNL     1     -11.307   5.797 131.863  0.00  0.00    +0.000 N 
ATOM     15  C   UNL     1     -12.002   6.500 130.947  0.00  0.00    +0.000 A 
ATOM     16  N   UNL     1     -12.392   7.771 131.048  0.00  0.00    +0.000 NA
ATOM     17  N   UNL     1     -12.849   8.071 129.818  0.00  0.00    +0.000 N 
ATOM     18  C   UNL     1     -12.832   7.013 128.951  0.00  0.00    +0.000 A 
ATOM     19  C   UNL     1     -13.271   7.103 127.544  0.00  0.00    +0.000 C 
ATOM     20  C   UNL     1     -12.330   5.962 129.679  0.00  0.00    +0.000 A 
ATOM     21  H   UNL     1     -11.552   5.855 132.844  0.00  0.00    +0.000 HD
ATOM     22  H   UNL     1     -13.143   9.024 129.632  0.00  0.00    +0.000 HD
ENDBRANCH   9  14
ENDBRANCH   4   7
BRANCH   1  23
ATOM     23  C   UNL     1      -7.381  -1.896 130.829  0.00  0.00    +0.000 C 
ATOM     24  O   UNL     1      -8.122  -2.804 130.438  0.00  0.00    +0.000 OA
ATOM     25  N   UNL     1      -6.153  -2.166 131.393  0.00  0.00    +0.000 N 
ATOM     26  H   UNL     1      -5.601  -1.419 131.791  0.00  0.00    +0.000 HD
BRANCH  25  27
ATOM     27  C   UNL     1      -5.627  -3.521 131.481  0.00  0.00    +0.000 C 
ATOM     28  C   UNL     1      -5.103  -3.992 130.120  0.00  0.00    +0.000 C 
BRANCH  27  29
ATOM     29  C   UNL     1      -4.523  -3.573 132.516  0.00  0.00    +0.000 A 
ATOM     30  C   UNL     1      -3.946  -4.787 132.915  0.00  0.00    +0.000 A 
ATOM     31  C   UNL     1      -2.859  -4.795 133.784  0.00  0.00    +0.000 A 
ATOM     32  C   UNL     1      -2.417  -3.580 134.297  0.00  0.00    +0.000 A 
ATOM     33  N   UNL     1      -3.015  -2.394 134.005  0.00  0.00    +0.000 NA
ATOM     34  C   UNL     1      -4.030  -2.415 133.109  0.00  0.00    +0.000 A 
BRANCH  32  35
ATOM     35  N   UNL     1      -1.249  -3.571 135.112  0.00  0.00    +0.000 N 
ATOM     36  C   UNL     1      -1.208  -3.823 136.470  0.00  0.00    +0.000 A 
ATOM     37  C   UNL     1       0.115  -3.784 136.807  0.00  0.00    +0.000 A 
ATOM     38  F   UNL     1       0.624  -4.040 137.976  0.00  0.00    +0.000 F 
ATOM     39  C   UNL     1       0.810  -3.441 135.648  0.00  0.00    +0.000 A 
ATOM     40  N   UNL     1      -0.009  -3.339 134.597  0.00  0.00    +0.000 NA
ENDBRANCH  32  35
ENDBRANCH  27  29
ENDBRANCH  25  27
ENDBRANCH   1  23
BRANCH   1  42
ATOM     41  C   UNL     1      -7.088  -0.472 128.199  0.00  0.00    +0.000 C 
ATOM     42  O   UNL     1      -8.101  -0.181 129.156  0.00  0.00    +0.000 OA
ENDBRANCH   1  42
TORSDOF 7
ENDMDL
MODEL 7
REMARK VINA RESULT:      -8.2      4.650      5.969
REMARK  Name = Pralsetinib
REMARK  11 active torsions:
REMARK  status: ('A' for Active; 'I' for Inactive)
REMARK    1  A    between atoms: C_1  and  O_2
REMARK    2  A    between atoms: O_2  and  C_3
REMARK    3  A    between atoms: C_3  and  C_23
REMARK    4  A    between atoms: C_6  and  C_9
REMARK    5  A    between atoms: C_11  and  N_12
REMARK    6  A    between atoms: C_16  and  C_17
REMARK    7  A    between atoms: C_20  and  C_21
REMARK    8  A    between atoms: N_25  and  C_26
REMARK    9  A    between atoms: C_26  and  C_27
REMARK   10  A    between atoms: C_26  and  C_28
REMARK   11  A    between atoms: C_31  and  N_34
REMARK                            x       y       z     vdW  Elec       q    Type
REMARK                         _______ _______ _______ _____ _____    ______ ____
ROOT
ATOM      1  C   UNL     1      -4.947   5.035 129.997  0.00  0.00    +0.000 C 
ATOM      2  C   UNL     1      -3.602   5.648 129.547  0.00  0.00    +0.000 C 
ATOM      3  C   UNL     1      -2.835   6.349 130.660  0.00  0.00    +0.000 C 
ATOM      4  C   UNL     1      -3.702   7.377 131.387  0.00  0.00    +0.000 C 
ATOM      5  C   UNL     1      -4.991   6.745 131.906  0.00  0.00    +0.000 C 
ATOM      6  C   UNL     1      -5.771   6.078 130.780  0.00  0.00    +0.000 C 
ENDROOT
BRANCH   4   7
ATOM      7  C   UNL     1      -2.920   7.977 132.526  0.00  0.00    +0.000 A 
ATOM      8  N   UNL     1      -2.131   9.041 132.255  0.00  0.00    +0.000 NA
ATOM      9  C   UNL     1      -1.484   9.601 133.283  0.00  0.00    +0.000 A 
ATOM     10  C   UNL     1      -1.634   9.104 134.565  0.00  0.00    +0.000 A 
ATOM     11  C   UNL     1      -2.443   8.008 134.754  0.00  0.00    +0.000 A 
ATOM     12  C   UNL     1      -2.614   7.431 136.123  0.00  0.00    +0.000 C 
ATOM     13  N   UNL     1      -3.094   7.423 133.739  0.00  0.00    +0.000 NA
BRANCH   9  14
ATOM     14  N   UNL     1      -0.633  10.694 133.021  0.00  0.00    +0.000 N 
ATOM     15  C   UNL     1      -1.052  11.928 132.677  0.00  0.00    +0.000 A 
ATOM     16  N   UNL     1      -0.959  12.491 131.472  0.00  0.00    +0.000 NA
ATOM     17  N   UNL     1      -1.697  13.613 131.580  0.00  0.00    +0.000 N 
ATOM     18  C   UNL     1      -2.200  13.823 132.834  0.00  0.00    +0.000 A 
ATOM     19  C   UNL     1      -3.050  14.978 133.189  0.00  0.00    +0.000 C 
ATOM     20  C   UNL     1      -1.751  12.762 133.582  0.00  0.00    +0.000 A 
ATOM     21  H   UNL     1       0.270  10.356 132.710  0.00  0.00    +0.000 HD
ATOM     22  H   UNL     1      -1.830  14.183 130.751  0.00  0.00    +0.000 HD
ENDBRANCH   9  14
ENDBRANCH   4   7
BRANCH   1  23
ATOM     23  C   UNL     1      -5.660   4.561 128.687  0.00  0.00    +0.000 C 
ATOM     24  O   UNL     1      -6.810   4.917 128.407  0.00  0.00    +0.000 OA
ATOM     25  N   UNL     1      -4.877   3.888 127.775  0.00  0.00    +0.000 N 
ATOM     26  H   UNL     1      -3.975   3.524 128.050  0.00  0.00    +0.000 HD
BRANCH  25  27
ATOM     27  C   UNL     1      -5.325   3.633 126.413  0.00  0.00    +0.000 C 
ATOM     28  C   UNL     1      -4.171   3.799 125.419  0.00  0.00    +0.000 C 
BRANCH  27  29
ATOM     29  C   UNL     1      -5.903   2.238 126.319  0.00  0.00    +0.000 A 
ATOM     30  C   UNL     1      -5.080   1.105 126.243  0.00  0.00    +0.000 A 
ATOM     31  C   UNL     1      -5.638  -0.170 126.270  0.00  0.00    +0.000 A 
ATOM     32  C   UNL     1      -7.024  -0.283 126.297  0.00  0.00    +0.000 A 
ATOM     33  N   UNL     1      -7.852   0.795 126.276  0.00  0.00    +0.000 NA
ATOM     34  C   UNL     1      -7.277   2.021 126.311  0.00  0.00    +0.000 A 
BRANCH  32  35
ATOM     35  N   UNL     1      -7.597  -1.581 126.419  0.00  0.00    +0.000 N 
ATOM     36  C   UNL     1      -8.109  -2.133 127.578  0.00  0.00    +0.000 A 
ATOM     37  C   UNL     1      -8.616  -3.346 127.208  0.00  0.00    +0.000 A 
ATOM     38  F   UNL     1      -9.264  -4.179 127.969  0.00  0.00    +0.000 F 
ATOM     39  C   UNL     1      -8.326  -3.503 125.854  0.00  0.00    +0.000 A 
ATOM     40  N   UNL     1      -7.731  -2.417 125.351  0.00  0.00    +0.000 NA
ENDBRANCH  32  35
ENDBRANCH  27  29
ENDBRANCH  25  27
ENDBRANCH   1  23
BRANCH   1  42
ATOM     41  C   UNL     1      -5.783   3.181 131.265  0.00  0.00    +0.000 C 
ATOM     42  O   UNL     1      -4.642   3.945 130.888  0.00  0.00    +0.000 OA
ENDBRANCH   1  42
TORSDOF 7
ENDMDL
MODEL 8
REMARK VINA RESULT:      -8.1      2.079      4.167
REMARK  Name = Pralsetinib
REMARK  11 active torsions:
REMARK  status: ('A' for Active; 'I' for Inactive)
REMARK    1  A    between atoms: C_1  and  O_2
REMARK    2  A    between atoms: O_2  and  C_3
REMARK    3  A    between atoms: C_3  and  C_23
REMARK    4  A    between atoms: C_6  and  C_9
REMARK    5  A    between atoms: C_11  and  N_12
REMARK    6  A    between atoms: C_16  and  C_17
REMARK    7  A    between atoms: C_20  and  C_21
REMARK    8  A    between atoms: N_25  and  C_26
REMARK    9  A    between atoms: C_26  and  C_27
REMARK   10  A    between atoms: C_26  and  C_28
REMARK   11  A    between atoms: C_31  and  N_34
REMARK                            x       y       z     vdW  Elec       q    Type
REMARK                         _______ _______ _______ _____ _____    ______ ____
ROOT
ATOM      1  C   UNL     1      -4.729   4.660 132.513  0.00  0.00    +0.000 C 
ATOM      2  C   UNL     1      -3.947   5.321 131.356  0.00  0.00    +0.000 C 
ATOM      3  C   UNL     1      -2.787   6.196 131.811  0.00  0.00    +0.000 C 
ATOM      4  C   UNL     1      -3.226   7.228 132.849  0.00  0.00    +0.000 C 
ATOM      5  C   UNL     1      -3.922   6.560 134.032  0.00  0.00    +0.000 C 
ATOM      6  C   UNL     1      -5.104   5.717 133.572  0.00  0.00    +0.000 C 
ENDROOT
BRANCH   4   7
ATOM      7  C   UNL     1      -2.027   8.007 133.321  0.00  0.00    +0.000 A 
ATOM      8  N   UNL     1      -1.103   7.351 134.061  0.00  0.00    +0.000 NA
ATOM      9  C   UNL     1      -0.015   8.037 134.429  0.00  0.00    +0.000 A 
ATOM     10  C   UNL     1       0.146   9.357 134.052  0.00  0.00    +0.000 A 
ATOM     11  C   UNL     1      -0.847   9.956 133.314  0.00  0.00    +0.000 A 
ATOM     12  C   UNL     1      -0.717  11.389 132.906  0.00  0.00    +0.000 C 
ATOM     13  N   UNL     1      -1.951   9.294 132.941  0.00  0.00    +0.000 NA
BRANCH   9  14
ATOM     14  N   UNL     1       0.948   7.383 135.224  0.00  0.00    +0.000 N 
ATOM     15  C   UNL     1       1.152   7.622 136.535  0.00  0.00    +0.000 A 
ATOM     16  N   UNL     1       2.189   8.262 137.075  0.00  0.00    +0.000 NA
ATOM     17  N   UNL     1       1.833   8.433 138.362  0.00  0.00    +0.000 N 
ATOM     18  C   UNL     1       0.633   7.859 138.683  0.00  0.00    +0.000 A 
ATOM     19  C   UNL     1       0.030   7.926 140.029  0.00  0.00    +0.000 C 
ATOM     20  C   UNL     1       0.192   7.280 137.518  0.00  0.00    +0.000 A 
ATOM     21  H   UNL     1       1.710   7.060 134.641  0.00  0.00    +0.000 HD
ATOM     22  H   UNL     1       2.450   8.965 138.967  0.00  0.00    +0.000 HD
ENDBRANCH   9  14
ENDBRANCH   4   7
BRANCH   1  23
ATOM     23  C   UNL     1      -5.982   3.993 131.854  0.00  0.00    +0.000 C 
ATOM     24  O   UNL     1      -5.874   3.093 131.013  0.00  0.00    +0.000 OA
ATOM     25  N   UNL     1      -7.206   4.323 132.396  0.00  0.00    +0.000 N 
ATOM     26  H   UNL     1      -7.290   5.120 133.012  0.00  0.00    +0.000 HD
BRANCH  25  27
ATOM     27  C   UNL     1      -8.417   3.582 132.075  0.00  0.00    +0.000 C 
ATOM     28  C   UNL     1      -9.022   2.952 133.335  0.00  0.00    +0.000 C 
BRANCH  27  29
ATOM     29  C   UNL     1      -9.419   4.504 131.415  0.00  0.00    +0.000 A 
ATOM     30  C   UNL     1      -9.351   5.896 131.571  0.00  0.00    +0.000 A 
ATOM     31  C   UNL     1     -10.217   6.725 130.864  0.00  0.00    +0.000 A 
ATOM     32  C   UNL     1     -11.190   6.132 130.066  0.00  0.00    +0.000 A 
ATOM     33  N   UNL     1     -11.344   4.785 129.967  0.00  0.00    +0.000 NA
ATOM     34  C   UNL     1     -10.447   4.008 130.619  0.00  0.00    +0.000 A 
BRANCH  32  35
ATOM     35  N   UNL     1     -12.018   6.973 129.268  0.00  0.00    +0.000 N 
ATOM     36  C   UNL     1     -12.437   8.247 129.601  0.00  0.00    +0.000 A 
ATOM     37  C   UNL     1     -13.137   8.694 128.517  0.00  0.00    +0.000 A 
ATOM     38  F   UNL     1     -13.651   9.878 128.362  0.00  0.00    +0.000 F 
ATOM     39  C   UNL     1     -13.168   7.642 127.602  0.00  0.00    +0.000 A 
ATOM     40  N   UNL     1     -12.460   6.595 128.035  0.00  0.00    +0.000 NA
ENDBRANCH  32  35
ENDBRANCH  27  29
ENDBRANCH  25  27
ENDBRANCH   1  23
BRANCH   1  42
ATOM     41  C   UNL     1      -4.403   3.081 134.286  0.00  0.00    +0.000 C 
ATOM     42  O   UNL     1      -3.849   3.700 133.129  0.00  0.00    +0.000 OA
ENDBRANCH   1  42
TORSDOF 7
ENDMDL
MODEL 9
REMARK VINA RESULT:      -8.1      4.711      6.338
REMARK  Name = Pralsetinib
REMARK  11 active torsions:
REMARK  status: ('A' for Active; 'I' for Inactive)
REMARK    1  A    between atoms: C_1  and  O_2
REMARK    2  A    between atoms: O_2  and  C_3
REMARK    3  A    between atoms: C_3  and  C_23
REMARK    4  A    between atoms: C_6  and  C_9
REMARK    5  A    between atoms: C_11  and  N_12
REMARK    6  A    between atoms: C_16  and  C_17
REMARK    7  A    between atoms: C_20  and  C_21
REMARK    8  A    between atoms: N_25  and  C_26
REMARK    9  A    between atoms: C_26  and  C_27
REMARK   10  A    between atoms: C_26  and  C_28
REMARK   11  A    between atoms: C_31  and  N_34
REMARK                            x       y       z     vdW  Elec       q    Type
REMARK                         _______ _______ _______ _____ _____    ______ ____
ROOT
ATOM      1  C   UNL     1      -3.469   6.094 130.165  0.00  0.00    +0.000 C 
ATOM      2  C   UNL     1      -4.261   6.710 131.341  0.00  0.00    +0.000 C 
ATOM      3  C   UNL     1      -3.402   7.495 132.323  0.00  0.00    +0.000 C 
ATOM      4  C   UNL     1      -2.212   6.675 132.819  0.00  0.00    +0.000 C 
ATOM      5  C   UNL     1      -1.384   6.142 131.653  0.00  0.00    +0.000 C 
ATOM      6  C   UNL     1      -2.242   5.326 130.695  0.00  0.00    +0.000 C 
ENDROOT
BRANCH   4   7
ATOM      7  C   UNL     1      -1.356   7.527 133.720  0.00  0.00    +0.000 A 
ATOM      8  N   UNL     1      -1.575   8.861 133.717  0.00  0.00    +0.000 NA
ATOM      9  C   UNL     1      -0.848   9.603 134.560  0.00  0.00    +0.000 A 
ATOM     10  C   UNL     1       0.078   9.011 135.399  0.00  0.00    +0.000 A 
ATOM     11  C   UNL     1       0.252   7.649 135.329  0.00  0.00    +0.000 A 
ATOM     12  C   UNL     1       1.259   6.977 136.207  0.00  0.00    +0.000 C 
ATOM     13  N   UNL     1      -0.457   6.886 134.486  0.00  0.00    +0.000 NA
BRANCH   9  14
ATOM     14  N   UNL     1      -1.038  11.000 134.555  0.00  0.00    +0.000 N 
ATOM     15  C   UNL     1      -0.352  11.865 133.782  0.00  0.00    +0.000 A 
ATOM     16  N   UNL     1       0.589  12.718 134.186  0.00  0.00    +0.000 NA
ATOM     17  N   UNL     1       1.112  13.193 133.040  0.00  0.00    +0.000 N 
ATOM     18  C   UNL     1       0.488  12.727 131.915  0.00  0.00    +0.000 A 
ATOM     19  C   UNL     1       0.894  13.096 130.544  0.00  0.00    +0.000 C 
ATOM     20  C   UNL     1      -0.505  11.897 132.375  0.00  0.00    +0.000 A 
ATOM     21  H   UNL     1      -1.406  11.297 135.451  0.00  0.00    +0.000 HD
ATOM     22  H   UNL     1       1.906  13.822 133.096  0.00  0.00    +0.000 HD
ENDBRANCH   9  14
ENDBRANCH   4   7
BRANCH   1  23
ATOM     23  C   UNL     1      -4.480   5.170 129.407  0.00  0.00    +0.000 C 
ATOM     24  O   UNL     1      -5.554   5.599 128.973  0.00  0.00    +0.000 OA
ATOM     25  N   UNL     1      -4.030   3.908 129.085  0.00  0.00    +0.000 N 
ATOM     26  H   UNL     1      -3.196   3.539 129.521  0.00  0.00    +0.000 HD
BRANCH  25  27
ATOM     27  C   UNL     1      -4.747   3.049 128.153  0.00  0.00    +0.000 C 
ATOM     28  C   UNL     1      -4.065   3.044 126.780  0.00  0.00    +0.000 C 
BRANCH  27  29
ATOM     29  C   UNL     1      -4.819   1.643 128.709  0.00  0.00    +0.000 A 
ATOM     30  C   UNL     1      -4.094   1.265 129.848  0.00  0.00    +0.000 A 
ATOM     31  C   UNL     1      -4.266  -0.001 130.402  0.00  0.00    +0.000 A 
ATOM     32  C   UNL     1      -5.111  -0.894 129.752  0.00  0.00    +0.000 A 
ATOM     33  N   UNL     1      -5.755  -0.591 128.593  0.00  0.00    +0.000 NA
ATOM     34  C   UNL     1      -5.614   0.668 128.115  0.00  0.00    +0.000 A 
BRANCH  32  35
ATOM     35  N   UNL     1      -5.364  -2.156 130.362  0.00  0.00    +0.000 N 
ATOM     36  C   UNL     1      -5.567  -3.350 129.697  0.00  0.00    +0.000 A 
ATOM     37  C   UNL     1      -5.691  -4.294 130.676  0.00  0.00    +0.000 A 
ATOM     38  F   UNL     1      -5.820  -5.576 130.503  0.00  0.00    +0.000 F 
ATOM     39  C   UNL     1      -5.625  -3.617 131.893  0.00  0.00    +0.000 A 
ATOM     40  N   UNL     1      -5.394  -2.312 131.716  0.00  0.00    +0.000 NA
ENDBRANCH  32  35
ENDBRANCH  27  29
ENDBRANCH  25  27
ENDBRANCH   1  23
BRANCH   1  42
ATOM     41  C   UNL     1      -2.290   6.764 128.189  0.00  0.00    +0.000 C 
ATOM     42  O   UNL     1      -2.997   7.185 129.350  0.00  0.00    +0.000 OA
ENDBRANCH   1  42
TORSDOF 7
ENDMDL
