MODEL 1
REMARK VINA RESULT:      -5.1      0.000      0.000
REMARK  Name = Pralidoxime
REMARK  3 active torsions:
REMARK  status: ('A' for Active; 'I' for Inactive)
REMARK    1  A    between atoms: C_1  and  N_2
REMARK    2  A    between atoms: C_3  and  C_4
REMARK    3  A    between atoms: N_5  and  O_6
REMARK                            x       y       z     vdW  Elec       q    Type
REMARK                         _______ _______ _______ _____ _____    ______ ____
ROOT
ATOM      1  C   UNL     1     -13.513   6.913 128.416  0.00  0.00    +0.000 C 
ATOM      2  N   UNL     1     -12.241   7.091 129.148  0.00  0.00    +0.000 N 
ATOM      3  C   UNL     1     -11.068   7.511 128.591  0.00  0.00    +0.000 A 
ATOM      4  C   UNL     1      -9.874   7.402 129.326  0.00  0.00    +0.000 A 
ATOM      5  C   UNL     1      -9.901   6.924 130.634  0.00  0.00    +0.000 A 
ATOM      6  C   UNL     1     -11.118   6.613 131.212  0.00  0.00    +0.000 A 
ATOM      7  C   UNL     1     -12.272   6.711 130.452  0.00  0.00    +0.000 A 
ENDROOT
BRANCH   3   8
ATOM      8  C   UNL     1     -10.999   8.102 127.235  0.00  0.00    +0.000 C 
ATOM      9  N   UNL     1     -10.854   7.366 126.177  0.00  0.00    +0.000 NA
BRANCH   9  10
ATOM     10  O   UNL     1     -10.732   8.157 125.039  0.00  0.00    +0.000 OA
ATOM     11  H   UNL     1     -10.010   7.716 124.544  0.00  0.00    +0.000 HD
ENDBRANCH   9  10
ENDBRANCH   3   8
TORSDOF 2
ENDMDL
MODEL 2
REMARK VINA RESULT:      -5.0      1.190      2.059
REMARK  Name = Pralidoxime
REMARK  3 active torsions:
REMARK  status: ('A' for Active; 'I' for Inactive)
REMARK    1  A    between atoms: C_1  and  N_2
REMARK    2  A    between atoms: C_3  and  C_4
REMARK    3  A    between atoms: N_5  and  O_6
REMARK                            x       y       z     vdW  Elec       q    Type
REMARK                         _______ _______ _______ _____ _____    ______ ____
ROOT
ATOM      1  C   UNL     1      -9.810   6.131 129.253  0.00  0.00    +0.000 C 
ATOM      2  N   UNL     1     -11.015   6.936 129.548  0.00  0.00    +0.000 N 
ATOM      3  C   UNL     1     -11.456   7.990 128.802  0.00  0.00    +0.000 A 
ATOM      4  C   UNL     1     -12.462   8.829 129.315  0.00  0.00    +0.000 A 
ATOM      5  C   UNL     1     -13.043   8.548 130.549  0.00  0.00    +0.000 A 
ATOM      6  C   UNL     1     -12.656   7.409 131.232  0.00  0.00    +0.000 A 
ATOM      7  C   UNL     1     -11.647   6.617 130.708  0.00  0.00    +0.000 A 
ENDROOT
BRANCH   3   8
ATOM      8  C   UNL     1     -10.930   8.282 127.449  0.00  0.00    +0.000 C 
ATOM      9  N   UNL     1     -11.362   7.653 126.400  0.00  0.00    +0.000 NA
BRANCH   9  10
ATOM     10  O   UNL     1     -10.657   8.043 125.266  0.00  0.00    +0.000 OA
ATOM     11  H   UNL     1     -10.399   8.966 125.476  0.00  0.00    +0.000 HD
ENDBRANCH   9  10
ENDBRANCH   3   8
TORSDOF 2
ENDMDL
MODEL 3
REMARK VINA RESULT:      -4.7      2.512      3.516
REMARK  Name = Pralidoxime
REMARK  3 active torsions:
REMARK  status: ('A' for Active; 'I' for Inactive)
REMARK    1  A    between atoms: C_1  and  N_2
REMARK    2  A    between atoms: C_3  and  C_4
REMARK    3  A    between atoms: N_5  and  O_6
REMARK                            x       y       z     vdW  Elec       q    Type
REMARK                         _______ _______ _______ _____ _____    ______ ____
ROOT
ATOM      1  C   UNL     1     -12.667   7.215 131.127  0.00  0.00    +0.000 C 
ATOM      2  N   UNL     1     -12.341   7.115 129.688  0.00  0.00    +0.000 N 
ATOM      3  C   UNL     1     -11.080   7.102 129.169  0.00  0.00    +0.000 A 
ATOM      4  C   UNL     1     -10.900   7.255 127.782  0.00  0.00    +0.000 A 
ATOM      5  C   UNL     1     -12.005   7.360 126.943  0.00  0.00    +0.000 A 
ATOM      6  C   UNL     1     -13.274   7.256 127.484  0.00  0.00    +0.000 A 
ATOM      7  C   UNL     1     -13.415   7.128 128.856  0.00  0.00    +0.000 A 
ENDROOT
BRANCH   3   8
ATOM      8  C   UNL     1      -9.876   6.911 130.009  0.00  0.00    +0.000 C 
ATOM      9  N   UNL     1      -8.828   7.664 129.879  0.00  0.00    +0.000 NA
BRANCH   9  10
ATOM     10  O   UNL     1      -7.805   7.233 130.718  0.00  0.00    +0.000 OA
ATOM     11  H   UNL     1      -7.648   6.314 130.417  0.00  0.00    +0.000 HD
ENDBRANCH   9  10
ENDBRANCH   3   8
TORSDOF 2
ENDMDL
MODEL 4
REMARK VINA RESULT:      -4.7      2.105      2.921
REMARK  Name = Pralidoxime
REMARK  3 active torsions:
REMARK  status: ('A' for Active; 'I' for Inactive)
REMARK    1  A    between atoms: C_1  and  N_2
REMARK    2  A    between atoms: C_3  and  C_4
REMARK    3  A    between atoms: N_5  and  O_6
REMARK                            x       y       z     vdW  Elec       q    Type
REMARK                         _______ _______ _______ _____ _____    ______ ____
ROOT
ATOM      1  C   UNL     1     -11.078   6.237 131.882  0.00  0.00    +0.000 C 
ATOM      2  N   UNL     1     -11.566   7.086 130.774  0.00  0.00    +0.000 N 
ATOM      3  C   UNL     1     -10.960   7.212 129.558  0.00  0.00    +0.000 A 
ATOM      4  C   UNL     1     -11.373   8.231 128.681  0.00  0.00    +0.000 A 
ATOM      5  C   UNL     1     -12.432   9.065 129.029  0.00  0.00    +0.000 A 
ATOM      6  C   UNL     1     -13.102   8.841 130.219  0.00  0.00    +0.000 A 
ATOM      7  C   UNL     1     -12.655   7.843 131.069  0.00  0.00    +0.000 A 
ENDROOT
BRANCH   3   8
ATOM      8  C   UNL     1      -9.886   6.299 129.106  0.00  0.00    +0.000 C 
ATOM      9  N   UNL     1      -9.616   6.134 127.848  0.00  0.00    +0.000 NA
BRANCH   9  10
ATOM     10  O   UNL     1      -8.630   5.168 127.678  0.00  0.00    +0.000 OA
ATOM     11  H   UNL     1      -8.860   4.499 128.356  0.00  0.00    +0.000 HD
ENDBRANCH   9  10
ENDBRANCH   3   8
TORSDOF 2
ENDMDL
MODEL 5
REMARK VINA RESULT:      -4.7     10.883     11.219
REMARK  Name = Pralidoxime
REMARK  3 active torsions:
REMARK  status: ('A' for Active; 'I' for Inactive)
REMARK    1  A    between atoms: C_1  and  N_2
REMARK    2  A    between atoms: C_3  and  C_4
REMARK    3  A    between atoms: N_5  and  O_6
REMARK                            x       y       z     vdW  Elec       q    Type
REMARK                         _______ _______ _______ _____ _____    ______ ____
ROOT
ATOM      1  C   UNL     1      -9.246  -3.032 125.184  0.00  0.00    +0.000 C 
ATOM      2  N   UNL     1      -8.023  -2.621 124.462  0.00  0.00    +0.000 N 
ATOM      3  C   UNL     1      -7.952  -1.599 123.561  0.00  0.00    +0.000 A 
ATOM      4  C   UNL     1      -6.805  -1.462 122.757  0.00  0.00    +0.000 A 
ATOM      5  C   UNL     1      -5.730  -2.330 122.924  0.00  0.00    +0.000 A 
ATOM      6  C   UNL     1      -5.784  -3.286 123.922  0.00  0.00    +0.000 A 
ATOM      7  C   UNL     1      -6.937  -3.407 124.681  0.00  0.00    +0.000 A 
ENDROOT
BRANCH   3   8
ATOM      8  C   UNL     1      -9.034  -0.600 123.404  0.00  0.00    +0.000 C 
ATOM      9  N   UNL     1      -9.991  -0.763 122.543  0.00  0.00    +0.000 NA
BRANCH   9  10
ATOM     10  O   UNL     1     -10.832   0.345 122.526  0.00  0.00    +0.000 OA
ATOM     11  H   UNL     1     -10.273   1.037 122.115  0.00  0.00    +0.000 HD
ENDBRANCH   9  10
ENDBRANCH   3   8
TORSDOF 2
ENDMDL
MODEL 6
REMARK VINA RESULT:      -4.7      3.291      4.547
REMARK  Name = Pralidoxime
REMARK  3 active torsions:
REMARK  status: ('A' for Active; 'I' for Inactive)
REMARK    1  A    between atoms: C_1  and  N_2
REMARK    2  A    between atoms: C_3  and  C_4
REMARK    3  A    between atoms: N_5  and  O_6
REMARK                            x       y       z     vdW  Elec       q    Type
REMARK                         _______ _______ _______ _____ _____    ______ ____
ROOT
ATOM      1  C   UNL     1      -9.750   6.091 128.946  0.00  0.00    +0.000 C 
ATOM      2  N   UNL     1     -10.773   7.082 129.342  0.00  0.00    +0.000 N 
ATOM      3  C   UNL     1     -11.526   7.021 130.478  0.00  0.00    +0.000 A 
ATOM      4  C   UNL     1     -12.633   7.877 130.623  0.00  0.00    +0.000 A 
ATOM      5  C   UNL     1     -12.919   8.820 129.639  0.00  0.00    +0.000 A 
ATOM      6  C   UNL     1     -12.071   8.937 128.552  0.00  0.00    +0.000 A 
ATOM      7  C   UNL     1     -11.004   8.062 128.430  0.00  0.00    +0.000 A 
ENDROOT
BRANCH   3   8
ATOM      8  C   UNL     1     -11.215   6.093 131.589  0.00  0.00    +0.000 C 
ATOM      9  N   UNL     1     -10.282   6.354 132.453  0.00  0.00    +0.000 NA
BRANCH   9  10
ATOM     10  O   UNL     1     -10.126   5.297 133.343  0.00  0.00    +0.000 OA
ATOM     11  H   UNL     1     -10.811   5.478 134.020  0.00  0.00    +0.000 HD
ENDBRANCH   9  10
ENDBRANCH   3   8
TORSDOF 2
ENDMDL
MODEL 7
REMARK VINA RESULT:      -4.6     10.775     11.105
REMARK  Name = Pralidoxime
REMARK  3 active torsions:
REMARK  status: ('A' for Active; 'I' for Inactive)
REMARK    1  A    between atoms: C_1  and  N_2
REMARK    2  A    between atoms: C_3  and  C_4
REMARK    3  A    between atoms: N_5  and  O_6
REMARK                            x       y       z     vdW  Elec       q    Type
REMARK                         _______ _______ _______ _____ _____    ______ ____
ROOT
ATOM      1  C   UNL     1      -6.401  -1.619 125.901  0.00  0.00    +0.000 C 
ATOM      2  N   UNL     1      -7.129  -2.454 126.880  0.00  0.00    +0.000 N 
ATOM      3  C   UNL     1      -8.248  -3.185 126.609  0.00  0.00    +0.000 A 
ATOM      4  C   UNL     1      -8.991  -3.734 127.670  0.00  0.00    +0.000 A 
ATOM      5  C   UNL     1      -8.551  -3.581 128.982  0.00  0.00    +0.000 A 
ATOM      6  C   UNL     1      -7.353  -2.933 129.219  0.00  0.00    +0.000 A 
ATOM      7  C   UNL     1      -6.658  -2.385 128.153  0.00  0.00    +0.000 A 
ENDROOT
BRANCH   3   8
ATOM      8  C   UNL     1      -8.712  -3.446 125.227  0.00  0.00    +0.000 C 
ATOM      9  N   UNL     1      -9.718  -2.808 124.714  0.00  0.00    +0.000 NA
BRANCH   9  10
ATOM     10  O   UNL     1     -10.009  -3.290 123.442  0.00  0.00    +0.000 OA
ATOM     11  H   UNL     1     -10.454  -4.143 123.628  0.00  0.00    +0.000 HD
ENDBRANCH   9  10
ENDBRANCH   3   8
TORSDOF 2
ENDMDL
MODEL 8
REMARK VINA RESULT:      -4.5      3.006      4.438
REMARK  Name = Pralidoxime
REMARK  3 active torsions:
REMARK  status: ('A' for Active; 'I' for Inactive)
REMARK    1  A    between atoms: C_1  and  N_2
REMARK    2  A    between atoms: C_3  and  C_4
REMARK    3  A    between atoms: N_5  and  O_6
REMARK                            x       y       z     vdW  Elec       q    Type
REMARK                         _______ _______ _______ _____ _____    ______ ____
ROOT
ATOM      1  C   UNL     1     -10.068   8.658 128.738  0.00  0.00    +0.000 C 
ATOM      2  N   UNL     1     -11.370   8.310 128.129  0.00  0.00    +0.000 N 
ATOM      3  C   UNL     1     -12.589   8.586 128.675  0.00  0.00    +0.000 A 
ATOM      4  C   UNL     1     -13.742   7.990 128.133  0.00  0.00    +0.000 A 
ATOM      5  C   UNL     1     -13.642   7.171 127.011  0.00  0.00    +0.000 A 
ATOM      6  C   UNL     1     -12.408   7.000 126.410  0.00  0.00    +0.000 A 
ATOM      7  C   UNL     1     -11.290   7.584 126.983  0.00  0.00    +0.000 A 
ENDROOT
BRANCH   3   8
ATOM      8  C   UNL     1     -12.758   9.515 129.816  0.00  0.00    +0.000 C 
ATOM      9  N   UNL     1     -13.423  10.622 129.701  0.00  0.00    +0.000 NA
BRANCH   9  10
ATOM     10  O   UNL     1     -13.367  11.356 130.881  0.00  0.00    +0.000 OA
ATOM     11  H   UNL     1     -12.816  10.792 131.463  0.00  0.00    +0.000 HD
ENDBRANCH   9  10
ENDBRANCH   3   8
TORSDOF 2
ENDMDL
MODEL 9
REMARK VINA RESULT:      -4.4      9.961     10.310
REMARK  Name = Pralidoxime
REMARK  3 active torsions:
REMARK  status: ('A' for Active; 'I' for Inactive)
REMARK    1  A    between atoms: C_1  and  N_2
REMARK    2  A    between atoms: C_3  and  C_4
REMARK    3  A    between atoms: N_5  and  O_6
REMARK                            x       y       z     vdW  Elec       q    Type
REMARK                         _______ _______ _______ _____ _____    ______ ____
ROOT
ATOM      1  C   UNL     1      -6.821  -1.179 122.959  0.00  0.00    +0.000 C 
ATOM      2  N   UNL     1      -7.728  -1.826 123.930  0.00  0.00    +0.000 N 
ATOM      3  C   UNL     1      -8.584  -1.167 124.764  0.00  0.00    +0.000 A 
ATOM      4  C   UNL     1      -9.209  -1.869 125.811  0.00  0.00    +0.000 A 
ATOM      5  C   UNL     1      -8.999  -3.237 125.957  0.00  0.00    +0.000 A 
ATOM      6  C   UNL     1      -8.217  -3.901 125.029  0.00  0.00    +0.000 A 
ATOM      7  C   UNL     1      -7.599  -3.176 124.023  0.00  0.00    +0.000 A 
ENDROOT
BRANCH   3   8
ATOM      8  C   UNL     1      -8.904   0.269 124.601  0.00  0.00    +0.000 C 
ATOM      9  N   UNL     1     -10.107   0.723 124.776  0.00  0.00    +0.000 NA
BRANCH   9  10
ATOM     10  O   UNL     1     -10.168   2.082 124.483  0.00  0.00    +0.000 OA
ATOM     11  H   UNL     1      -9.769   2.494 125.278  0.00  0.00    +0.000 HD
ENDBRANCH   9  10
ENDBRANCH   3   8
TORSDOF 2
ENDMDL
