MODEL 1
REMARK VINA RESULT:      -6.1      0.000      0.000
REMARK  Name = Pramocaine
REMARK  10 active torsions:
REMARK  status: ('A' for Active; 'I' for Inactive)
REMARK    1  A    between atoms: C_1  and  C_2
REMARK    2  A    between atoms: C_2  and  C_3
REMARK    3  A    between atoms: C_3  and  C_4
REMARK    4  A    between atoms: C_4  and  O_5
REMARK    5  A    between atoms: O_5  and  C_6
REMARK    6  A    between atoms: C_9  and  O_10
REMARK    7  A    between atoms: O_10  and  C_11
REMARK    8  A    between atoms: C_11  and  C_12
REMARK    9  A    between atoms: C_12  and  C_13
REMARK   10  A    between atoms: C_13  and  N_14
REMARK                            x       y       z     vdW  Elec       q    Type
REMARK                         _______ _______ _______ _____ _____    ______ ____
ROOT
ATOM      1  C   UNL     1      -6.275   3.836 122.674  0.00  0.00    +0.000 A 
ATOM      2  C   UNL     1      -6.204   3.998 124.059  0.00  0.00    +0.000 A 
ATOM      3  C   UNL     1      -7.237   3.533 124.877  0.00  0.00    +0.000 A 
ATOM      4  C   UNL     1      -8.357   2.931 124.296  0.00  0.00    +0.000 A 
ATOM      5  C   UNL     1      -8.405   2.748 122.921  0.00  0.00    +0.000 A 
ATOM      6  C   UNL     1      -7.376   3.193 122.111  0.00  0.00    +0.000 A 
ENDROOT
BRANCH   1   7
ATOM      7  O   UNL     1      -5.194   4.251 121.950  0.00  0.00    +0.000 OA
BRANCH   7   8
ATOM      8  C   UNL     1      -5.313   4.068 120.537  0.00  0.00    +0.000 C 
BRANCH   8   9
ATOM      9  C   UNL     1      -5.172   5.431 119.875  0.00  0.00    +0.000 C 
BRANCH   9  11
ATOM     10  C   UNL     1      -7.224   4.550 118.731  0.00  0.00    +0.000 C 
ATOM     11  C   UNL     1      -6.080   5.543 118.655  0.00  0.00    +0.000 C 
ENDBRANCH   9  11
ENDBRANCH   8   9
ENDBRANCH   7   8
ENDBRANCH   1   7
BRANCH   4  12
ATOM     12  O   UNL     1      -9.362   2.559 125.133  0.00  0.00    +0.000 OA
BRANCH  12  13
ATOM     13  C   UNL     1      -9.850   1.220 124.935  0.00  0.00    +0.000 C 
BRANCH  13  14
ATOM     14  C   UNL     1      -8.927   0.347 125.724  0.00  0.00    +0.000 C 
BRANCH  14  15
ATOM     15  C   UNL     1      -8.943  -1.141 125.402  0.00  0.00    +0.000 C 
BRANCH  15  16
ATOM     16  N   UNL     1      -8.493  -1.503 124.042  0.00  0.00    +0.000 NA
ATOM     17  C   UNL     1      -8.523  -2.954 123.760  0.00  0.00    +0.000 C 
ATOM     18  C   UNL     1      -7.349  -3.767 124.360  0.00  0.00    +0.000 C 
ATOM     19  O   UNL     1      -6.070  -3.181 124.082  0.00  0.00    +0.000 OA
ATOM     20  C   UNL     1      -6.006  -1.779 124.383  0.00  0.00    +0.000 C 
ATOM     21  C   UNL     1      -7.144  -1.002 123.710  0.00  0.00    +0.000 C 
ENDBRANCH  15  16
ENDBRANCH  14  15
ENDBRANCH  13  14
ENDBRANCH  12  13
ENDBRANCH   4  12
TORSDOF 9
ENDMDL
MODEL 2
REMARK VINA RESULT:      -6.0      3.942      8.710
REMARK  Name = Pramocaine
REMARK  10 active torsions:
REMARK  status: ('A' for Active; 'I' for Inactive)
REMARK    1  A    between atoms: C_1  and  C_2
REMARK    2  A    between atoms: C_2  and  C_3
REMARK    3  A    between atoms: C_3  and  C_4
REMARK    4  A    between atoms: C_4  and  O_5
REMARK    5  A    between atoms: O_5  and  C_6
REMARK    6  A    between atoms: C_9  and  O_10
REMARK    7  A    between atoms: O_10  and  C_11
REMARK    8  A    between atoms: C_11  and  C_12
REMARK    9  A    between atoms: C_12  and  C_13
REMARK   10  A    between atoms: C_13  and  N_14
REMARK                            x       y       z     vdW  Elec       q    Type
REMARK                         _______ _______ _______ _____ _____    ______ ____
ROOT
ATOM      1  C   UNL     1      -7.739  -2.826 129.043  0.00  0.00    +0.000 A 
ATOM      2  C   UNL     1      -8.622  -3.831 128.644  0.00  0.00    +0.000 A 
ATOM      3  C   UNL     1      -9.210  -3.792 127.378  0.00  0.00    +0.000 A 
ATOM      4  C   UNL     1      -8.933  -2.722 126.523  0.00  0.00    +0.000 A 
ATOM      5  C   UNL     1      -8.032  -1.741 126.917  0.00  0.00    +0.000 A 
ATOM      6  C   UNL     1      -7.436  -1.788 128.164  0.00  0.00    +0.000 A 
ENDROOT
BRANCH   1   7
ATOM      7  O   UNL     1      -7.150  -2.973 130.265  0.00  0.00    +0.000 OA
BRANCH   7   8
ATOM      8  C   UNL     1      -5.761  -2.635 130.306  0.00  0.00    +0.000 C 
BRANCH   8   9
ATOM      9  C   UNL     1      -4.962  -3.914 130.099  0.00  0.00    +0.000 C 
BRANCH   9  11
ATOM     10  C   UNL     1      -5.103  -5.124 132.293  0.00  0.00    +0.000 C 
ATOM     11  C   UNL     1      -5.589  -5.079 130.856  0.00  0.00    +0.000 C 
ENDBRANCH   9  11
ENDBRANCH   8   9
ENDBRANCH   7   8
ENDBRANCH   1   7
BRANCH   4  12
ATOM     12  O   UNL     1      -9.585  -2.698 125.330  0.00  0.00    +0.000 OA
BRANCH  12  13
ATOM     13  C   UNL     1      -8.793  -3.103 124.199  0.00  0.00    +0.000 C 
BRANCH  13  14
ATOM     14  C   UNL     1      -9.104  -2.106 123.128  0.00  0.00    +0.000 C 
BRANCH  14  15
ATOM     15  C   UNL     1      -8.697  -0.663 123.391  0.00  0.00    +0.000 C 
BRANCH  15  16
ATOM     16  N   UNL     1      -9.809   0.280 123.623  0.00  0.00    +0.000 NA
ATOM     17  C   UNL     1      -9.960   1.311 122.572  0.00  0.00    +0.000 C 
ATOM     18  C   UNL     1      -8.952   2.484 122.650  0.00  0.00    +0.000 C 
ATOM     19  O   UNL     1      -8.863   3.052 123.963  0.00  0.00    +0.000 OA
ATOM     20  C   UNL     1      -8.680   2.073 124.998  0.00  0.00    +0.000 C 
ATOM     21  C   UNL     1      -9.741   0.969 124.928  0.00  0.00    +0.000 C 
ENDBRANCH  15  16
ENDBRANCH  14  15
ENDBRANCH  13  14
ENDBRANCH  12  13
ENDBRANCH   4  12
TORSDOF 9
ENDMDL
MODEL 3
REMARK VINA RESULT:      -6.0      7.990     10.374
REMARK  Name = Pramocaine
REMARK  10 active torsions:
REMARK  status: ('A' for Active; 'I' for Inactive)
REMARK    1  A    between atoms: C_1  and  C_2
REMARK    2  A    between atoms: C_2  and  C_3
REMARK    3  A    between atoms: C_3  and  C_4
REMARK    4  A    between atoms: C_4  and  O_5
REMARK    5  A    between atoms: O_5  and  C_6
REMARK    6  A    between atoms: C_9  and  O_10
REMARK    7  A    between atoms: O_10  and  C_11
REMARK    8  A    between atoms: C_11  and  C_12
REMARK    9  A    between atoms: C_12  and  C_13
REMARK   10  A    between atoms: C_13  and  N_14
REMARK                            x       y       z     vdW  Elec       q    Type
REMARK                         _______ _______ _______ _____ _____    ______ ____
ROOT
ATOM      1  C   UNL     1     -11.537   7.204 130.575  0.00  0.00    +0.000 A 
ATOM      2  C   UNL     1     -10.362   7.451 129.863  0.00  0.00    +0.000 A 
ATOM      3  C   UNL     1      -9.131   7.018 130.362  0.00  0.00    +0.000 A 
ATOM      4  C   UNL     1      -9.080   6.363 131.596  0.00  0.00    +0.000 A 
ATOM      5  C   UNL     1     -10.257   6.097 132.283  0.00  0.00    +0.000 A 
ATOM      6  C   UNL     1     -11.478   6.509 131.782  0.00  0.00    +0.000 A 
ENDROOT
BRANCH   1   7
ATOM      7  O   UNL     1     -12.706   7.594 129.987  0.00  0.00    +0.000 OA
BRANCH   7   8
ATOM      8  C   UNL     1     -12.550   8.285 128.744  0.00  0.00    +0.000 C 
BRANCH   8   9
ATOM      9  C   UNL     1     -13.415   9.537 128.794  0.00  0.00    +0.000 C 
BRANCH   9  11
ATOM     10  C   UNL     1     -13.708  11.708 130.016  0.00  0.00    +0.000 C 
ATOM     11  C   UNL     1     -13.241  10.269 130.120  0.00  0.00    +0.000 C 
ENDBRANCH   9  11
ENDBRANCH   8   9
ENDBRANCH   7   8
ENDBRANCH   1   7
BRANCH   4  12
ATOM     12  O   UNL     1      -7.850   6.025 132.066  0.00  0.00    +0.000 OA
BRANCH  12  13
ATOM     13  C   UNL     1      -6.756   6.751 131.476  0.00  0.00    +0.000 C 
BRANCH  13  14
ATOM     14  C   UNL     1      -5.604   5.798 131.486  0.00  0.00    +0.000 C 
BRANCH  14  15
ATOM     15  C   UNL     1      -4.398   6.167 130.634  0.00  0.00    +0.000 C 
BRANCH  15  16
ATOM     16  N   UNL     1      -4.623   6.163 129.175  0.00  0.00    +0.000 NA
ATOM     17  C   UNL     1      -4.663   4.813 128.571  0.00  0.00    +0.000 C 
ATOM     18  C   UNL     1      -3.283   4.145 128.357  0.00  0.00    +0.000 C 
ATOM     19  O   UNL     1      -2.345   5.009 127.702  0.00  0.00    +0.000 OA
ATOM     20  C   UNL     1      -2.261   6.315 128.292  0.00  0.00    +0.000 C 
ATOM     21  C   UNL     1      -3.642   6.968 128.420  0.00  0.00    +0.000 C 
ENDBRANCH  15  16
ENDBRANCH  14  15
ENDBRANCH  13  14
ENDBRANCH  12  13
ENDBRANCH   4  12
TORSDOF 9
ENDMDL
MODEL 4
REMARK VINA RESULT:      -5.9      7.274      9.287
REMARK  Name = Pramocaine
REMARK  10 active torsions:
REMARK  status: ('A' for Active; 'I' for Inactive)
REMARK    1  A    between atoms: C_1  and  C_2
REMARK    2  A    between atoms: C_2  and  C_3
REMARK    3  A    between atoms: C_3  and  C_4
REMARK    4  A    between atoms: C_4  and  O_5
REMARK    5  A    between atoms: O_5  and  C_6
REMARK    6  A    between atoms: C_9  and  O_10
REMARK    7  A    between atoms: O_10  and  C_11
REMARK    8  A    between atoms: C_11  and  C_12
REMARK    9  A    between atoms: C_12  and  C_13
REMARK   10  A    between atoms: C_13  and  N_14
REMARK                            x       y       z     vdW  Elec       q    Type
REMARK                         _______ _______ _______ _____ _____    ______ ____
ROOT
ATOM      1  C   UNL     1      -9.101   7.065 130.494  0.00  0.00    +0.000 A 
ATOM      2  C   UNL     1     -10.158   6.629 131.294  0.00  0.00    +0.000 A 
ATOM      3  C   UNL     1      -9.906   5.990 132.510  0.00  0.00    +0.000 A 
ATOM      4  C   UNL     1      -8.585   5.763 132.907  0.00  0.00    +0.000 A 
ATOM      5  C   UNL     1      -7.539   6.225 132.119  0.00  0.00    +0.000 A 
ATOM      6  C   UNL     1      -7.788   6.873 130.923  0.00  0.00    +0.000 A 
ENDROOT
BRANCH   1   7
ATOM      7  O   UNL     1      -9.429   7.745 129.357  0.00  0.00    +0.000 OA
BRANCH   7   8
ATOM      8  C   UNL     1     -10.543   7.208 128.638  0.00  0.00    +0.000 C 
BRANCH   8   9
ATOM      9  C   UNL     1     -11.181   8.342 127.849  0.00  0.00    +0.000 C 
BRANCH   9  11
ATOM     10  C   UNL     1     -12.719   9.005 129.717  0.00  0.00    +0.000 C 
ATOM     11  C   UNL     1     -12.631   8.554 128.272  0.00  0.00    +0.000 C 
ENDBRANCH   9  11
ENDBRANCH   8   9
ENDBRANCH   7   8
ENDBRANCH   1   7
BRANCH   4  12
ATOM     12  O   UNL     1      -8.397   5.076 134.066  0.00  0.00    +0.000 OA
BRANCH  12  13
ATOM     13  C   UNL     1      -7.368   4.070 134.013  0.00  0.00    +0.000 C 
BRANCH  13  14
ATOM     14  C   UNL     1      -8.082   2.799 133.681  0.00  0.00    +0.000 C 
BRANCH  14  15
ATOM     15  C   UNL     1      -7.693   2.110 132.380  0.00  0.00    +0.000 C 
BRANCH  15  16
ATOM     16  N   UNL     1      -8.794   1.439 131.661  0.00  0.00    +0.000 NA
ATOM     17  C   UNL     1      -8.367   0.692 130.458  0.00  0.00    +0.000 C 
ATOM     18  C   UNL     1      -8.084   1.561 129.208  0.00  0.00    +0.000 C 
ATOM     19  O   UNL     1      -9.140   2.490 128.929  0.00  0.00    +0.000 OA
ATOM     20  C   UNL     1      -9.548   3.253 130.074  0.00  0.00    +0.000 C 
ATOM     21  C   UNL     1      -9.887   2.350 131.266  0.00  0.00    +0.000 C 
ENDBRANCH  15  16
ENDBRANCH  14  15
ENDBRANCH  13  14
ENDBRANCH  12  13
ENDBRANCH   4  12
TORSDOF 9
ENDMDL
MODEL 5
REMARK VINA RESULT:      -5.8      8.122     10.058
REMARK  Name = Pramocaine
REMARK  10 active torsions:
REMARK  status: ('A' for Active; 'I' for Inactive)
REMARK    1  A    between atoms: C_1  and  C_2
REMARK    2  A    between atoms: C_2  and  C_3
REMARK    3  A    between atoms: C_3  and  C_4
REMARK    4  A    between atoms: C_4  and  O_5
REMARK    5  A    between atoms: O_5  and  C_6
REMARK    6  A    between atoms: C_9  and  O_10
REMARK    7  A    between atoms: O_10  and  C_11
REMARK    8  A    between atoms: C_11  and  C_12
REMARK    9  A    between atoms: C_12  and  C_13
REMARK   10  A    between atoms: C_13  and  N_14
REMARK                            x       y       z     vdW  Elec       q    Type
REMARK                         _______ _______ _______ _____ _____    ______ ____
ROOT
ATOM      1  C   UNL     1     -11.350   6.062 131.265  0.00  0.00    +0.000 A 
ATOM      2  C   UNL     1     -10.578   6.354 132.390  0.00  0.00    +0.000 A 
ATOM      3  C   UNL     1      -9.236   5.971 132.443  0.00  0.00    +0.000 A 
ATOM      4  C   UNL     1      -8.679   5.266 131.372  0.00  0.00    +0.000 A 
ATOM      5  C   UNL     1      -9.447   5.005 130.245  0.00  0.00    +0.000 A 
ATOM      6  C   UNL     1     -10.771   5.398 130.185  0.00  0.00    +0.000 A 
ENDROOT
BRANCH   1   7
ATOM      7  O   UNL     1     -12.632   6.533 131.259  0.00  0.00    +0.000 OA
BRANCH   7   8
ATOM      8  C   UNL     1     -13.086   7.021 129.994  0.00  0.00    +0.000 C 
BRANCH   8   9
ATOM      9  C   UNL     1     -12.579   8.447 129.833  0.00  0.00    +0.000 C 
BRANCH   9  11
ATOM     10  C   UNL     1     -10.672   8.495 128.203  0.00  0.00    +0.000 C 
ATOM     11  C   UNL     1     -12.160   8.719 128.392  0.00  0.00    +0.000 C 
ENDBRANCH   9  11
ENDBRANCH   8   9
ENDBRANCH   7   8
ENDBRANCH   1   7
BRANCH   4  12
ATOM     12  O   UNL     1      -7.388   4.858 131.505  0.00  0.00    +0.000 OA
BRANCH  12  13
ATOM     13  C   UNL     1      -6.520   5.801 132.159  0.00  0.00    +0.000 C 
BRANCH  13  14
ATOM     14  C   UNL     1      -6.193   6.820 131.113  0.00  0.00    +0.000 C 
BRANCH  14  15
ATOM     15  C   UNL     1      -4.780   6.793 130.545  0.00  0.00    +0.000 C 
BRANCH  15  16
ATOM     16  N   UNL     1      -4.682   6.531 129.095  0.00  0.00    +0.000 NA
ATOM     17  C   UNL     1      -4.711   5.097 128.734  0.00  0.00    +0.000 C 
ATOM     18  C   UNL     1      -3.382   4.334 128.959  0.00  0.00    +0.000 C 
ATOM     19  O   UNL     1      -2.251   5.015 128.403  0.00  0.00    +0.000 OA
ATOM     20  C   UNL     1      -2.181   6.401 128.768  0.00  0.00    +0.000 C 
ATOM     21  C   UNL     1      -3.492   7.135 128.463  0.00  0.00    +0.000 C 
ENDBRANCH  15  16
ENDBRANCH  14  15
ENDBRANCH  13  14
ENDBRANCH  12  13
ENDBRANCH   4  12
TORSDOF 9
ENDMDL
MODEL 6
REMARK VINA RESULT:      -5.6      3.515      8.047
REMARK  Name = Pramocaine
REMARK  10 active torsions:
REMARK  status: ('A' for Active; 'I' for Inactive)
REMARK    1  A    between atoms: C_1  and  C_2
REMARK    2  A    between atoms: C_2  and  C_3
REMARK    3  A    between atoms: C_3  and  C_4
REMARK    4  A    between atoms: C_4  and  O_5
REMARK    5  A    between atoms: O_5  and  C_6
REMARK    6  A    between atoms: C_9  and  O_10
REMARK    7  A    between atoms: O_10  and  C_11
REMARK    8  A    between atoms: C_11  and  C_12
REMARK    9  A    between atoms: C_12  and  C_13
REMARK   10  A    between atoms: C_13  and  N_14
REMARK                            x       y       z     vdW  Elec       q    Type
REMARK                         _______ _______ _______ _____ _____    ______ ____
ROOT
ATOM      1  C   UNL     1      -7.237  -2.711 128.959  0.00  0.00    +0.000 A 
ATOM      2  C   UNL     1      -6.742  -2.135 127.788  0.00  0.00    +0.000 A 
ATOM      3  C   UNL     1      -7.377  -2.366 126.565  0.00  0.00    +0.000 A 
ATOM      4  C   UNL     1      -8.496  -3.203 126.518  0.00  0.00    +0.000 A 
ATOM      5  C   UNL     1      -8.998  -3.748 127.692  0.00  0.00    +0.000 A 
ATOM      6  C   UNL     1      -8.380  -3.507 128.905  0.00  0.00    +0.000 A 
ENDROOT
BRANCH   1   7
ATOM      7  O   UNL     1      -6.605  -2.380 130.122  0.00  0.00    +0.000 OA
BRANCH   7   8
ATOM      8  C   UNL     1      -7.404  -1.642 131.050  0.00  0.00    +0.000 C 
BRANCH   8   9
ATOM      9  C   UNL     1      -7.110  -0.162 130.849  0.00  0.00    +0.000 C 
BRANCH   9  11
ATOM     10  C   UNL     1      -9.295   0.636 131.790  0.00  0.00    +0.000 C 
ATOM     11  C   UNL     1      -8.392   0.617 130.571  0.00  0.00    +0.000 C 
ENDBRANCH   9  11
ENDBRANCH   8   9
ENDBRANCH   7   8
ENDBRANCH   1   7
BRANCH   4  12
ATOM     12  O   UNL     1      -9.034  -3.447 125.293  0.00  0.00    +0.000 OA
BRANCH  12  13
ATOM     13  C   UNL     1      -8.100  -3.386 124.199  0.00  0.00    +0.000 C 
BRANCH  13  14
ATOM     14  C   UNL     1      -8.770  -2.545 123.160  0.00  0.00    +0.000 C 
BRANCH  14  15
ATOM     15  C   UNL     1      -8.535  -1.042 123.235  0.00  0.00    +0.000 C 
BRANCH  15  16
ATOM     16  N   UNL     1      -9.670  -0.244 123.738  0.00  0.00    +0.000 NA
ATOM     17  C   UNL     1     -10.091   0.850 122.836  0.00  0.00    +0.000 C 
ATOM     18  C   UNL     1      -9.194   2.112 122.867  0.00  0.00    +0.000 C 
ATOM     19  O   UNL     1      -8.932   2.572 124.199  0.00  0.00    +0.000 OA
ATOM     20  C   UNL     1      -8.487   1.535 125.085  0.00  0.00    +0.000 C 
ATOM     21  C   UNL     1      -9.441   0.335 125.077  0.00  0.00    +0.000 C 
ENDBRANCH  15  16
ENDBRANCH  14  15
ENDBRANCH  13  14
ENDBRANCH  12  13
ENDBRANCH   4  12
TORSDOF 9
ENDMDL
MODEL 7
REMARK VINA RESULT:      -5.6      8.162      9.938
REMARK  Name = Pramocaine
REMARK  10 active torsions:
REMARK  status: ('A' for Active; 'I' for Inactive)
REMARK    1  A    between atoms: C_1  and  C_2
REMARK    2  A    between atoms: C_2  and  C_3
REMARK    3  A    between atoms: C_3  and  C_4
REMARK    4  A    between atoms: C_4  and  O_5
REMARK    5  A    between atoms: O_5  and  C_6
REMARK    6  A    between atoms: C_9  and  O_10
REMARK    7  A    between atoms: O_10  and  C_11
REMARK    8  A    between atoms: C_11  and  C_12
REMARK    9  A    between atoms: C_12  and  C_13
REMARK   10  A    between atoms: C_13  and  N_14
REMARK                            x       y       z     vdW  Elec       q    Type
REMARK                         _______ _______ _______ _____ _____    ______ ____
ROOT
ATOM      1  C   UNL     1      -6.934   5.425 130.660  0.00  0.00    +0.000 A 
ATOM      2  C   UNL     1      -7.557   6.608 131.060  0.00  0.00    +0.000 A 
ATOM      3  C   UNL     1      -8.951   6.690 131.109  0.00  0.00    +0.000 A 
ATOM      4  C   UNL     1      -9.718   5.587 130.724  0.00  0.00    +0.000 A 
ATOM      5  C   UNL     1      -9.090   4.405 130.354  0.00  0.00    +0.000 A 
ATOM      6  C   UNL     1      -7.710   4.318 130.322  0.00  0.00    +0.000 A 
ENDROOT
BRANCH   1   7
ATOM      7  O   UNL     1      -5.570   5.401 130.709  0.00  0.00    +0.000 OA
BRANCH   7   8
ATOM      8  C   UNL     1      -5.008   4.176 131.187  0.00  0.00    +0.000 C 
BRANCH   8   9
ATOM      9  C   UNL     1      -3.818   3.830 130.303  0.00  0.00    +0.000 C 
BRANCH   9  11
ATOM     10  C   UNL     1      -2.676   4.637 128.219  0.00  0.00    +0.000 C 
ATOM     11  C   UNL     1      -4.011   4.373 128.891  0.00  0.00    +0.000 C 
ENDBRANCH   9  11
ENDBRANCH   8   9
ENDBRANCH   7   8
ENDBRANCH   1   7
BRANCH   4  12
ATOM     12  O   UNL     1     -11.070   5.743 130.724  0.00  0.00    +0.000 OA
BRANCH  12  13
ATOM     13  C   UNL     1     -11.583   6.564 131.790  0.00  0.00    +0.000 C 
BRANCH  13  14
ATOM     14  C   UNL     1     -12.723   7.320 131.185  0.00  0.00    +0.000 C 
BRANCH  14  15
ATOM     15  C   UNL     1     -13.110   6.957 129.758  0.00  0.00    +0.000 C 
BRANCH  15  16
ATOM     16  N   UNL     1     -13.167   8.084 128.807  0.00  0.00    +0.000 NA
ATOM     17  C   UNL     1     -13.407   7.683 127.403  0.00  0.00    +0.000 C 
ATOM     18  C   UNL     1     -12.171   7.120 126.658  0.00  0.00    +0.000 C 
ATOM     19  O   UNL     1     -11.013   7.954 126.799  0.00  0.00    +0.000 OA
ATOM     20  C   UNL     1     -10.739   8.328 128.157  0.00  0.00    +0.000 C 
ATOM     21  C   UNL     1     -11.968   8.945 128.834  0.00  0.00    +0.000 C 
ENDBRANCH  15  16
ENDBRANCH  14  15
ENDBRANCH  13  14
ENDBRANCH  12  13
ENDBRANCH   4  12
TORSDOF 9
ENDMDL
MODEL 8
REMARK VINA RESULT:      -5.5      9.047     10.681
REMARK  Name = Pramocaine
REMARK  10 active torsions:
REMARK  status: ('A' for Active; 'I' for Inactive)
REMARK    1  A    between atoms: C_1  and  C_2
REMARK    2  A    between atoms: C_2  and  C_3
REMARK    3  A    between atoms: C_3  and  C_4
REMARK    4  A    between atoms: C_4  and  O_5
REMARK    5  A    between atoms: O_5  and  C_6
REMARK    6  A    between atoms: C_9  and  O_10
REMARK    7  A    between atoms: O_10  and  C_11
REMARK    8  A    between atoms: C_11  and  C_12
REMARK    9  A    between atoms: C_12  and  C_13
REMARK   10  A    between atoms: C_13  and  N_14
REMARK                            x       y       z     vdW  Elec       q    Type
REMARK                         _______ _______ _______ _____ _____    ______ ____
ROOT
ATOM      1  C   UNL     1      -5.227   6.568 131.873  0.00  0.00    +0.000 A 
ATOM      2  C   UNL     1      -5.819   5.892 132.941  0.00  0.00    +0.000 A 
ATOM      3  C   UNL     1      -7.209   5.775 133.018  0.00  0.00    +0.000 A 
ATOM      4  C   UNL     1      -8.005   6.366 132.033  0.00  0.00    +0.000 A 
ATOM      5  C   UNL     1      -7.407   7.011 130.959  0.00  0.00    +0.000 A 
ATOM      6  C   UNL     1      -6.030   7.113 130.873  0.00  0.00    +0.000 A 
ENDROOT
BRANCH   1   7
ATOM      7  O   UNL     1      -3.863   6.577 131.831  0.00  0.00    +0.000 OA
BRANCH   7   8
ATOM      8  C   UNL     1      -3.295   5.994 130.654  0.00  0.00    +0.000 C 
BRANCH   8   9
ATOM      9  C   UNL     1      -2.952   4.545 130.968  0.00  0.00    +0.000 C 
BRANCH   9  11
ATOM     10  C   UNL     1      -2.611   3.243 133.086  0.00  0.00    +0.000 C 
ATOM     11  C   UNL     1      -2.163   4.440 132.269  0.00  0.00    +0.000 C 
ENDBRANCH   9  11
ENDBRANCH   8   9
ENDBRANCH   7   8
ENDBRANCH   1   7
BRANCH   4  12
ATOM     12  O   UNL     1      -9.353   6.280 132.194  0.00  0.00    +0.000 OA
BRANCH  12  13
ATOM     13  C   UNL     1      -9.873   4.939 132.237  0.00  0.00    +0.000 C 
BRANCH  13  14
ATOM     14  C   UNL     1     -10.481   4.713 130.889  0.00  0.00    +0.000 C 
BRANCH  14  15
ATOM     15  C   UNL     1     -11.575   5.679 130.457  0.00  0.00    +0.000 C 
BRANCH  15  16
ATOM     16  N   UNL     1     -11.618   5.988 129.013  0.00  0.00    +0.000 NA
ATOM     17  C   UNL     1     -10.453   6.757 128.522  0.00  0.00    +0.000 C 
ATOM     18  C   UNL     1     -10.479   8.271 128.845  0.00  0.00    +0.000 C 
ATOM     19  O   UNL     1     -11.726   8.889 128.501  0.00  0.00    +0.000 OA
ATOM     20  C   UNL     1     -12.871   8.181 128.998  0.00  0.00    +0.000 C 
ATOM     21  C   UNL     1     -12.842   6.702 128.596  0.00  0.00    +0.000 C 
ENDBRANCH  15  16
ENDBRANCH  14  15
ENDBRANCH  13  14
ENDBRANCH  12  13
ENDBRANCH   4  12
TORSDOF 9
ENDMDL
MODEL 9
REMARK VINA RESULT:      -5.5      3.809      8.555
REMARK  Name = Pramocaine
REMARK  10 active torsions:
REMARK  status: ('A' for Active; 'I' for Inactive)
REMARK    1  A    between atoms: C_1  and  C_2
REMARK    2  A    between atoms: C_2  and  C_3
REMARK    3  A    between atoms: C_3  and  C_4
REMARK    4  A    between atoms: C_4  and  O_5
REMARK    5  A    between atoms: O_5  and  C_6
REMARK    6  A    between atoms: C_9  and  O_10
REMARK    7  A    between atoms: O_10  and  C_11
REMARK    8  A    between atoms: C_11  and  C_12
REMARK    9  A    between atoms: C_12  and  C_13
REMARK   10  A    between atoms: C_13  and  N_14
REMARK                            x       y       z     vdW  Elec       q    Type
REMARK                         _______ _______ _______ _____ _____    ______ ____
ROOT
ATOM      1  C   UNL     1      -8.033  -2.927 129.028  0.00  0.00    +0.000 A 
ATOM      2  C   UNL     1      -7.297  -1.992 128.299  0.00  0.00    +0.000 A 
ATOM      3  C   UNL     1      -7.412  -1.933 126.908  0.00  0.00    +0.000 A 
ATOM      4  C   UNL     1      -8.248  -2.839 126.248  0.00  0.00    +0.000 A 
ATOM      5  C   UNL     1      -8.998  -3.746 126.984  0.00  0.00    +0.000 A 
ATOM      6  C   UNL     1      -8.898  -3.794 128.362  0.00  0.00    +0.000 A 
ENDROOT
BRANCH   1   7
ATOM      7  O   UNL     1      -7.921  -2.873 130.388  0.00  0.00    +0.000 OA
BRANCH   7   8
ATOM      8  C   UNL     1      -6.611  -2.562 130.869  0.00  0.00    +0.000 C 
BRANCH   8   9
ATOM      9  C   UNL     1      -6.082  -3.783 131.609  0.00  0.00    +0.000 C 
BRANCH   9  11
ATOM     10  C   UNL     1      -4.362  -3.891 129.785  0.00  0.00    +0.000 C 
ATOM     11  C   UNL     1      -5.298  -4.693 130.670  0.00  0.00    +0.000 C 
ENDBRANCH   9  11
ENDBRANCH   8   9
ENDBRANCH   7   8
ENDBRANCH   1   7
BRANCH   4  12
ATOM     12  O   UNL     1      -8.269  -2.782 124.889  0.00  0.00    +0.000 OA
BRANCH  12  13
ATOM     13  C   UNL     1      -6.994  -2.523 124.274  0.00  0.00    +0.000 C 
BRANCH  13  14
ATOM     14  C   UNL     1      -7.292  -1.609 123.128  0.00  0.00    +0.000 C 
BRANCH  14  15
ATOM     15  C   UNL     1      -6.900  -0.147 123.295  0.00  0.00    +0.000 C 
BRANCH  15  16
ATOM     16  N   UNL     1      -7.643   0.597 124.331  0.00  0.00    +0.000 NA
ATOM     17  C   UNL     1      -9.068   0.828 124.010  0.00  0.00    +0.000 C 
ATOM     18  C   UNL     1      -9.340   1.970 123.000  0.00  0.00    +0.000 C 
ATOM     19  O   UNL     1      -8.652   3.182 123.336  0.00  0.00    +0.000 OA
ATOM     20  C   UNL     1      -7.258   2.989 123.618  0.00  0.00    +0.000 C 
ATOM     21  C   UNL     1      -7.038   1.900 124.674  0.00  0.00    +0.000 C 
ENDBRANCH  15  16
ENDBRANCH  14  15
ENDBRANCH  13  14
ENDBRANCH  12  13
ENDBRANCH   4  12
TORSDOF 9
ENDMDL
