MODEL 1
REMARK VINA RESULT:      -6.3      0.000      0.000
REMARK  Name = Pramiracetam
REMARK  11 active torsions:
REMARK  status: ('A' for Active; 'I' for Inactive)
REMARK    1  A    between atoms: C_1  and  C_2
REMARK    2  A    between atoms: C_2  and  C_3
REMARK    3  A    between atoms: C_2  and  N_4
REMARK    4  A    between atoms: N_4  and  C_5
REMARK    5  A    between atoms: N_4  and  C_17
REMARK    6  A    between atoms: C_5  and  C_6
REMARK    7  A    between atoms: C_6  and  N_7
REMARK    8  A    between atoms: C_8  and  C_10
REMARK    9  A    between atoms: C_10  and  N_11
REMARK   10  A    between atoms: C_17  and  C_18
REMARK   11  A    between atoms: C_17  and  C_19
REMARK                            x       y       z     vdW  Elec       q    Type
REMARK                         _______ _______ _______ _____ _____    ______ ____
ROOT
ATOM      1  N   UNL     1      -8.081   1.271 123.435  0.00  0.00    +0.000 N 
ATOM      2  C   UNL     1      -8.486   2.591 123.264  0.00  0.00    +0.000 C 
ATOM      3  O   UNL     1      -8.812   3.266 124.243  0.00  0.00    +0.000 OA
ATOM      4  H   UNL     1      -7.423   0.881 122.772  0.00  0.00    +0.000 HD
ENDROOT
BRANCH   1   5
ATOM      5  C   UNL     1      -7.973   0.914 124.829  0.00  0.00    +0.000 C 
BRANCH   5   6
ATOM      6  C   UNL     1      -8.288  -0.512 125.243  0.00  0.00    +0.000 C 
BRANCH   6   7
ATOM      7  N   UNL     1      -7.773  -1.608 124.346  0.00  0.00    +0.000 NA
BRANCH   7   9
ATOM      8  C   UNL     1      -9.401  -3.009 125.806  0.00  0.00    +0.000 C 
ATOM      9  C   UNL     1      -8.492  -2.923 124.561  0.00  0.00    +0.000 C 
ATOM     10  C   UNL     1      -9.512  -3.308 123.475  0.00  0.00    +0.000 C 
ENDBRANCH   7   9
BRANCH   7  11
ATOM     11  C   UNL     1      -6.277  -1.698 124.535  0.00  0.00    +0.000 C 
ATOM     12  C   UNL     1      -5.788  -2.167 125.914  0.00  0.00    +0.000 C 
ATOM     13  C   UNL     1      -5.616  -2.713 123.574  0.00  0.00    +0.000 C 
ENDBRANCH   7  11
ENDBRANCH   6   7
ENDBRANCH   5   6
ENDBRANCH   1   5
BRANCH   2  14
ATOM     14  C   UNL     1      -8.437   3.145 121.842  0.00  0.00    +0.000 C 
BRANCH  14  15
ATOM     15  N   UNL     1      -7.141   3.698 121.444  0.00  0.00    +0.000 N 
ATOM     16  C   UNL     1      -5.940   3.629 122.249  0.00  0.00    +0.000 C 
ATOM     17  C   UNL     1      -4.973   4.544 121.538  0.00  0.00    +0.000 C 
ATOM     18  C   UNL     1      -5.388   4.433 120.084  0.00  0.00    +0.000 C 
ATOM     19  C   UNL     1      -6.880   4.185 120.173  0.00  0.00    +0.000 C 
ATOM     20  O   UNL     1      -7.682   4.333 119.275  0.00  0.00    +0.000 OA
ENDBRANCH  14  15
ENDBRANCH   2  14
TORSDOF 7
ENDMDL
MODEL 2
REMARK VINA RESULT:      -6.2      1.690      2.848
REMARK  Name = Pramiracetam
REMARK  11 active torsions:
REMARK  status: ('A' for Active; 'I' for Inactive)
REMARK    1  A    between atoms: C_1  and  C_2
REMARK    2  A    between atoms: C_2  and  C_3
REMARK    3  A    between atoms: C_2  and  N_4
REMARK    4  A    between atoms: N_4  and  C_5
REMARK    5  A    between atoms: N_4  and  C_17
REMARK    6  A    between atoms: C_5  and  C_6
REMARK    7  A    between atoms: C_6  and  N_7
REMARK    8  A    between atoms: C_8  and  C_10
REMARK    9  A    between atoms: C_10  and  N_11
REMARK   10  A    between atoms: C_17  and  C_18
REMARK   11  A    between atoms: C_17  and  C_19
REMARK                            x       y       z     vdW  Elec       q    Type
REMARK                         _______ _______ _______ _____ _____    ______ ____
ROOT
ATOM      1  N   UNL     1      -7.693   1.344 124.905  0.00  0.00    +0.000 N 
ATOM      2  C   UNL     1      -8.304   1.537 123.670  0.00  0.00    +0.000 C 
ATOM      3  O   UNL     1      -8.812   0.582 123.079  0.00  0.00    +0.000 OA
ATOM      4  H   UNL     1      -7.687   2.113 125.563  0.00  0.00    +0.000 HD
ENDROOT
BRANCH   1   5
ATOM      5  C   UNL     1      -7.874  -0.001 125.394  0.00  0.00    +0.000 C 
BRANCH   5   6
ATOM      6  C   UNL     1      -6.706  -0.968 125.319  0.00  0.00    +0.000 C 
BRANCH   6   7
ATOM      7  N   UNL     1      -7.042  -2.421 125.098  0.00  0.00    +0.000 NA
BRANCH   7   9
ATOM      8  C   UNL     1      -6.195  -1.909 122.696  0.00  0.00    +0.000 C 
ATOM      9  C   UNL     1      -6.488  -2.955 123.794  0.00  0.00    +0.000 C 
ATOM     10  C   UNL     1      -5.104  -3.622 123.885  0.00  0.00    +0.000 C 
ENDBRANCH   7   9
BRANCH   7  11
ATOM     11  C   UNL     1      -8.539  -2.576 125.228  0.00  0.00    +0.000 C 
ATOM     12  C   UNL     1      -9.259  -3.271 124.062  0.00  0.00    +0.000 C 
ATOM     13  C   UNL     1      -8.944  -3.440 126.444  0.00  0.00    +0.000 C 
ENDBRANCH   7  11
ENDBRANCH   6   7
ENDBRANCH   5   6
ENDBRANCH   1   5
BRANCH   2  14
ATOM     14  C   UNL     1      -8.359   2.972 123.149  0.00  0.00    +0.000 C 
BRANCH  14  15
ATOM     15  N   UNL     1      -7.184   3.390 122.382  0.00  0.00    +0.000 N 
ATOM     16  C   UNL     1      -7.177   3.614 120.952  0.00  0.00    +0.000 C 
ATOM     17  C   UNL     1      -5.715   3.769 120.614  0.00  0.00    +0.000 C 
ATOM     18  C   UNL     1      -5.125   4.373 121.874  0.00  0.00    +0.000 C 
ATOM     19  C   UNL     1      -5.996   3.794 122.970  0.00  0.00    +0.000 C 
ATOM     20  O   UNL     1      -5.721   3.750 124.151  0.00  0.00    +0.000 OA
ENDBRANCH  14  15
ENDBRANCH   2  14
TORSDOF 7
ENDMDL
MODEL 3
REMARK VINA RESULT:      -6.0      8.410      9.833
REMARK  Name = Pramiracetam
REMARK  11 active torsions:
REMARK  status: ('A' for Active; 'I' for Inactive)
REMARK    1  A    between atoms: C_1  and  C_2
REMARK    2  A    between atoms: C_2  and  C_3
REMARK    3  A    between atoms: C_2  and  N_4
REMARK    4  A    between atoms: N_4  and  C_5
REMARK    5  A    between atoms: N_4  and  C_17
REMARK    6  A    between atoms: C_5  and  C_6
REMARK    7  A    between atoms: C_6  and  N_7
REMARK    8  A    between atoms: C_8  and  C_10
REMARK    9  A    between atoms: C_10  and  N_11
REMARK   10  A    between atoms: C_17  and  C_18
REMARK   11  A    between atoms: C_17  and  C_19
REMARK                            x       y       z     vdW  Elec       q    Type
REMARK                         _______ _______ _______ _____ _____    ______ ____
ROOT
ATOM      1  N   UNL     1     -11.067   7.008 130.893  0.00  0.00    +0.000 N 
ATOM      2  C   UNL     1     -12.346   7.551 130.824  0.00  0.00    +0.000 C 
ATOM      3  O   UNL     1     -13.185   7.261 131.679  0.00  0.00    +0.000 OA
ATOM      4  H   UNL     1     -10.296   7.543 130.513  0.00  0.00    +0.000 HD
ENDROOT
BRANCH   1   5
ATOM      5  C   UNL     1     -10.868   6.245 132.101  0.00  0.00    +0.000 C 
BRANCH   5   6
ATOM      6  C   UNL     1     -10.173   4.898 132.008  0.00  0.00    +0.000 C 
BRANCH   6   7
ATOM      7  N   UNL     1      -8.707   4.915 131.660  0.00  0.00    +0.000 NA
BRANCH   7   9
ATOM      8  C   UNL     1      -9.289   2.906 130.120  0.00  0.00    +0.000 C 
ATOM      9  C   UNL     1      -8.398   4.136 130.400  0.00  0.00    +0.000 C 
ATOM     10  C   UNL     1      -8.600   4.901 129.080  0.00  0.00    +0.000 C 
ENDBRANCH   7   9
BRANCH   7  11
ATOM     11  C   UNL     1      -7.938   4.438 132.870  0.00  0.00    +0.000 C 
ATOM     12  C   UNL     1      -7.293   5.526 133.743  0.00  0.00    +0.000 C 
ATOM     13  C   UNL     1      -8.827   3.674 133.877  0.00  0.00    +0.000 C 
ENDBRANCH   7  11
ENDBRANCH   6   7
ENDBRANCH   5   6
ENDBRANCH   1   5
BRANCH   2  14
ATOM     14  C   UNL     1     -12.608   8.547 129.695  0.00  0.00    +0.000 C 
BRANCH  14  15
ATOM     15  N   UNL     1     -12.265   8.061 128.358  0.00  0.00    +0.000 N 
ATOM     16  C   UNL     1     -13.228   7.580 127.390  0.00  0.00    +0.000 C 
ATOM     17  C   UNL     1     -12.378   6.968 126.304  0.00  0.00    +0.000 C 
ATOM     18  C   UNL     1     -11.106   7.793 126.346  0.00  0.00    +0.000 C 
ATOM     19  C   UNL     1     -10.999   8.181 127.806  0.00  0.00    +0.000 C 
ATOM     20  O   UNL     1     -10.000   8.579 128.367  0.00  0.00    +0.000 OA
ENDBRANCH  14  15
ENDBRANCH   2  14
TORSDOF 7
ENDMDL
MODEL 4
REMARK VINA RESULT:      -5.9      2.236      6.180
REMARK  Name = Pramiracetam
REMARK  11 active torsions:
REMARK  status: ('A' for Active; 'I' for Inactive)
REMARK    1  A    between atoms: C_1  and  C_2
REMARK    2  A    between atoms: C_2  and  C_3
REMARK    3  A    between atoms: C_2  and  N_4
REMARK    4  A    between atoms: N_4  and  C_5
REMARK    5  A    between atoms: N_4  and  C_17
REMARK    6  A    between atoms: C_5  and  C_6
REMARK    7  A    between atoms: C_6  and  N_7
REMARK    8  A    between atoms: C_8  and  C_10
REMARK    9  A    between atoms: C_10  and  N_11
REMARK   10  A    between atoms: C_17  and  C_18
REMARK   11  A    between atoms: C_17  and  C_19
REMARK                            x       y       z     vdW  Elec       q    Type
REMARK                         _______ _______ _______ _____ _____    ______ ____
ROOT
ATOM      1  N   UNL     1      -8.811   0.484 123.676  0.00  0.00    +0.000 N 
ATOM      2  C   UNL     1      -9.492  -0.493 122.955  0.00  0.00    +0.000 C 
ATOM      3  O   UNL     1     -10.512  -0.197 122.330  0.00  0.00    +0.000 OA
ATOM      4  H   UNL     1      -7.811   0.382 123.797  0.00  0.00    +0.000 HD
ENDROOT
BRANCH   1   5
ATOM      5  C   UNL     1      -9.364   1.799 123.460  0.00  0.00    +0.000 C 
BRANCH   5   6
ATOM      6  C   UNL     1      -8.630   2.758 122.541  0.00  0.00    +0.000 C 
BRANCH   6   7
ATOM      7  N   UNL     1      -7.139   2.876 122.734  0.00  0.00    +0.000 NA
BRANCH   7   9
ATOM      8  C   UNL     1      -6.041   2.436 125.046  0.00  0.00    +0.000 C 
ATOM      9  C   UNL     1      -6.770   3.415 124.100  0.00  0.00    +0.000 C 
ATOM     10  C   UNL     1      -5.757   4.573 124.105  0.00  0.00    +0.000 C 
ENDBRANCH   7   9
BRANCH   7  11
ATOM     11  C   UNL     1      -6.586   3.693 121.591  0.00  0.00    +0.000 C 
ATOM     12  C   UNL     1      -5.393   3.091 120.834  0.00  0.00    +0.000 C 
ATOM     13  C   UNL     1      -7.623   3.923 120.467  0.00  0.00    +0.000 C 
ENDBRANCH   7  11
ENDBRANCH   6   7
ENDBRANCH   5   6
ENDBRANCH   1   5
BRANCH   2  14
ATOM     14  C   UNL     1      -8.873  -1.889 122.939  0.00  0.00    +0.000 C 
BRANCH  14  15
ATOM     15  N   UNL     1      -7.668  -2.035 123.757  0.00  0.00    +0.000 N 
ATOM     16  C   UNL     1      -7.671  -2.333 125.173  0.00  0.00    +0.000 C 
ATOM     17  C   UNL     1      -6.236  -2.125 125.593  0.00  0.00    +0.000 C 
ATOM     18  C   UNL     1      -5.450  -2.483 124.345  0.00  0.00    +0.000 C 
ATOM     19  C   UNL     1      -6.388  -2.084 123.225  0.00  0.00    +0.000 C 
ATOM     20  O   UNL     1      -6.078  -1.902 122.067  0.00  0.00    +0.000 OA
ENDBRANCH  14  15
ENDBRANCH   2  14
TORSDOF 7
ENDMDL
MODEL 5
REMARK VINA RESULT:      -5.9      1.661      2.874
REMARK  Name = Pramiracetam
REMARK  11 active torsions:
REMARK  status: ('A' for Active; 'I' for Inactive)
REMARK    1  A    between atoms: C_1  and  C_2
REMARK    2  A    between atoms: C_2  and  C_3
REMARK    3  A    between atoms: C_2  and  N_4
REMARK    4  A    between atoms: N_4  and  C_5
REMARK    5  A    between atoms: N_4  and  C_17
REMARK    6  A    between atoms: C_5  and  C_6
REMARK    7  A    between atoms: C_6  and  N_7
REMARK    8  A    between atoms: C_8  and  C_10
REMARK    9  A    between atoms: C_10  and  N_11
REMARK   10  A    between atoms: C_17  and  C_18
REMARK   11  A    between atoms: C_17  and  C_19
REMARK                            x       y       z     vdW  Elec       q    Type
REMARK                         _______ _______ _______ _____ _____    ______ ____
ROOT
ATOM      1  N   UNL     1      -8.376   0.650 125.710  0.00  0.00    +0.000 N 
ATOM      2  C   UNL     1      -9.202   1.401 124.880  0.00  0.00    +0.000 C 
ATOM      3  O   UNL     1     -10.176   0.873 124.339  0.00  0.00    +0.000 OA
ATOM      4  H   UNL     1      -7.894   1.124 126.464  0.00  0.00    +0.000 HD
ENDROOT
BRANCH   1   5
ATOM      5  C   UNL     1      -8.892  -0.679 125.928  0.00  0.00    +0.000 C 
BRANCH   5   6
ATOM      6  C   UNL     1      -7.912  -1.833 126.040  0.00  0.00    +0.000 C 
BRANCH   6   7
ATOM      7  N   UNL     1      -7.627  -2.607 124.778  0.00  0.00    +0.000 NA
BRANCH   7   9
ATOM      8  C   UNL     1      -5.358  -1.374 125.050  0.00  0.00    +0.000 C 
ATOM      9  C   UNL     1      -6.243  -2.337 124.229  0.00  0.00    +0.000 C 
ATOM     10  C   UNL     1      -5.304  -3.555 124.168  0.00  0.00    +0.000 C 
ENDBRANCH   7   9
BRANCH   7  11
ATOM     11  C   UNL     1      -8.736  -2.314 123.796  0.00  0.00    +0.000 C 
ATOM     12  C   UNL     1      -8.305  -1.868 122.390  0.00  0.00    +0.000 C 
ATOM     13  C   UNL     1      -9.617  -3.552 123.506  0.00  0.00    +0.000 C 
ENDBRANCH   7  11
ENDBRANCH   6   7
ENDBRANCH   5   6
ENDBRANCH   1   5
BRANCH   2  14
ATOM     14  C   UNL     1      -8.870   2.886 124.743  0.00  0.00    +0.000 C 
BRANCH  14  15
ATOM     15  N   UNL     1      -7.799   3.189 123.793  0.00  0.00    +0.000 N 
ATOM     16  C   UNL     1      -6.414   3.400 124.160  0.00  0.00    +0.000 C 
ATOM     17  C   UNL     1      -5.778   3.924 122.896  0.00  0.00    +0.000 C 
ATOM     18  C   UNL     1      -6.587   3.263 121.796  0.00  0.00    +0.000 C 
ATOM     19  C   UNL     1      -7.961   3.126 122.418  0.00  0.00    +0.000 C 
ATOM     20  O   UNL     1      -8.999   2.937 121.819  0.00  0.00    +0.000 OA
ENDBRANCH  14  15
ENDBRANCH   2  14
TORSDOF 7
ENDMDL
MODEL 6
REMARK VINA RESULT:      -5.9      1.732      2.060
REMARK  Name = Pramiracetam
REMARK  11 active torsions:
REMARK  status: ('A' for Active; 'I' for Inactive)
REMARK    1  A    between atoms: C_1  and  C_2
REMARK    2  A    between atoms: C_2  and  C_3
REMARK    3  A    between atoms: C_2  and  N_4
REMARK    4  A    between atoms: N_4  and  C_5
REMARK    5  A    between atoms: N_4  and  C_17
REMARK    6  A    between atoms: C_5  and  C_6
REMARK    7  A    between atoms: C_6  and  N_7
REMARK    8  A    between atoms: C_8  and  C_10
REMARK    9  A    between atoms: C_10  and  N_11
REMARK   10  A    between atoms: C_17  and  C_18
REMARK   11  A    between atoms: C_17  and  C_19
REMARK                            x       y       z     vdW  Elec       q    Type
REMARK                         _______ _______ _______ _____ _____    ______ ____
ROOT
ATOM      1  N   UNL     1      -6.777   1.701 124.949  0.00  0.00    +0.000 N 
ATOM      2  C   UNL     1      -5.894   2.767 125.091  0.00  0.00    +0.000 C 
ATOM      3  O   UNL     1      -4.845   2.618 125.722  0.00  0.00    +0.000 OA
ATOM      4  H   UNL     1      -7.358   1.666 124.121  0.00  0.00    +0.000 HD
ENDROOT
BRANCH   1   5
ATOM      5  C   UNL     1      -6.235   0.475 125.482  0.00  0.00    +0.000 C 
BRANCH   5   6
ATOM      6  C   UNL     1      -7.174  -0.693 125.727  0.00  0.00    +0.000 C 
BRANCH   6   7
ATOM      7  N   UNL     1      -7.425  -1.617 124.563  0.00  0.00    +0.000 NA
BRANCH   7   9
ATOM      8  C   UNL     1      -9.079  -2.729 126.228  0.00  0.00    +0.000 C 
ATOM      9  C   UNL     1      -8.211  -2.849 124.956  0.00  0.00    +0.000 C 
ATOM     10  C   UNL     1      -9.291  -3.295 123.954  0.00  0.00    +0.000 C 
ENDBRANCH   7   9
BRANCH   7  11
ATOM     11  C   UNL     1      -6.092  -1.928 123.923  0.00  0.00    +0.000 C 
ATOM     12  C   UNL     1      -5.476  -3.295 124.255  0.00  0.00    +0.000 C 
ATOM     13  C   UNL     1      -6.165  -1.952 122.379  0.00  0.00    +0.000 C 
ENDBRANCH   7  11
ENDBRANCH   6   7
ENDBRANCH   5   6
ENDBRANCH   1   5
BRANCH   2  14
ATOM     14  C   UNL     1      -6.269   4.067 124.382  0.00  0.00    +0.000 C 
BRANCH  14  15
ATOM     15  N   UNL     1      -6.010   4.076 122.941  0.00  0.00    +0.000 N 
ATOM     16  C   UNL     1      -4.791   4.564 122.331  0.00  0.00    +0.000 C 
ATOM     17  C   UNL     1      -5.111   4.600 120.857  0.00  0.00    +0.000 C 
ATOM     18  C   UNL     1      -6.108   3.469 120.686  0.00  0.00    +0.000 C 
ATOM     19  C   UNL     1      -6.829   3.446 122.017  0.00  0.00    +0.000 C 
ATOM     20  O   UNL     1      -7.900   2.920 122.238  0.00  0.00    +0.000 OA
ENDBRANCH  14  15
ENDBRANCH   2  14
TORSDOF 7
ENDMDL
MODEL 7
REMARK VINA RESULT:      -5.8      1.574      2.244
REMARK  Name = Pramiracetam
REMARK  11 active torsions:
REMARK  status: ('A' for Active; 'I' for Inactive)
REMARK    1  A    between atoms: C_1  and  C_2
REMARK    2  A    between atoms: C_2  and  C_3
REMARK    3  A    between atoms: C_2  and  N_4
REMARK    4  A    between atoms: N_4  and  C_5
REMARK    5  A    between atoms: N_4  and  C_17
REMARK    6  A    between atoms: C_5  and  C_6
REMARK    7  A    between atoms: C_6  and  N_7
REMARK    8  A    between atoms: C_8  and  C_10
REMARK    9  A    between atoms: C_10  and  N_11
REMARK   10  A    between atoms: C_17  and  C_18
REMARK   11  A    between atoms: C_17  and  C_19
REMARK                            x       y       z     vdW  Elec       q    Type
REMARK                         _______ _______ _______ _____ _____    ______ ____
ROOT
ATOM      1  N   UNL     1      -8.924   1.595 125.350  0.00  0.00    +0.000 N 
ATOM      2  C   UNL     1      -8.661   1.889 124.016  0.00  0.00    +0.000 C 
ATOM      3  O   UNL     1      -8.718   0.998 123.166  0.00  0.00    +0.000 OA
ATOM      4  H   UNL     1      -9.310   2.325 125.936  0.00  0.00    +0.000 HD
ENDROOT
BRANCH   1   5
ATOM      5  C   UNL     1      -9.379   0.237 125.525  0.00  0.00    +0.000 C 
BRANCH   5   6
ATOM      6  C   UNL     1      -8.426  -0.779 126.130  0.00  0.00    +0.000 C 
BRANCH   6   7
ATOM      7  N   UNL     1      -8.778  -2.233 125.945  0.00  0.00    +0.000 NA
BRANCH   7   9
ATOM      8  C   UNL     1      -7.604  -2.390 128.256  0.00  0.00    +0.000 C 
ATOM      9  C   UNL     1      -8.198  -3.116 127.029  0.00  0.00    +0.000 C 
ATOM     10  C   UNL     1      -9.201  -4.040 127.741  0.00  0.00    +0.000 C 
ENDBRANCH   7   9
BRANCH   7  11
ATOM     11  C   UNL     1      -8.366  -2.636 124.550  0.00  0.00    +0.000 C 
ATOM     12  C   UNL     1      -7.228  -3.663 124.442  0.00  0.00    +0.000 C 
ATOM     13  C   UNL     1      -9.511  -3.311 123.762  0.00  0.00    +0.000 C 
ENDBRANCH   7  11
ENDBRANCH   6   7
ENDBRANCH   5   6
ENDBRANCH   1   5
BRANCH   2  14
ATOM     14  C   UNL     1      -8.374   3.351 123.680  0.00  0.00    +0.000 C 
BRANCH  14  15
ATOM     15  N   UNL     1      -7.393   3.553 122.612  0.00  0.00    +0.000 N 
ATOM     16  C   UNL     1      -5.958   3.516 122.800  0.00  0.00    +0.000 C 
ATOM     17  C   UNL     1      -5.406   4.027 121.491  0.00  0.00    +0.000 C 
ATOM     18  C   UNL     1      -6.444   3.586 120.476  0.00  0.00    +0.000 C 
ATOM     19  C   UNL     1      -7.733   3.619 121.269  0.00  0.00    +0.000 C 
ATOM     20  O   UNL     1      -8.854   3.639 120.806  0.00  0.00    +0.000 OA
ENDBRANCH  14  15
ENDBRANCH   2  14
TORSDOF 7
ENDMDL
MODEL 8
REMARK VINA RESULT:      -5.8      8.036      9.771
REMARK  Name = Pramiracetam
REMARK  11 active torsions:
REMARK  status: ('A' for Active; 'I' for Inactive)
REMARK    1  A    between atoms: C_1  and  C_2
REMARK    2  A    between atoms: C_2  and  C_3
REMARK    3  A    between atoms: C_2  and  N_4
REMARK    4  A    between atoms: N_4  and  C_5
REMARK    5  A    between atoms: N_4  and  C_17
REMARK    6  A    between atoms: C_5  and  C_6
REMARK    7  A    between atoms: C_6  and  N_7
REMARK    8  A    between atoms: C_8  and  C_10
REMARK    9  A    between atoms: C_10  and  N_11
REMARK   10  A    between atoms: C_17  and  C_18
REMARK   11  A    between atoms: C_17  and  C_19
REMARK                            x       y       z     vdW  Elec       q    Type
REMARK                         _______ _______ _______ _____ _____    ______ ____
ROOT
ATOM      1  N   UNL     1      -8.096   6.144 130.580  0.00  0.00    +0.000 N 
ATOM      2  C   UNL     1      -9.334   6.180 131.215  0.00  0.00    +0.000 C 
ATOM      3  O   UNL     1      -9.412   6.531 132.394  0.00  0.00    +0.000 OA
ATOM      4  H   UNL     1      -8.064   6.300 129.581  0.00  0.00    +0.000 HD
ENDROOT
BRANCH   1   5
ATOM      5  C   UNL     1      -7.046   6.682 131.412  0.00  0.00    +0.000 C 
BRANCH   5   6
ATOM      6  C   UNL     1      -5.611   6.281 131.125  0.00  0.00    +0.000 C 
BRANCH   6   7
ATOM      7  N   UNL     1      -5.154   6.377 129.692  0.00  0.00    +0.000 NA
BRANCH   7   9
ATOM      8  C   UNL     1      -4.394   3.939 130.165  0.00  0.00    +0.000 C 
ATOM      9  C   UNL     1      -4.708   5.043 129.132  0.00  0.00    +0.000 C 
ATOM     10  C   UNL     1      -5.749   4.300 128.275  0.00  0.00    +0.000 C 
ENDBRANCH   7   9
BRANCH   7  11
ATOM     11  C   UNL     1      -4.095   7.451 129.613  0.00  0.00    +0.000 C 
ATOM     12  C   UNL     1      -3.403   7.827 130.932  0.00  0.00    +0.000 C 
ATOM     13  C   UNL     1      -2.909   7.053 128.706  0.00  0.00    +0.000 C 
ENDBRANCH   7  11
ENDBRANCH   6   7
ENDBRANCH   5   6
ENDBRANCH   1   5
BRANCH   2  14
ATOM     14  C   UNL     1     -10.552   5.832 130.361  0.00  0.00    +0.000 C 
BRANCH  14  15
ATOM     15  N   UNL     1     -10.956   6.874 129.416  0.00  0.00    +0.000 N 
ATOM     16  C   UNL     1     -11.832   7.979 129.740  0.00  0.00    +0.000 C 
ATOM     17  C   UNL     1     -12.140   8.605 128.402  0.00  0.00    +0.000 C 
ATOM     18  C   UNL     1     -10.889   8.331 127.589  0.00  0.00    +0.000 C 
ATOM     19  C   UNL     1     -10.395   7.016 128.156  0.00  0.00    +0.000 C 
ATOM     20  O   UNL     1      -9.608   6.262 127.624  0.00  0.00    +0.000 OA
ENDBRANCH  14  15
ENDBRANCH   2  14
TORSDOF 7
ENDMDL
MODEL 9
REMARK VINA RESULT:      -5.7      8.882      9.901
REMARK  Name = Pramiracetam
REMARK  11 active torsions:
REMARK  status: ('A' for Active; 'I' for Inactive)
REMARK    1  A    between atoms: C_1  and  C_2
REMARK    2  A    between atoms: C_2  and  C_3
REMARK    3  A    between atoms: C_2  and  N_4
REMARK    4  A    between atoms: N_4  and  C_5
REMARK    5  A    between atoms: N_4  and  C_17
REMARK    6  A    between atoms: C_5  and  C_6
REMARK    7  A    between atoms: C_6  and  N_7
REMARK    8  A    between atoms: C_8  and  C_10
REMARK    9  A    between atoms: C_10  and  N_11
REMARK   10  A    between atoms: C_17  and  C_18
REMARK   11  A    between atoms: C_17  and  C_19
REMARK                            x       y       z     vdW  Elec       q    Type
REMARK                         _______ _______ _______ _____ _____    ______ ____
ROOT
ATOM      1  N   UNL     1      -8.633   5.919 130.869  0.00  0.00    +0.000 N 
ATOM      2  C   UNL     1      -9.908   6.125 131.388  0.00  0.00    +0.000 C 
ATOM      3  O   UNL     1     -10.043   6.593 132.521  0.00  0.00    +0.000 OA
ATOM      4  H   UNL     1      -8.508   5.975 129.867  0.00  0.00    +0.000 HD
ENDROOT
BRANCH   1   5
ATOM      5  C   UNL     1      -7.605   6.439 131.738  0.00  0.00    +0.000 C 
BRANCH   5   6
ATOM      6  C   UNL     1      -6.750   5.461 132.523  0.00  0.00    +0.000 C 
BRANCH   6   7
ATOM      7  N   UNL     1      -7.079   3.998 132.370  0.00  0.00    +0.000 NA
BRANCH   7   9
ATOM      8  C   UNL     1      -8.056   4.413 134.740  0.00  0.00    +0.000 C 
ATOM      9  C   UNL     1      -7.831   3.442 133.561  0.00  0.00    +0.000 C 
ATOM     10  C   UNL     1      -9.289   3.028 133.291  0.00  0.00    +0.000 C 
ENDBRANCH   7   9
BRANCH   7  11
ATOM     11  C   UNL     1      -5.795   3.263 132.068  0.00  0.00    +0.000 C 
ATOM     12  C   UNL     1      -4.511   3.849 132.675  0.00  0.00    +0.000 C 
ATOM     13  C   UNL     1      -5.798   1.814 132.608  0.00  0.00    +0.000 C 
ENDBRANCH   7  11
ENDBRANCH   6   7
ENDBRANCH   5   6
ENDBRANCH   1   5
BRANCH   2  14
ATOM     14  C   UNL     1     -11.083   5.805 130.467  0.00  0.00    +0.000 C 
BRANCH  14  15
ATOM     15  N   UNL     1     -11.401   6.852 129.494  0.00  0.00    +0.000 N 
ATOM     16  C   UNL     1     -12.378   7.899 129.707  0.00  0.00    +0.000 C 
ATOM     17  C   UNL     1     -12.520   8.546 128.352  0.00  0.00    +0.000 C 
ATOM     18  C   UNL     1     -11.148   8.365 127.731  0.00  0.00    +0.000 C 
ATOM     19  C   UNL     1     -10.668   7.063 128.336  0.00  0.00    +0.000 C 
ATOM     20  O   UNL     1      -9.769   6.368 127.912  0.00  0.00    +0.000 OA
ENDBRANCH  14  15
ENDBRANCH   2  14
TORSDOF 7
ENDMDL
