MODEL 1
REMARK VINA RESULT:      -5.5      0.000      0.000
REMARK  Name = Pramipexole
REMARK  4 active torsions:
REMARK  status: ('A' for Active; 'I' for Inactive)
REMARK    1  A    between atoms: C_1  and  C_2
REMARK    2  A    between atoms: C_2  and  C_3
REMARK    3  A    between atoms: C_3  and  N_4
REMARK    4  A    between atoms: N_4  and  C_5
REMARK                            x       y       z     vdW  Elec       q    Type
REMARK                         _______ _______ _______ _____ _____    ______ ____
ROOT
ATOM      1  C   UNL     1      -9.975   5.297 130.795  0.00  0.00    +0.000 C 
ATOM      2  C   UNL     1     -10.556   6.036 132.029  0.00  0.00    +0.000 C 
ATOM      3  C   UNL     1     -11.899   6.696 131.734  0.00  0.00    +0.000 C 
ATOM      4  C   UNL     1     -11.834   7.491 130.488  0.00  0.00    +0.000 A 
ATOM      5  C   UNL     1     -10.865   7.302 129.522  0.00  0.00    +0.000 A 
ATOM      6  C   UNL     1      -9.716   6.314 129.625  0.00  0.00    +0.000 C 
ATOM      7  S   UNL     1     -11.153   8.393 128.237  0.00  0.00    +0.000 S 
ATOM      8  C   UNL     1     -12.540   9.018 129.069  0.00  0.00    +0.000 A 
ATOM      9  N   UNL     1     -13.317   9.993 128.585  0.00  0.00    +0.000 N 
ATOM     10  N   UNL     1     -12.778   8.457 130.231  0.00  0.00    +0.000 NA
ATOM     11  H   UNL     1     -13.166  10.438 127.692  0.00  0.00    +0.000 HD
ATOM     12  H   UNL     1     -14.114  10.301 129.130  0.00  0.00    +0.000 HD
ENDROOT
BRANCH   1  13
ATOM     13  N   UNL     1      -8.908   4.435 131.326  0.00  0.00    +0.000 NA
ATOM     14  H   UNL     1      -8.007   4.684 130.917  0.00  0.00    +0.000 HD
BRANCH  13  15
ATOM     15  C   UNL     1      -9.030   2.991 131.325  0.00  0.00    +0.000 C 
BRANCH  15  17
ATOM     16  C   UNL     1      -8.627   3.414 133.800  0.00  0.00    +0.000 C 
ATOM     17  C   UNL     1      -9.361   2.572 132.772  0.00  0.00    +0.000 C 
ENDBRANCH  15  17
ENDBRANCH  13  15
ENDBRANCH   1  13
TORSDOF 3
ENDMDL
MODEL 2
REMARK VINA RESULT:      -5.4      1.902      2.514
REMARK  Name = Pramipexole
REMARK  4 active torsions:
REMARK  status: ('A' for Active; 'I' for Inactive)
REMARK    1  A    between atoms: C_1  and  C_2
REMARK    2  A    between atoms: C_2  and  C_3
REMARK    3  A    between atoms: C_3  and  N_4
REMARK    4  A    between atoms: N_4  and  C_5
REMARK                            x       y       z     vdW  Elec       q    Type
REMARK                         _______ _______ _______ _____ _____    ______ ____
ROOT
ATOM      1  C   UNL     1      -9.307   5.956 132.858  0.00  0.00    +0.000 C 
ATOM      2  C   UNL     1      -8.165   5.832 131.815  0.00  0.00    +0.000 C 
ATOM      3  C   UNL     1      -8.149   6.994 130.827  0.00  0.00    +0.000 C 
ATOM      4  C   UNL     1      -9.499   7.230 130.269  0.00  0.00    +0.000 A 
ATOM      5  C   UNL     1     -10.655   6.777 130.873  0.00  0.00    +0.000 A 
ATOM      6  C   UNL     1     -10.704   5.938 132.139  0.00  0.00    +0.000 C 
ATOM      7  S   UNL     1     -11.995   7.276 129.934  0.00  0.00    +0.000 S 
ATOM      8  C   UNL     1     -10.927   8.053 128.811  0.00  0.00    +0.000 A 
ATOM      9  N   UNL     1     -11.346   8.709 127.723  0.00  0.00    +0.000 N 
ATOM     10  N   UNL     1      -9.653   7.950 129.107  0.00  0.00    +0.000 NA
ATOM     11  H   UNL     1     -12.319   8.813 127.472  0.00  0.00    +0.000 HD
ATOM     12  H   UNL     1     -10.659   9.141 127.116  0.00  0.00    +0.000 HD
ENDROOT
BRANCH   1  13
ATOM     13  N   UNL     1      -8.967   4.997 133.920  0.00  0.00    +0.000 NA
ATOM     14  H   UNL     1      -8.029   5.174 134.278  0.00  0.00    +0.000 HD
BRANCH  13  15
ATOM     15  C   UNL     1      -9.126   3.569 133.730  0.00  0.00    +0.000 C 
BRANCH  15  17
ATOM     16  C   UNL     1      -6.767   3.798 134.651  0.00  0.00    +0.000 C 
ATOM     17  C   UNL     1      -7.718   2.948 133.828  0.00  0.00    +0.000 C 
ENDBRANCH  15  17
ENDBRANCH  13  15
ENDBRANCH   1  13
TORSDOF 3
ENDMDL
MODEL 3
REMARK VINA RESULT:      -5.4      9.591     11.063
REMARK  Name = Pramipexole
REMARK  4 active torsions:
REMARK  status: ('A' for Active; 'I' for Inactive)
REMARK    1  A    between atoms: C_1  and  C_2
REMARK    2  A    between atoms: C_2  and  C_3
REMARK    3  A    between atoms: C_3  and  N_4
REMARK    4  A    between atoms: N_4  and  C_5
REMARK                            x       y       z     vdW  Elec       q    Type
REMARK                         _______ _______ _______ _____ _____    ______ ____
ROOT
ATOM      1  C   UNL     1      -7.600   2.553 123.347  0.00  0.00    +0.000 C 
ATOM      2  C   UNL     1      -8.913   2.480 122.523  0.00  0.00    +0.000 C 
ATOM      3  C   UNL     1      -9.849   1.381 123.016  0.00  0.00    +0.000 C 
ATOM      4  C   UNL     1      -9.124   0.101 123.176  0.00  0.00    +0.000 A 
ATOM      5  C   UNL     1      -7.751   0.022 123.293  0.00  0.00    +0.000 A 
ATOM      6  C   UNL     1      -6.801   1.206 123.218  0.00  0.00    +0.000 C 
ATOM      7  S   UNL     1      -7.312  -1.620 123.485  0.00  0.00    +0.000 S 
ATOM      8  C   UNL     1      -8.980  -2.083 123.400  0.00  0.00    +0.000 A 
ATOM      9  N   UNL     1      -9.403  -3.348 123.489  0.00  0.00    +0.000 N 
ATOM     10  N   UNL     1      -9.816  -1.085 123.237  0.00  0.00    +0.000 NA
ATOM     11  H   UNL     1      -8.787  -4.137 123.624  0.00  0.00    +0.000 HD
ATOM     12  H   UNL     1     -10.397  -3.539 123.435  0.00  0.00    +0.000 HD
ENDROOT
BRANCH   1  13
ATOM     13  N   UNL     1      -6.997   3.850 123.000  0.00  0.00    +0.000 NA
ATOM     14  H   UNL     1      -7.106   4.042 122.004  0.00  0.00    +0.000 HD
BRANCH  13  15
ATOM     15  C   UNL     1      -5.641   4.182 123.389  0.00  0.00    +0.000 C 
BRANCH  15  17
ATOM     16  C   UNL     1      -5.460   3.904 120.868  0.00  0.00    +0.000 C 
ATOM     17  C   UNL     1      -4.896   4.587 122.101  0.00  0.00    +0.000 C 
ENDBRANCH  15  17
ENDBRANCH  13  15
ENDBRANCH   1  13
TORSDOF 3
ENDMDL
MODEL 4
REMARK VINA RESULT:      -5.3      1.563      1.934
REMARK  Name = Pramipexole
REMARK  4 active torsions:
REMARK  status: ('A' for Active; 'I' for Inactive)
REMARK    1  A    between atoms: C_1  and  C_2
REMARK    2  A    between atoms: C_2  and  C_3
REMARK    3  A    between atoms: C_3  and  N_4
REMARK    4  A    between atoms: N_4  and  C_5
REMARK                            x       y       z     vdW  Elec       q    Type
REMARK                         _______ _______ _______ _____ _____    ______ ____
ROOT
ATOM      1  C   UNL     1      -9.810   5.412 130.856  0.00  0.00    +0.000 C 
ATOM      2  C   UNL     1     -10.481   6.097 132.075  0.00  0.00    +0.000 C 
ATOM      3  C   UNL     1     -11.854   6.671 131.738  0.00  0.00    +0.000 C 
ATOM      4  C   UNL     1     -11.797   7.482 130.501  0.00  0.00    +0.000 A 
ATOM      5  C   UNL     1     -10.784   7.367 129.570  0.00  0.00    +0.000 A 
ATOM      6  C   UNL     1      -9.577   6.455 129.705  0.00  0.00    +0.000 C 
ATOM      7  S   UNL     1     -11.099   8.451 128.284  0.00  0.00    +0.000 S 
ATOM      8  C   UNL     1     -12.552   8.974 129.071  0.00  0.00    +0.000 A 
ATOM      9  N   UNL     1     -13.374   9.901 128.568  0.00  0.00    +0.000 N 
ATOM     10  N   UNL     1     -12.793   8.387 130.219  0.00  0.00    +0.000 NA
ATOM     11  H   UNL     1     -13.221  10.365 127.684  0.00  0.00    +0.000 HD
ATOM     12  H   UNL     1     -14.208  10.151 129.086  0.00  0.00    +0.000 HD
ENDROOT
BRANCH   1  13
ATOM     13  N   UNL     1      -8.707   4.616 131.418  0.00  0.00    +0.000 NA
ATOM     14  H   UNL     1      -8.731   4.639 132.438  0.00  0.00    +0.000 HD
BRANCH  13  15
ATOM     15  C   UNL     1      -7.338   4.807 130.984  0.00  0.00    +0.000 C 
BRANCH  15  17
ATOM     16  C   UNL     1      -6.089   7.021 131.057  0.00  0.00    +0.000 C 
ATOM     17  C   UNL     1      -6.741   5.917 131.871  0.00  0.00    +0.000 C 
ENDBRANCH  15  17
ENDBRANCH  13  15
ENDBRANCH   1  13
TORSDOF 3
ENDMDL
MODEL 5
REMARK VINA RESULT:      -5.2     10.117     11.622
REMARK  Name = Pramipexole
REMARK  4 active torsions:
REMARK  status: ('A' for Active; 'I' for Inactive)
REMARK    1  A    between atoms: C_1  and  C_2
REMARK    2  A    between atoms: C_2  and  C_3
REMARK    3  A    between atoms: C_3  and  N_4
REMARK    4  A    between atoms: N_4  and  C_5
REMARK                            x       y       z     vdW  Elec       q    Type
REMARK                         _______ _______ _______ _____ _____    ______ ____
ROOT
ATOM      1  C   UNL     1      -8.578  -2.055 126.658  0.00  0.00    +0.000 C 
ATOM      2  C   UNL     1      -8.997  -3.463 127.156  0.00  0.00    +0.000 C 
ATOM      3  C   UNL     1      -8.623  -3.700 128.615  0.00  0.00    +0.000 C 
ATOM      4  C   UNL     1      -7.213  -3.329 128.866  0.00  0.00    +0.000 A 
ATOM      5  C   UNL     1      -6.494  -2.492 128.035  0.00  0.00    +0.000 A 
ATOM      6  C   UNL     1      -7.018  -1.891 126.742  0.00  0.00    +0.000 C 
ATOM      7  S   UNL     1      -4.924  -2.295 128.684  0.00  0.00    +0.000 S 
ATOM      8  C   UNL     1      -5.333  -3.332 130.010  0.00  0.00    +0.000 A 
ATOM      9  N   UNL     1      -4.485  -3.644 130.996  0.00  0.00    +0.000 N 
ATOM     10  N   UNL     1      -6.558  -3.802 129.979  0.00  0.00    +0.000 NA
ATOM     11  H   UNL     1      -3.539  -3.293 131.054  0.00  0.00    +0.000 HD
ATOM     12  H   UNL     1      -4.801  -4.255 131.741  0.00  0.00    +0.000 HD
ENDROOT
BRANCH   1  13
ATOM     13  N   UNL     1      -9.314  -1.855 125.399  0.00  0.00    +0.000 NA
ATOM     14  H   UNL     1      -9.721  -2.733 125.077  0.00  0.00    +0.000 HD
BRANCH  13  15
ATOM     15  C   UNL     1      -8.707  -1.184 124.267  0.00  0.00    +0.000 C 
BRANCH  15  17
ATOM     16  C   UNL     1      -9.620  -3.396 123.406  0.00  0.00    +0.000 C 
ATOM     17  C   UNL     1      -8.863  -2.126 123.057  0.00  0.00    +0.000 C 
ENDBRANCH  15  17
ENDBRANCH  13  15
ENDBRANCH   1  13
TORSDOF 3
ENDMDL
MODEL 6
REMARK VINA RESULT:      -5.1      2.919      5.668
REMARK  Name = Pramipexole
REMARK  4 active torsions:
REMARK  status: ('A' for Active; 'I' for Inactive)
REMARK    1  A    between atoms: C_1  and  C_2
REMARK    2  A    between atoms: C_2  and  C_3
REMARK    3  A    between atoms: C_3  and  N_4
REMARK    4  A    between atoms: N_4  and  C_5
REMARK                            x       y       z     vdW  Elec       q    Type
REMARK                         _______ _______ _______ _____ _____    ______ ____
ROOT
ATOM      1  C   UNL     1     -10.754   5.902 130.935  0.00  0.00    +0.000 C 
ATOM      2  C   UNL     1      -9.592   6.453 131.803  0.00  0.00    +0.000 C 
ATOM      3  C   UNL     1      -8.302   6.625 131.008  0.00  0.00    +0.000 C 
ATOM      4  C   UNL     1      -7.994   5.405 130.230  0.00  0.00    +0.000 A 
ATOM      5  C   UNL     1      -8.941   4.448 129.923  0.00  0.00    +0.000 A 
ATOM      6  C   UNL     1     -10.389   4.479 130.378  0.00  0.00    +0.000 C 
ATOM      7  S   UNL     1      -8.194   3.218 128.997  0.00  0.00    +0.000 S 
ATOM      8  C   UNL     1      -6.683   4.063 129.080  0.00  0.00    +0.000 A 
ATOM      9  N   UNL     1      -5.555   3.622 128.512  0.00  0.00    +0.000 N 
ATOM     10  N   UNL     1      -6.722   5.188 129.754  0.00  0.00    +0.000 NA
ATOM     11  H   UNL     1      -5.494   2.765 127.980  0.00  0.00    +0.000 HD
ATOM     12  H   UNL     1      -4.711   4.176 128.601  0.00  0.00    +0.000 HD
ENDROOT
BRANCH   1  13
ATOM     13  N   UNL     1     -11.973   6.139 131.725  0.00  0.00    +0.000 NA
ATOM     14  H   UNL     1     -12.555   5.302 131.748  0.00  0.00    +0.000 HD
BRANCH  13  15
ATOM     15  C   UNL     1     -12.824   7.285 131.478  0.00  0.00    +0.000 C 
BRANCH  15  17
ATOM     16  C   UNL     1     -12.713   8.985 129.589  0.00  0.00    +0.000 C 
ATOM     17  C   UNL     1     -12.828   7.515 129.953  0.00  0.00    +0.000 C 
ENDBRANCH  15  17
ENDBRANCH  13  15
ENDBRANCH   1  13
TORSDOF 3
ENDMDL
MODEL 7
REMARK VINA RESULT:      -5.0     10.192     10.731
REMARK  Name = Pramipexole
REMARK  4 active torsions:
REMARK  status: ('A' for Active; 'I' for Inactive)
REMARK    1  A    between atoms: C_1  and  C_2
REMARK    2  A    between atoms: C_2  and  C_3
REMARK    3  A    between atoms: C_3  and  N_4
REMARK    4  A    between atoms: N_4  and  C_5
REMARK                            x       y       z     vdW  Elec       q    Type
REMARK                         _______ _______ _______ _____ _____    ______ ____
ROOT
ATOM      1  C   UNL     1      -6.822  -2.860 128.965  0.00  0.00    +0.000 C 
ATOM      2  C   UNL     1      -8.328  -3.182 129.156  0.00  0.00    +0.000 C 
ATOM      3  C   UNL     1      -8.924  -3.908 127.954  0.00  0.00    +0.000 C 
ATOM      4  C   UNL     1      -8.574  -3.218 126.693  0.00  0.00    +0.000 A 
ATOM      5  C   UNL     1      -7.519  -2.334 126.585  0.00  0.00    +0.000 A 
ATOM      6  C   UNL     1      -6.622  -1.906 127.733  0.00  0.00    +0.000 C 
ATOM      7  S   UNL     1      -7.436  -1.778 124.969  0.00  0.00    +0.000 S 
ATOM      8  C   UNL     1      -8.801  -2.760 124.553  0.00  0.00    +0.000 A 
ATOM      9  N   UNL     1      -9.326  -2.816 123.324  0.00  0.00    +0.000 N 
ATOM     10  N   UNL     1      -9.296  -3.458 125.548  0.00  0.00    +0.000 NA
ATOM     11  H   UNL     1      -8.964  -2.298 122.536  0.00  0.00    +0.000 HD
ATOM     12  H   UNL     1     -10.124  -3.419 123.158  0.00  0.00    +0.000 HD
ENDROOT
BRANCH   1  13
ATOM     13  N   UNL     1      -6.328  -2.511 130.307  0.00  0.00    +0.000 NA
ATOM     14  H   UNL     1      -6.664  -1.590 130.585  0.00  0.00    +0.000 HD
BRANCH  13  15
ATOM     15  C   UNL     1      -4.922  -2.610 130.645  0.00  0.00    +0.000 C 
BRANCH  15  17
ATOM     16  C   UNL     1      -3.145  -3.672 129.169  0.00  0.00    +0.000 C 
ATOM     17  C   UNL     1      -4.398  -3.906 129.993  0.00  0.00    +0.000 C 
ENDBRANCH  15  17
ENDBRANCH  13  15
ENDBRANCH   1  13
TORSDOF 3
ENDMDL
MODEL 8
REMARK VINA RESULT:      -4.9      2.737      6.056
REMARK  Name = Pramipexole
REMARK  4 active torsions:
REMARK  status: ('A' for Active; 'I' for Inactive)
REMARK    1  A    between atoms: C_1  and  C_2
REMARK    2  A    between atoms: C_2  and  C_3
REMARK    3  A    between atoms: C_3  and  N_4
REMARK    4  A    between atoms: N_4  and  C_5
REMARK                            x       y       z     vdW  Elec       q    Type
REMARK                         _______ _______ _______ _____ _____    ______ ____
ROOT
ATOM      1  C   UNL     1     -11.111   5.410 130.118  0.00  0.00    +0.000 C 
ATOM      2  C   UNL     1     -11.216   6.180 131.461  0.00  0.00    +0.000 C 
ATOM      3  C   UNL     1      -9.912   6.152 132.252  0.00  0.00    +0.000 C 
ATOM      4  C   UNL     1      -9.381   4.774 132.346  0.00  0.00    +0.000 A 
ATOM      5  C   UNL     1      -9.757   3.760 131.487  0.00  0.00    +0.000 A 
ATOM      6  C   UNL     1     -10.792   3.895 130.383  0.00  0.00    +0.000 C 
ATOM      7  S   UNL     1      -8.904   2.339 131.912  0.00  0.00    +0.000 S 
ATOM      8  C   UNL     1      -8.108   3.192 133.193  0.00  0.00    +0.000 A 
ATOM      9  N   UNL     1      -7.213   2.629 134.013  0.00  0.00    +0.000 N 
ATOM     10  N   UNL     1      -8.451   4.453 133.307  0.00  0.00    +0.000 NA
ATOM     11  H   UNL     1      -6.922   1.665 133.947  0.00  0.00    +0.000 HD
ATOM     12  H   UNL     1      -6.786   3.196 134.737  0.00  0.00    +0.000 HD
ENDROOT
BRANCH   1  13
ATOM     13  N   UNL     1     -12.285   5.832 129.337  0.00  0.00    +0.000 NA
ATOM     14  H   UNL     1     -12.241   5.456 128.391  0.00  0.00    +0.000 HD
BRANCH  13  15
ATOM     15  C   UNL     1     -12.683   7.224 129.262  0.00  0.00    +0.000 C 
BRANCH  15  17
ATOM     16  C   UNL     1     -10.786   8.475 128.121  0.00  0.00    +0.000 C 
ATOM     17  C   UNL     1     -12.122   7.776 127.937  0.00  0.00    +0.000 C 
ENDBRANCH  15  17
ENDBRANCH  13  15
ENDBRANCH   1  13
TORSDOF 3
ENDMDL
MODEL 9
REMARK VINA RESULT:      -4.8      8.305      9.886
REMARK  Name = Pramipexole
REMARK  4 active torsions:
REMARK  status: ('A' for Active; 'I' for Inactive)
REMARK    1  A    between atoms: C_1  and  C_2
REMARK    2  A    between atoms: C_2  and  C_3
REMARK    3  A    between atoms: C_3  and  N_4
REMARK    4  A    between atoms: N_4  and  C_5
REMARK                            x       y       z     vdW  Elec       q    Type
REMARK                         _______ _______ _______ _____ _____    ______ ____
ROOT
ATOM      1  C   UNL     1      -6.763  -0.733 124.869  0.00  0.00    +0.000 C 
ATOM      2  C   UNL     1      -5.434  -0.369 125.582  0.00  0.00    +0.000 C 
ATOM      3  C   UNL     1      -5.516   0.964 126.320  0.00  0.00    +0.000 C 
ATOM      4  C   UNL     1      -6.081   2.017 125.447  0.00  0.00    +0.000 A 
ATOM      5  C   UNL     1      -6.824   1.741 124.317  0.00  0.00    +0.000 A 
ATOM      6  C   UNL     1      -7.112   0.348 123.784  0.00  0.00    +0.000 C 
ATOM      7  S   UNL     1      -7.311   3.220 123.608  0.00  0.00    +0.000 S 
ATOM      8  C   UNL     1      -6.499   4.097 124.863  0.00  0.00    +0.000 A 
ATOM      9  N   UNL     1      -6.471   5.432 124.936  0.00  0.00    +0.000 N 
ATOM     10  N   UNL     1      -5.899   3.344 125.755  0.00  0.00    +0.000 NA
ATOM     11  H   UNL     1      -6.930   6.039 124.271  0.00  0.00    +0.000 HD
ATOM     12  H   UNL     1      -5.979   5.872 125.704  0.00  0.00    +0.000 HD
ENDROOT
BRANCH   1  13
ATOM     13  N   UNL     1      -6.644  -2.161 124.534  0.00  0.00    +0.000 NA
ATOM     14  H   UNL     1      -7.429  -2.687 124.916  0.00  0.00    +0.000 HD
BRANCH  13  15
ATOM     15  C   UNL     1      -5.424  -2.900 124.793  0.00  0.00    +0.000 C 
BRANCH  15  17
ATOM     16  C   UNL     1      -4.206  -4.728 123.512  0.00  0.00    +0.000 C 
ATOM     17  C   UNL     1      -4.894  -3.377 123.426  0.00  0.00    +0.000 C 
ENDBRANCH  15  17
ENDBRANCH  13  15
ENDBRANCH   1  13
TORSDOF 3
ENDMDL
