MODEL 1
REMARK VINA RESULT:      -7.7      0.000      0.000
REMARK  Name = Prasugrel
REMARK  7 active torsions:
REMARK  status: ('A' for Active; 'I' for Inactive)
REMARK    1  A    between atoms: C_1  and  C_2
REMARK    2  A    between atoms: C_2  and  O_4
REMARK    3  A    between atoms: O_4  and  C_5
REMARK    4  A    between atoms: N_11  and  C_13
REMARK    5  A    between atoms: C_13  and  C_14
REMARK    6  A    between atoms: C_13  and  C_19
REMARK    7  A    between atoms: C_14  and  C_16
REMARK                            x       y       z     vdW  Elec       q    Type
REMARK                         _______ _______ _______ _____ _____    ______ ____
ROOT
ATOM      1  C   UNL     1      -3.788   3.789 126.764  0.00  0.00    +0.000 A 
ATOM      2  C   UNL     1      -3.905   2.432 126.530  0.00  0.00    +0.000 A 
ATOM      3  C   UNL     1      -5.202   2.054 126.070  0.00  0.00    +0.000 A 
ATOM      4  C   UNL     1      -6.023   3.142 125.953  0.00  0.00    +0.000 A 
ATOM      5  C   UNL     1      -7.440   3.018 125.555  0.00  0.00    +0.000 C 
ATOM      6  C   UNL     1      -7.669   1.617 124.961  0.00  0.00    +0.000 C 
ATOM      7  N   UNL     1      -7.132   0.499 125.784  0.00  0.00    +0.000 NA
ATOM      8  C   UNL     1      -5.657   0.658 125.792  0.00  0.00    +0.000 C 
ATOM      9  S   UNL     1      -5.250   4.596 126.319  0.00  0.00    +0.000 S 
ENDROOT
BRANCH   1  10
ATOM     10  O   UNL     1      -2.685   4.416 127.173  0.00  0.00    +0.000 OA
BRANCH  10  12
ATOM     11  C   UNL     1      -2.336   6.463 128.275  0.00  0.00    +0.000 C 
ATOM     12  C   UNL     1      -2.711   5.013 128.391  0.00  0.00    +0.000 C 
ATOM     13  O   UNL     1      -2.949   4.494 129.473  0.00  0.00    +0.000 OA
ENDBRANCH  10  12
ENDBRANCH   1  10
BRANCH   7  14
ATOM     14  C   UNL     1      -7.570  -0.888 125.284  0.00  0.00    +0.000 C 
BRANCH  14  15
ATOM     15  C   UNL     1      -7.769  -1.928 126.443  0.00  0.00    +0.000 A 
ATOM     16  C   UNL     1      -7.109  -1.846 127.682  0.00  0.00    +0.000 A 
ATOM     17  C   UNL     1      -7.364  -2.703 128.751  0.00  0.00    +0.000 A 
ATOM     18  C   UNL     1      -8.360  -3.652 128.648  0.00  0.00    +0.000 A 
ATOM     19  C   UNL     1      -9.014  -3.804 127.435  0.00  0.00    +0.000 A 
ATOM     20  C   UNL     1      -8.643  -3.024 126.334  0.00  0.00    +0.000 A 
ATOM     21  F   UNL     1      -9.196  -3.357 125.155  0.00  0.00    +0.000 F 
ENDBRANCH  14  15
BRANCH  14  22
ATOM     22  C   UNL     1      -6.544  -1.439 124.168  0.00  0.00    +0.000 C 
ATOM     23  O   UNL     1      -6.462  -1.065 122.999  0.00  0.00    +0.000 OA
BRANCH  22  24
ATOM     24  C   UNL     1      -5.535  -2.479 124.504  0.00  0.00    +0.000 C 
ATOM     25  C   UNL     1      -5.797  -3.922 124.128  0.00  0.00    +0.000 C 
ATOM     26  C   UNL     1      -4.705  -3.150 123.451  0.00  0.00    +0.000 C 
ENDBRANCH  22  24
ENDBRANCH  14  22
ENDBRANCH   7  14
TORSDOF 6
ENDMDL
MODEL 2
REMARK VINA RESULT:      -7.3      6.483      9.467
REMARK  Name = Prasugrel
REMARK  7 active torsions:
REMARK  status: ('A' for Active; 'I' for Inactive)
REMARK    1  A    between atoms: C_1  and  C_2
REMARK    2  A    between atoms: C_2  and  O_4
REMARK    3  A    between atoms: O_4  and  C_5
REMARK    4  A    between atoms: N_11  and  C_13
REMARK    5  A    between atoms: C_13  and  C_14
REMARK    6  A    between atoms: C_13  and  C_19
REMARK    7  A    between atoms: C_14  and  C_16
REMARK                            x       y       z     vdW  Elec       q    Type
REMARK                         _______ _______ _______ _____ _____    ______ ____
ROOT
ATOM      1  C   UNL     1     -10.654   5.872 130.601  0.00  0.00    +0.000 A 
ATOM      2  C   UNL     1      -9.586   5.472 129.819  0.00  0.00    +0.000 A 
ATOM      3  C   UNL     1      -8.358   5.400 130.542  0.00  0.00    +0.000 A 
ATOM      4  C   UNL     1      -8.538   5.734 131.857  0.00  0.00    +0.000 A 
ATOM      5  C   UNL     1      -7.412   5.802 132.811  0.00  0.00    +0.000 C 
ATOM      6  C   UNL     1      -6.193   5.095 132.193  0.00  0.00    +0.000 C 
ATOM      7  N   UNL     1      -5.879   5.506 130.797  0.00  0.00    +0.000 NA
ATOM      8  C   UNL     1      -7.023   5.062 129.964  0.00  0.00    +0.000 C 
ATOM      9  S   UNL     1     -10.147   6.062 132.243  0.00  0.00    +0.000 S 
ENDROOT
BRANCH   1  10
ATOM     10  O   UNL     1     -11.915   5.999 130.191  0.00  0.00    +0.000 OA
BRANCH  10  12
ATOM     11  C   UNL     1     -12.281   8.273 129.725  0.00  0.00    +0.000 C 
ATOM     12  C   UNL     1     -12.606   7.093 130.596  0.00  0.00    +0.000 C 
ATOM     13  O   UNL     1     -13.364   7.188 131.552  0.00  0.00    +0.000 OA
ENDBRANCH  10  12
ENDBRANCH   1  10
BRANCH   7  14
ATOM     14  C   UNL     1      -4.535   4.956 130.290  0.00  0.00    +0.000 C 
BRANCH  14  15
ATOM     15  C   UNL     1      -3.317   5.385 131.183  0.00  0.00    +0.000 A 
ATOM     16  C   UNL     1      -2.455   4.470 131.814  0.00  0.00    +0.000 A 
ATOM     17  C   UNL     1      -1.312   4.845 132.517  0.00  0.00    +0.000 A 
ATOM     18  C   UNL     1      -0.935   6.171 132.559  0.00  0.00    +0.000 A 
ATOM     19  C   UNL     1      -1.770   7.121 131.990  0.00  0.00    +0.000 A 
ATOM     20  C   UNL     1      -2.984   6.732 131.411  0.00  0.00    +0.000 A 
ATOM     21  F   UNL     1      -3.815   7.724 131.048  0.00  0.00    +0.000 F 
ENDBRANCH  14  15
BRANCH  14  22
ATOM     22  C   UNL     1      -4.303   5.359 128.746  0.00  0.00    +0.000 C 
ATOM     23  O   UNL     1      -4.407   6.483 128.258  0.00  0.00    +0.000 OA
BRANCH  22  24
ATOM     24  C   UNL     1      -3.886   4.341 127.744  0.00  0.00    +0.000 C 
ATOM     25  C   UNL     1      -2.440   3.895 127.691  0.00  0.00    +0.000 C 
ATOM     26  C   UNL     1      -3.509   2.945 128.140  0.00  0.00    +0.000 C 
ENDBRANCH  22  24
ENDBRANCH  14  22
ENDBRANCH   7  14
TORSDOF 6
ENDMDL
MODEL 3
REMARK VINA RESULT:      -7.3      6.339      8.939
REMARK  Name = Prasugrel
REMARK  7 active torsions:
REMARK  status: ('A' for Active; 'I' for Inactive)
REMARK    1  A    between atoms: C_1  and  C_2
REMARK    2  A    between atoms: C_2  and  O_4
REMARK    3  A    between atoms: O_4  and  C_5
REMARK    4  A    between atoms: N_11  and  C_13
REMARK    5  A    between atoms: C_13  and  C_14
REMARK    6  A    between atoms: C_13  and  C_19
REMARK    7  A    between atoms: C_14  and  C_16
REMARK                            x       y       z     vdW  Elec       q    Type
REMARK                         _______ _______ _______ _____ _____    ______ ____
ROOT
ATOM      1  C   UNL     1     -10.243   5.385 130.260  0.00  0.00    +0.000 A 
ATOM      2  C   UNL     1      -9.205   4.781 129.576  0.00  0.00    +0.000 A 
ATOM      3  C   UNL     1      -7.925   5.057 130.142  0.00  0.00    +0.000 A 
ATOM      4  C   UNL     1      -8.035   5.851 131.251  0.00  0.00    +0.000 A 
ATOM      5  C   UNL     1      -6.852   6.337 131.989  0.00  0.00    +0.000 C 
ATOM      6  C   UNL     1      -5.622   5.520 131.554  0.00  0.00    +0.000 C 
ATOM      7  N   UNL     1      -5.453   5.392 130.080  0.00  0.00    +0.000 NA
ATOM      8  C   UNL     1      -6.611   4.603 129.594  0.00  0.00    +0.000 C 
ATOM      9  S   UNL     1      -9.633   6.208 131.653  0.00  0.00    +0.000 S 
ENDROOT
BRANCH   1  10
ATOM     10  O   UNL     1     -11.538   5.276 129.966  0.00  0.00    +0.000 OA
BRANCH  10  12
ATOM     11  C   UNL     1     -12.938   7.148 130.213  0.00  0.00    +0.000 C 
ATOM     12  C   UNL     1     -12.121   6.294 129.286  0.00  0.00    +0.000 C 
ATOM     13  O   UNL     1     -12.070   6.515 128.083  0.00  0.00    +0.000 OA
ENDBRANCH  10  12
ENDBRANCH   1  10
BRANCH   7  14
ATOM     14  C   UNL     1      -4.106   4.769 129.676  0.00  0.00    +0.000 C 
BRANCH  14  15
ATOM     15  C   UNL     1      -2.945   5.109 130.677  0.00  0.00    +0.000 A 
ATOM     16  C   UNL     1      -2.153   6.267 130.584  0.00  0.00    +0.000 A 
ATOM     17  C   UNL     1      -1.195   6.625 131.531  0.00  0.00    +0.000 A 
ATOM     18  C   UNL     1      -1.036   5.863 132.669  0.00  0.00    +0.000 A 
ATOM     19  C   UNL     1      -1.761   4.687 132.792  0.00  0.00    +0.000 A 
ATOM     20  C   UNL     1      -2.615   4.277 131.762  0.00  0.00    +0.000 A 
ATOM     21  F   UNL     1      -3.138   3.045 131.877  0.00  0.00    +0.000 F 
ENDBRANCH  14  15
BRANCH  14  22
ATOM     22  C   UNL     1      -3.721   5.181 128.166  0.00  0.00    +0.000 C 
ATOM     23  O   UNL     1      -4.259   6.052 127.483  0.00  0.00    +0.000 OA
BRANCH  22  24
ATOM     24  C   UNL     1      -2.593   4.520 127.456  0.00  0.00    +0.000 C 
ATOM     25  C   UNL     1      -2.471   3.012 127.490  0.00  0.00    +0.000 C 
ATOM     26  C   UNL     1      -2.801   3.716 126.208  0.00  0.00    +0.000 C 
ENDBRANCH  22  24
ENDBRANCH  14  22
ENDBRANCH   7  14
TORSDOF 6
ENDMDL
MODEL 4
REMARK VINA RESULT:      -7.3      4.308      6.507
REMARK  Name = Prasugrel
REMARK  7 active torsions:
REMARK  status: ('A' for Active; 'I' for Inactive)
REMARK    1  A    between atoms: C_1  and  C_2
REMARK    2  A    between atoms: C_2  and  O_4
REMARK    3  A    between atoms: O_4  and  C_5
REMARK    4  A    between atoms: N_11  and  C_13
REMARK    5  A    between atoms: C_13  and  C_14
REMARK    6  A    between atoms: C_13  and  C_19
REMARK    7  A    between atoms: C_14  and  C_16
REMARK                            x       y       z     vdW  Elec       q    Type
REMARK                         _______ _______ _______ _____ _____    ______ ____
ROOT
ATOM      1  C   UNL     1      -6.417   3.892 121.065  0.00  0.00    +0.000 A 
ATOM      2  C   UNL     1      -5.612   3.772 122.183  0.00  0.00    +0.000 A 
ATOM      3  C   UNL     1      -6.333   3.389 123.353  0.00  0.00    +0.000 A 
ATOM      4  C   UNL     1      -7.663   3.214 123.081  0.00  0.00    +0.000 A 
ATOM      5  C   UNL     1      -8.642   2.877 124.134  0.00  0.00    +0.000 C 
ATOM      6  C   UNL     1      -7.883   2.407 125.388  0.00  0.00    +0.000 C 
ATOM      7  N   UNL     1      -6.768   3.298 125.809  0.00  0.00    +0.000 NA
ATOM      8  C   UNL     1      -5.757   3.241 124.724  0.00  0.00    +0.000 C 
ATOM      9  S   UNL     1      -8.039   3.434 121.452  0.00  0.00    +0.000 S 
ENDROOT
BRANCH   1  10
ATOM     10  O   UNL     1      -6.005   4.210 119.839  0.00  0.00    +0.000 OA
BRANCH  10  12
ATOM     11  C   UNL     1      -5.922   6.014 118.334  0.00  0.00    +0.000 C 
ATOM     12  C   UNL     1      -5.474   5.444 119.649  0.00  0.00    +0.000 C 
ATOM     13  O   UNL     1      -4.698   6.044 120.381  0.00  0.00    +0.000 OA
ENDBRANCH  10  12
ENDBRANCH   1  10
BRANCH   7  14
ATOM     14  C   UNL     1      -6.179   2.926 127.180  0.00  0.00    +0.000 C 
BRANCH  14  15
ATOM     15  C   UNL     1      -7.275   2.702 128.281  0.00  0.00    +0.000 A 
ATOM     16  C   UNL     1      -7.445   1.490 128.974  0.00  0.00    +0.000 A 
ATOM     17  C   UNL     1      -8.344   1.321 130.025  0.00  0.00    +0.000 A 
ATOM     18  C   UNL     1      -9.073   2.397 130.485  0.00  0.00    +0.000 A 
ATOM     19  C   UNL     1      -8.976   3.605 129.813  0.00  0.00    +0.000 A 
ATOM     20  C   UNL     1      -8.171   3.713 128.672  0.00  0.00    +0.000 A 
ATOM     21  F   UNL     1      -8.274   4.858 127.977  0.00  0.00    +0.000 F 
ENDBRANCH  14  15
BRANCH  14  22
ATOM     22  C   UNL     1      -5.092   4.022 127.646  0.00  0.00    +0.000 C 
ATOM     23  O   UNL     1      -5.242   5.243 127.663  0.00  0.00    +0.000 OA
BRANCH  22  24
ATOM     24  C   UNL     1      -3.757   3.607 128.155  0.00  0.00    +0.000 C 
ATOM     25  C   UNL     1      -2.727   3.061 127.190  0.00  0.00    +0.000 C 
ATOM     26  C   UNL     1      -2.514   4.389 127.852  0.00  0.00    +0.000 C 
ENDBRANCH  22  24
ENDBRANCH  14  22
ENDBRANCH   7  14
TORSDOF 6
ENDMDL
MODEL 5
REMARK VINA RESULT:      -7.0      3.798      5.188
REMARK  Name = Prasugrel
REMARK  7 active torsions:
REMARK  status: ('A' for Active; 'I' for Inactive)
REMARK    1  A    between atoms: C_1  and  C_2
REMARK    2  A    between atoms: C_2  and  O_4
REMARK    3  A    between atoms: O_4  and  C_5
REMARK    4  A    between atoms: N_11  and  C_13
REMARK    5  A    between atoms: C_13  and  C_14
REMARK    6  A    between atoms: C_13  and  C_19
REMARK    7  A    between atoms: C_14  and  C_16
REMARK                            x       y       z     vdW  Elec       q    Type
REMARK                         _______ _______ _______ _____ _____    ______ ____
ROOT
ATOM      1  C   UNL     1      -9.003   3.430 130.104  0.00  0.00    +0.000 A 
ATOM      2  C   UNL     1      -8.751   2.074 129.997  0.00  0.00    +0.000 A 
ATOM      3  C   UNL     1      -7.856   1.754 128.933  0.00  0.00    +0.000 A 
ATOM      4  C   UNL     1      -7.443   2.881 128.277  0.00  0.00    +0.000 A 
ATOM      5  C   UNL     1      -6.561   2.822 127.094  0.00  0.00    +0.000 C 
ATOM      6  C   UNL     1      -5.934   1.419 127.010  0.00  0.00    +0.000 C 
ATOM      7  N   UNL     1      -6.903   0.297 127.145  0.00  0.00    +0.000 NA
ATOM      8  C   UNL     1      -7.443   0.377 128.525  0.00  0.00    +0.000 C 
ATOM      9  S   UNL     1      -8.053   4.301 128.952  0.00  0.00    +0.000 S 
ENDROOT
BRANCH   1  10
ATOM     10  O   UNL     1      -9.778   4.008 131.021  0.00  0.00    +0.000 OA
BRANCH  10  12
ATOM     11  C   UNL     1     -10.464   6.237 131.310  0.00  0.00    +0.000 C 
ATOM     12  C   UNL     1     -10.677   4.931 130.599  0.00  0.00    +0.000 C 
ATOM     13  O   UNL     1     -11.586   4.776 129.794  0.00  0.00    +0.000 OA
ENDBRANCH  10  12
ENDBRANCH   1  10
BRANCH   7  14
ATOM     14  C   UNL     1      -6.288  -1.077 126.834  0.00  0.00    +0.000 C 
BRANCH  14  15
ATOM     15  C   UNL     1      -6.354  -1.451 125.310  0.00  0.00    +0.000 A 
ATOM     16  C   UNL     1      -7.169  -0.783 124.380  0.00  0.00    +0.000 A 
ATOM     17  C   UNL     1      -7.149  -1.040 123.011  0.00  0.00    +0.000 A 
ATOM     18  C   UNL     1      -6.244  -1.943 122.495  0.00  0.00    +0.000 A 
ATOM     19  C   UNL     1      -5.445  -2.661 123.371  0.00  0.00    +0.000 A 
ATOM     20  C   UNL     1      -5.582  -2.486 124.753  0.00  0.00    +0.000 A 
ATOM     21  F   UNL     1      -4.905  -3.345 125.532  0.00  0.00    +0.000 F 
ENDBRANCH  14  15
BRANCH  14  22
ATOM     22  C   UNL     1      -6.962  -2.221 127.750  0.00  0.00    +0.000 C 
ATOM     23  O   UNL     1      -6.424  -2.833 128.672  0.00  0.00    +0.000 OA
BRANCH  22  24
ATOM     24  C   UNL     1      -8.383  -2.617 127.557  0.00  0.00    +0.000 C 
ATOM     25  C   UNL     1      -8.736  -3.637 126.496  0.00  0.00    +0.000 C 
ATOM     26  C   UNL     1      -8.889  -3.973 127.948  0.00  0.00    +0.000 C 
ENDBRANCH  22  24
ENDBRANCH  14  22
ENDBRANCH   7  14
TORSDOF 6
ENDMDL
MODEL 6
REMARK VINA RESULT:      -6.9      6.637      8.939
REMARK  Name = Prasugrel
REMARK  7 active torsions:
REMARK  status: ('A' for Active; 'I' for Inactive)
REMARK    1  A    between atoms: C_1  and  C_2
REMARK    2  A    between atoms: C_2  and  O_4
REMARK    3  A    between atoms: O_4  and  C_5
REMARK    4  A    between atoms: N_11  and  C_13
REMARK    5  A    between atoms: C_13  and  C_14
REMARK    6  A    between atoms: C_13  and  C_19
REMARK    7  A    between atoms: C_14  and  C_16
REMARK                            x       y       z     vdW  Elec       q    Type
REMARK                         _______ _______ _______ _____ _____    ______ ____
ROOT
ATOM      1  C   UNL     1      -3.330   6.325 130.323  0.00  0.00    +0.000 A 
ATOM      2  C   UNL     1      -4.491   6.627 131.010  0.00  0.00    +0.000 A 
ATOM      3  C   UNL     1      -5.627   5.907 130.534  0.00  0.00    +0.000 A 
ATOM      4  C   UNL     1      -5.286   5.066 129.510  0.00  0.00    +0.000 A 
ATOM      5  C   UNL     1      -6.290   4.251 128.796  0.00  0.00    +0.000 C 
ATOM      6  C   UNL     1      -7.590   4.228 129.620  0.00  0.00    +0.000 C 
ATOM      7  N   UNL     1      -8.056   5.564 130.080  0.00  0.00    +0.000 NA
ATOM      8  C   UNL     1      -7.028   6.061 131.028  0.00  0.00    +0.000 C 
ATOM      9  S   UNL     1      -3.636   5.081 129.162  0.00  0.00    +0.000 S 
ENDROOT
BRANCH   1  10
ATOM     10  O   UNL     1      -2.122   6.830 130.574  0.00  0.00    +0.000 OA
BRANCH  10  12
ATOM     11  C   UNL     1      -1.440   7.707 132.645  0.00  0.00    +0.000 C 
ATOM     12  C   UNL     1      -1.531   6.504 131.750  0.00  0.00    +0.000 C 
ATOM     13  O   UNL     1      -1.073   5.418 132.081  0.00  0.00    +0.000 OA
ENDBRANCH  10  12
ENDBRANCH   1  10
BRANCH   7  14
ATOM     14  C   UNL     1      -9.463   5.535 130.701  0.00  0.00    +0.000 C 
BRANCH  14  15
ATOM     15  C   UNL     1     -10.390   6.691 130.182  0.00  0.00    +0.000 A 
ATOM     16  C   UNL     1      -9.982   7.651 129.239  0.00  0.00    +0.000 A 
ATOM     17  C   UNL     1     -10.833   8.611 128.696  0.00  0.00    +0.000 A 
ATOM     18  C   UNL     1     -12.172   8.606 129.025  0.00  0.00    +0.000 A 
ATOM     19  C   UNL     1     -12.621   7.708 129.981  0.00  0.00    +0.000 A 
ATOM     20  C   UNL     1     -11.718   6.846 130.615  0.00  0.00    +0.000 A 
ATOM     21  F   UNL     1     -12.198   6.140 131.653  0.00  0.00    +0.000 F 
ENDBRANCH  14  15
BRANCH  14  22
ATOM     22  C   UNL     1      -9.372   5.531 132.311  0.00  0.00    +0.000 C 
ATOM     23  O   UNL     1      -9.296   6.516 133.043  0.00  0.00    +0.000 OA
BRANCH  22  24
ATOM     24  C   UNL     1      -9.412   4.256 133.076  0.00  0.00    +0.000 C 
ATOM     25  C   UNL     1      -8.160   3.413 133.187  0.00  0.00    +0.000 C 
ATOM     26  C   UNL     1      -8.719   4.100 134.396  0.00  0.00    +0.000 C 
ENDBRANCH  22  24
ENDBRANCH  14  22
ENDBRANCH   7  14
TORSDOF 6
ENDMDL
MODEL 7
REMARK VINA RESULT:      -6.9      7.850     10.323
REMARK  Name = Prasugrel
REMARK  7 active torsions:
REMARK  status: ('A' for Active; 'I' for Inactive)
REMARK    1  A    between atoms: C_1  and  C_2
REMARK    2  A    between atoms: C_2  and  O_4
REMARK    3  A    between atoms: O_4  and  C_5
REMARK    4  A    between atoms: N_11  and  C_13
REMARK    5  A    between atoms: C_13  and  C_14
REMARK    6  A    between atoms: C_13  and  C_19
REMARK    7  A    between atoms: C_14  and  C_16
REMARK                            x       y       z     vdW  Elec       q    Type
REMARK                         _______ _______ _______ _____ _____    ______ ____
ROOT
ATOM      1  C   UNL     1      -9.524   6.838 131.105  0.00  0.00    +0.000 A 
ATOM      2  C   UNL     1      -8.245   6.850 130.581  0.00  0.00    +0.000 A 
ATOM      3  C   UNL     1      -7.295   6.179 131.408  0.00  0.00    +0.000 A 
ATOM      4  C   UNL     1      -7.889   5.664 132.528  0.00  0.00    +0.000 A 
ATOM      5  C   UNL     1      -7.116   4.976 133.582  0.00  0.00    +0.000 C 
ATOM      6  C   UNL     1      -5.723   4.627 133.029  0.00  0.00    +0.000 C 
ATOM      7  N   UNL     1      -5.025   5.754 132.352  0.00  0.00    +0.000 NA
ATOM      8  C   UNL     1      -5.828   6.078 131.147  0.00  0.00    +0.000 C 
ATOM      9  S   UNL     1      -9.557   5.913 132.566  0.00  0.00    +0.000 S 
ENDROOT
BRANCH   1  10
ATOM     10  O   UNL     1     -10.606   7.365 130.532  0.00  0.00    +0.000 OA
BRANCH  10  12
ATOM     11  C   UNL     1     -10.647   8.376 128.411  0.00  0.00    +0.000 C 
ATOM     12  C   UNL     1     -10.808   7.117 129.215  0.00  0.00    +0.000 C 
ATOM     13  O   UNL     1     -11.126   6.057 128.693  0.00  0.00    +0.000 OA
ENDBRANCH  10  12
ENDBRANCH   1  10
BRANCH   7  14
ATOM     14  C   UNL     1      -3.557   5.442 132.013  0.00  0.00    +0.000 C 
BRANCH  14  15
ATOM     15  C   UNL     1      -2.588   6.641 132.310  0.00  0.00    +0.000 A 
ATOM     16  C   UNL     1      -3.011   7.979 132.400  0.00  0.00    +0.000 A 
ATOM     17  C   UNL     1      -2.175   9.030 132.770  0.00  0.00    +0.000 A 
ATOM     18  C   UNL     1      -0.872   8.773 133.142  0.00  0.00    +0.000 A 
ATOM     19  C   UNL     1      -0.390   7.478 133.032  0.00  0.00    +0.000 A 
ATOM     20  C   UNL     1      -1.210   6.463 132.525  0.00  0.00    +0.000 A 
ATOM     21  F   UNL     1      -0.615   5.284 132.281  0.00  0.00    +0.000 F 
ENDBRANCH  14  15
BRANCH  14  22
ATOM     22  C   UNL     1      -3.421   4.939 130.487  0.00  0.00    +0.000 C 
ATOM     23  O   UNL     1      -3.431   3.774 130.096  0.00  0.00    +0.000 OA
BRANCH  22  24
ATOM     24  C   UNL     1      -3.303   5.913 129.369  0.00  0.00    +0.000 C 
ATOM     25  C   UNL     1      -1.937   6.420 128.961  0.00  0.00    +0.000 C 
ATOM     26  C   UNL     1      -2.719   5.531 128.042  0.00  0.00    +0.000 C 
ENDBRANCH  22  24
ENDBRANCH  14  22
ENDBRANCH   7  14
TORSDOF 6
ENDMDL
MODEL 8
REMARK VINA RESULT:      -6.8      4.363      5.631
REMARK  Name = Prasugrel
REMARK  7 active torsions:
REMARK  status: ('A' for Active; 'I' for Inactive)
REMARK    1  A    between atoms: C_1  and  C_2
REMARK    2  A    between atoms: C_2  and  O_4
REMARK    3  A    between atoms: O_4  and  C_5
REMARK    4  A    between atoms: N_11  and  C_13
REMARK    5  A    between atoms: C_13  and  C_14
REMARK    6  A    between atoms: C_13  and  C_19
REMARK    7  A    between atoms: C_14  and  C_16
REMARK                            x       y       z     vdW  Elec       q    Type
REMARK                         _______ _______ _______ _____ _____    ______ ____
ROOT
ATOM      1  C   UNL     1      -8.824   3.658 130.327  0.00  0.00    +0.000 A 
ATOM      2  C   UNL     1      -9.033   2.328 130.013  0.00  0.00    +0.000 A 
ATOM      3  C   UNL     1      -7.876   1.518 130.210  0.00  0.00    +0.000 A 
ATOM      4  C   UNL     1      -6.827   2.259 130.683  0.00  0.00    +0.000 A 
ATOM      5  C   UNL     1      -5.491   1.672 130.912  0.00  0.00    +0.000 C 
ATOM      6  C   UNL     1      -5.613   0.138 130.905  0.00  0.00    +0.000 C 
ATOM      7  N   UNL     1      -6.371  -0.419 129.752  0.00  0.00    +0.000 NA
ATOM      8  C   UNL     1      -7.767   0.060 129.900  0.00  0.00    +0.000 C 
ATOM      9  S   UNL     1      -7.228   3.874 130.954  0.00  0.00    +0.000 S 
ENDROOT
BRANCH   1  10
ATOM     10  O   UNL     1      -9.737   4.626 130.261  0.00  0.00    +0.000 OA
BRANCH  10  12
ATOM     11  C   UNL     1      -9.407   6.951 130.358  0.00  0.00    +0.000 C 
ATOM     12  C   UNL     1      -9.452   5.716 129.506  0.00  0.00    +0.000 C 
ATOM     13  O   UNL     1      -9.290   5.763 128.293  0.00  0.00    +0.000 OA
ENDBRANCH  10  12
ENDBRANCH   1  10
BRANCH   7  14
ATOM     14  C   UNL     1      -6.283  -1.951 129.652  0.00  0.00    +0.000 C 
BRANCH  14  15
ATOM     15  C   UNL     1      -7.207  -2.550 128.532  0.00  0.00    +0.000 A 
ATOM     16  C   UNL     1      -8.240  -3.469 128.786  0.00  0.00    +0.000 A 
ATOM     17  C   UNL     1      -9.130  -3.919 127.813  0.00  0.00    +0.000 A 
ATOM     18  C   UNL     1      -9.067  -3.404 126.535  0.00  0.00    +0.000 A 
ATOM     19  C   UNL     1      -8.042  -2.526 126.218  0.00  0.00    +0.000 A 
ATOM     20  C   UNL     1      -7.077  -2.198 127.178  0.00  0.00    +0.000 A 
ATOM     21  F   UNL     1      -6.021  -1.490 126.741  0.00  0.00    +0.000 F 
ENDBRANCH  14  15
BRANCH  14  22
ATOM     22  C   UNL     1      -6.578  -2.631 131.084  0.00  0.00    +0.000 C 
ATOM     23  O   UNL     1      -7.548  -2.421 131.810  0.00  0.00    +0.000 OA
BRANCH  22  24
ATOM     24  C   UNL     1      -5.656  -3.653 131.651  0.00  0.00    +0.000 C 
ATOM     25  C   UNL     1      -5.547  -5.009 130.987  0.00  0.00    +0.000 C 
ATOM     26  C   UNL     1      -4.392  -4.055 130.953  0.00  0.00    +0.000 C 
ENDBRANCH  22  24
ENDBRANCH  14  22
ENDBRANCH   7  14
TORSDOF 6
ENDMDL
MODEL 9
REMARK VINA RESULT:      -6.7      7.094     10.106
REMARK  Name = Prasugrel
REMARK  7 active torsions:
REMARK  status: ('A' for Active; 'I' for Inactive)
REMARK    1  A    between atoms: C_1  and  C_2
REMARK    2  A    between atoms: C_2  and  O_4
REMARK    3  A    between atoms: O_4  and  C_5
REMARK    4  A    between atoms: N_11  and  C_13
REMARK    5  A    between atoms: C_13  and  C_14
REMARK    6  A    between atoms: C_13  and  C_19
REMARK    7  A    between atoms: C_14  and  C_16
REMARK                            x       y       z     vdW  Elec       q    Type
REMARK                         _______ _______ _______ _____ _____    ______ ____
ROOT
ATOM      1  C   UNL     1      -9.752   6.221 132.009  0.00  0.00    +0.000 A 
ATOM      2  C   UNL     1      -8.822   6.634 131.073  0.00  0.00    +0.000 A 
ATOM      3  C   UNL     1      -7.474   6.427 131.495  0.00  0.00    +0.000 A 
ATOM      4  C   UNL     1      -7.426   5.848 132.733  0.00  0.00    +0.000 A 
ATOM      5  C   UNL     1      -6.149   5.584 133.428  0.00  0.00    +0.000 C 
ATOM      6  C   UNL     1      -4.998   5.699 132.413  0.00  0.00    +0.000 C 
ATOM      7  N   UNL     1      -5.031   6.928 131.574  0.00  0.00    +0.000 NA
ATOM      8  C   UNL     1      -6.251   6.827 130.736  0.00  0.00    +0.000 C 
ATOM      9  S   UNL     1      -8.952   5.492 133.358  0.00  0.00    +0.000 S 
ENDROOT
BRANCH   1  10
ATOM     10  O   UNL     1     -11.076   6.273 131.867  0.00  0.00    +0.000 OA
BRANCH  10  12
ATOM     11  C   UNL     1     -12.410   7.112 130.123  0.00  0.00    +0.000 C 
ATOM     12  C   UNL     1     -11.594   5.967 130.651  0.00  0.00    +0.000 C 
ATOM     13  O   UNL     1     -11.491   4.912 130.039  0.00  0.00    +0.000 OA
ENDBRANCH  10  12
ENDBRANCH   1  10
BRANCH   7  14
ATOM     14  C   UNL     1      -3.757   7.124 130.735  0.00  0.00    +0.000 C 
BRANCH  14  15
ATOM     15  C   UNL     1      -3.412   5.883 129.838  0.00  0.00    +0.000 A 
ATOM     16  C   UNL     1      -3.768   4.563 130.167  0.00  0.00    +0.000 A 
ATOM     17  C   UNL     1      -3.559   3.474 129.323  0.00  0.00    +0.000 A 
ATOM     18  C   UNL     1      -3.041   3.673 128.060  0.00  0.00    +0.000 A 
ATOM     19  C   UNL     1      -2.634   4.948 127.699  0.00  0.00    +0.000 A 
ATOM     20  C   UNL     1      -2.725   6.001 128.617  0.00  0.00    +0.000 A 
ATOM     21  F   UNL     1      -2.144   7.158 128.255  0.00  0.00    +0.000 F 
ENDBRANCH  14  15
BRANCH  14  22
ATOM     22  C   UNL     1      -2.515   7.532 131.679  0.00  0.00    +0.000 C 
ATOM     23  O   UNL     1      -2.455   8.501 132.434  0.00  0.00    +0.000 OA
BRANCH  22  24
ATOM     24  C   UNL     1      -1.288   6.693 131.734  0.00  0.00    +0.000 C 
ATOM     25  C   UNL     1      -0.396   6.753 132.956  0.00  0.00    +0.000 C 
ATOM     26  C   UNL     1      -1.175   5.510 132.648  0.00  0.00    +0.000 C 
ENDBRANCH  22  24
ENDBRANCH  14  22
ENDBRANCH   7  14
TORSDOF 6
ENDMDL
