MODEL 1
REMARK VINA RESULT:      -7.7      0.000      0.000
REMARK  Name = Prasterone enantate
REMARK  10 active torsions:
REMARK  status: ('A' for Active; 'I' for Inactive)
REMARK    1  A    between atoms: C_7  and  C_8
REMARK    2  A    between atoms: C_19  and  O_24
REMARK    3  A    between atoms: C_22  and  C_23
REMARK    4  A    between atoms: O_24  and  C_25
REMARK    5  A    between atoms: C_25  and  C_27
REMARK    6  A    between atoms: C_27  and  C_28
REMARK    7  A    between atoms: C_28  and  C_29
REMARK    8  A    between atoms: C_29  and  C_30
REMARK    9  A    between atoms: C_30  and  C_31
REMARK   10  A    between atoms: C_31  and  C_32
REMARK                            x       y       z     vdW  Elec       q    Type
REMARK                         _______ _______ _______ _____ _____    ______ ____
ROOT
ATOM      1  C   UNL     1      -8.746  -2.442 125.552  0.00  0.00    +0.000 C 
ATOM      2  C   UNL     1      -8.909  -3.676 124.672  0.00  0.00    +0.000 C 
ATOM      3  C   UNL     1      -9.469  -3.089 123.363  0.00  0.00    +0.000 C 
ATOM      4  C   UNL     1      -8.988  -1.649 123.391  0.00  0.00    +0.000 C 
ATOM      5  O   UNL     1      -9.227  -0.828 122.517  0.00  0.00    +0.000 OA
ATOM      6  C   UNL     1      -8.137  -1.382 124.615  0.00  0.00    +0.000 C 
ATOM      7  C   UNL     1      -6.682  -1.640 124.191  0.00  0.00    +0.000 C 
ATOM      8  C   UNL     1      -8.305  -0.012 125.260  0.00  0.00    +0.000 C 
ATOM      9  C   UNL     1      -7.649   0.010 126.645  0.00  0.00    +0.000 C 
ATOM     10  C   UNL     1      -8.122  -1.135 127.579  0.00  0.00    +0.000 C 
ATOM     11  C   UNL     1      -8.005  -2.528 126.893  0.00  0.00    +0.000 C 
ATOM     12  C   UNL     1      -8.612  -3.619 127.785  0.00  0.00    +0.000 C 
ATOM     13  C   UNL     1      -8.277  -3.478 129.236  0.00  0.00    +0.000 C 
ATOM     14  C   UNL     1      -7.753  -2.373 129.795  0.00  0.00    +0.000 C 
ATOM     15  C   UNL     1      -7.445  -2.334 131.278  0.00  0.00    +0.000 C 
ATOM     16  C   UNL     1      -8.029  -1.089 131.950  0.00  0.00    +0.000 C 
ATOM     17  C   UNL     1      -7.597   0.182 131.227  0.00  0.00    +0.000 C 
ATOM     18  C   UNL     1      -8.035   0.117 129.769  0.00  0.00    +0.000 C 
ATOM     19  C   UNL     1      -7.446  -1.101 128.998  0.00  0.00    +0.000 C 
ATOM     20  C   UNL     1      -5.911  -0.972 128.883  0.00  0.00    +0.000 C 
ENDROOT
BRANCH  16  21
ATOM     21  O   UNL     1      -7.532  -1.024 133.302  0.00  0.00    +0.000 OA
BRANCH  21  22
ATOM     22  C   UNL     1      -6.336  -0.495 133.651  0.00  0.00    +0.000 C 
ATOM     23  O   UNL     1      -6.288   0.609 134.190  0.00  0.00    +0.000 OA
BRANCH  22  24
ATOM     24  C   UNL     1      -5.100  -1.309 133.348  0.00  0.00    +0.000 C 
BRANCH  24  25
ATOM     25  C   UNL     1      -4.213  -0.593 132.335  0.00  0.00    +0.000 C 
BRANCH  25  26
ATOM     26  C   UNL     1      -3.450  -1.587 131.469  0.00  0.00    +0.000 C 
BRANCH  26  27
ATOM     27  C   UNL     1      -3.882  -3.011 131.797  0.00  0.00    +0.000 C 
BRANCH  27  28
ATOM     28  C   UNL     1      -4.186  -3.791 130.524  0.00  0.00    +0.000 C 
ATOM     29  C   UNL     1      -3.185  -3.446 129.437  0.00  0.00    +0.000 C 
ENDBRANCH  27  28
ENDBRANCH  26  27
ENDBRANCH  25  26
ENDBRANCH  24  25
ENDBRANCH  22  24
ENDBRANCH  21  22
ENDBRANCH  16  21
TORSDOF 7
ENDMDL
MODEL 2
REMARK VINA RESULT:      -7.5      1.886      2.465
REMARK  Name = Prasterone enantate
REMARK  10 active torsions:
REMARK  status: ('A' for Active; 'I' for Inactive)
REMARK    1  A    between atoms: C_7  and  C_8
REMARK    2  A    between atoms: C_19  and  O_24
REMARK    3  A    between atoms: C_22  and  C_23
REMARK    4  A    between atoms: O_24  and  C_25
REMARK    5  A    between atoms: C_25  and  C_27
REMARK    6  A    between atoms: C_27  and  C_28
REMARK    7  A    between atoms: C_28  and  C_29
REMARK    8  A    between atoms: C_29  and  C_30
REMARK    9  A    between atoms: C_30  and  C_31
REMARK   10  A    between atoms: C_31  and  C_32
REMARK                            x       y       z     vdW  Elec       q    Type
REMARK                         _______ _______ _______ _____ _____    ______ ____
ROOT
ATOM      1  C   UNL     1      -7.750  -2.480 125.480  0.00  0.00    +0.000 C 
ATOM      2  C   UNL     1      -8.586  -3.336 124.535  0.00  0.00    +0.000 C 
ATOM      3  C   UNL     1      -8.496  -2.564 123.206  0.00  0.00    +0.000 C 
ATOM      4  C   UNL     1      -7.202  -1.781 123.343  0.00  0.00    +0.000 C 
ATOM      5  O   UNL     1      -6.762  -1.027 122.488  0.00  0.00    +0.000 OA
ATOM      6  C   UNL     1      -6.509  -2.097 124.652  0.00  0.00    +0.000 C 
ATOM      7  C   UNL     1      -5.537  -3.250 124.357  0.00  0.00    +0.000 C 
ATOM      8  C   UNL     1      -5.812  -0.928 125.339  0.00  0.00    +0.000 C 
ATOM      9  C   UNL     1      -5.442  -1.300 126.779  0.00  0.00    +0.000 C 
ATOM     10  C   UNL     1      -6.636  -1.836 127.613  0.00  0.00    +0.000 C 
ATOM     11  C   UNL     1      -7.382  -2.988 126.881  0.00  0.00    +0.000 C 
ATOM     12  C   UNL     1      -8.637  -3.398 127.662  0.00  0.00    +0.000 C 
ATOM     13  C   UNL     1      -8.439  -3.468 129.143  0.00  0.00    +0.000 C 
ATOM     14  C   UNL     1      -7.383  -2.954 129.797  0.00  0.00    +0.000 C 
ATOM     15  C   UNL     1      -7.274  -3.081 131.303  0.00  0.00    +0.000 C 
ATOM     16  C   UNL     1      -6.975  -1.737 131.971  0.00  0.00    +0.000 C 
ATOM     17  C   UNL     1      -5.751  -1.073 131.349  0.00  0.00    +0.000 C 
ATOM     18  C   UNL     1      -5.978  -0.879 129.854  0.00  0.00    +0.000 C 
ATOM     19  C   UNL     1      -6.246  -2.209 129.089  0.00  0.00    +0.000 C 
ATOM     20  C   UNL     1      -4.993  -3.111 129.126  0.00  0.00    +0.000 C 
ENDROOT
BRANCH  16  21
ATOM     21  O   UNL     1      -6.693  -1.973 133.365  0.00  0.00    +0.000 OA
BRANCH  21  22
ATOM     22  C   UNL     1      -7.462  -2.731 134.181  0.00  0.00    +0.000 C 
ATOM     23  O   UNL     1      -8.685  -2.611 134.158  0.00  0.00    +0.000 OA
BRANCH  22  24
ATOM     24  C   UNL     1      -6.755  -3.702 135.098  0.00  0.00    +0.000 C 
BRANCH  24  25
ATOM     25  C   UNL     1      -6.683  -5.089 134.466  0.00  0.00    +0.000 C 
BRANCH  25  26
ATOM     26  C   UNL     1      -5.249  -5.461 134.111  0.00  0.00    +0.000 C 
BRANCH  26  27
ATOM     27  C   UNL     1      -4.937  -5.044 132.679  0.00  0.00    +0.000 C 
BRANCH  27  28
ATOM     28  C   UNL     1      -3.557  -4.407 132.589  0.00  0.00    +0.000 C 
ATOM     29  C   UNL     1      -3.490  -3.157 133.446  0.00  0.00    +0.000 C 
ENDBRANCH  27  28
ENDBRANCH  26  27
ENDBRANCH  25  26
ENDBRANCH  24  25
ENDBRANCH  22  24
ENDBRANCH  21  22
ENDBRANCH  16  21
TORSDOF 7
ENDMDL
MODEL 3
REMARK VINA RESULT:      -7.4      2.131      7.630
REMARK  Name = Prasterone enantate
REMARK  10 active torsions:
REMARK  status: ('A' for Active; 'I' for Inactive)
REMARK    1  A    between atoms: C_7  and  C_8
REMARK    2  A    between atoms: C_19  and  O_24
REMARK    3  A    between atoms: C_22  and  C_23
REMARK    4  A    between atoms: O_24  and  C_25
REMARK    5  A    between atoms: C_25  and  C_27
REMARK    6  A    between atoms: C_27  and  C_28
REMARK    7  A    between atoms: C_28  and  C_29
REMARK    8  A    between atoms: C_29  and  C_30
REMARK    9  A    between atoms: C_30  and  C_31
REMARK   10  A    between atoms: C_31  and  C_32
REMARK                            x       y       z     vdW  Elec       q    Type
REMARK                         _______ _______ _______ _____ _____    ______ ____
ROOT
ATOM      1  C   UNL     1      -5.232  -3.710 131.290  0.00  0.00    +0.000 C 
ATOM      2  C   UNL     1      -5.710  -4.871 132.154  0.00  0.00    +0.000 C 
ATOM      3  C   UNL     1      -4.431  -5.286 132.904  0.00  0.00    +0.000 C 
ATOM      4  C   UNL     1      -3.592  -4.021 132.892  0.00  0.00    +0.000 C 
ATOM      5  O   UNL     1      -2.481  -3.929 133.393  0.00  0.00    +0.000 OA
ATOM      6  C   UNL     1      -4.334  -2.880 132.226  0.00  0.00    +0.000 C 
ATOM      7  C   UNL     1      -5.071  -2.133 133.350  0.00  0.00    +0.000 C 
ATOM      8  C   UNL     1      -3.489  -1.939 131.377  0.00  0.00    +0.000 C 
ATOM      9  C   UNL     1      -4.388  -1.046 130.516  0.00  0.00    +0.000 C 
ATOM     10  C   UNL     1      -5.418  -1.833 129.662  0.00  0.00    +0.000 C 
ATOM     11  C   UNL     1      -6.236  -2.838 130.523  0.00  0.00    +0.000 C 
ATOM     12  C   UNL     1      -7.140  -3.699 129.632  0.00  0.00    +0.000 C 
ATOM     13  C   UNL     1      -7.818  -2.940 128.535  0.00  0.00    +0.000 C 
ATOM     14  C   UNL     1      -7.481  -1.698 128.144  0.00  0.00    +0.000 C 
ATOM     15  C   UNL     1      -8.235  -1.013 127.023  0.00  0.00    +0.000 C 
ATOM     16  C   UNL     1      -7.290  -0.440 125.964  0.00  0.00    +0.000 C 
ATOM     17  C   UNL     1      -6.235   0.461 126.598  0.00  0.00    +0.000 C 
ATOM     18  C   UNL     1      -5.446  -0.326 127.637  0.00  0.00    +0.000 C 
ATOM     19  C   UNL     1      -6.331  -0.908 128.779  0.00  0.00    +0.000 C 
ATOM     20  C   UNL     1      -6.946   0.234 129.616  0.00  0.00    +0.000 C 
ENDROOT
BRANCH  16  21
ATOM     21  O   UNL     1      -8.064   0.357 125.045  0.00  0.00    +0.000 OA
BRANCH  21  22
ATOM     22  C   UNL     1      -8.035   0.214 123.700  0.00  0.00    +0.000 C 
ATOM     23  O   UNL     1      -7.273   0.905 123.026  0.00  0.00    +0.000 OA
BRANCH  22  24
ATOM     24  C   UNL     1      -8.965  -0.808 123.089  0.00  0.00    +0.000 C 
BRANCH  24  25
ATOM     25  C   UNL     1      -8.221  -2.104 122.785  0.00  0.00    +0.000 C 
BRANCH  25  26
ATOM     26  C   UNL     1      -8.585  -3.197 123.782  0.00  0.00    +0.000 C 
BRANCH  26  27
ATOM     27  C   UNL     1      -7.322  -3.785 124.400  0.00  0.00    +0.000 C 
BRANCH  27  28
ATOM     28  C   UNL     1      -6.085  -3.044 123.911  0.00  0.00    +0.000 C 
ATOM     29  C   UNL     1      -4.908  -3.994 123.789  0.00  0.00    +0.000 C 
ENDBRANCH  27  28
ENDBRANCH  26  27
ENDBRANCH  25  26
ENDBRANCH  24  25
ENDBRANCH  22  24
ENDBRANCH  21  22
ENDBRANCH  16  21
TORSDOF 7
ENDMDL
MODEL 4
REMARK VINA RESULT:      -7.4      2.338      7.892
REMARK  Name = Prasterone enantate
REMARK  10 active torsions:
REMARK  status: ('A' for Active; 'I' for Inactive)
REMARK    1  A    between atoms: C_7  and  C_8
REMARK    2  A    between atoms: C_19  and  O_24
REMARK    3  A    between atoms: C_22  and  C_23
REMARK    4  A    between atoms: O_24  and  C_25
REMARK    5  A    between atoms: C_25  and  C_27
REMARK    6  A    between atoms: C_27  and  C_28
REMARK    7  A    between atoms: C_28  and  C_29
REMARK    8  A    between atoms: C_29  and  C_30
REMARK    9  A    between atoms: C_30  and  C_31
REMARK   10  A    between atoms: C_31  and  C_32
REMARK                            x       y       z     vdW  Elec       q    Type
REMARK                         _______ _______ _______ _____ _____    ______ ____
ROOT
ATOM      1  C   UNL     1      -5.726  -3.776 130.931  0.00  0.00    +0.000 C 
ATOM      2  C   UNL     1      -6.447  -4.061 132.244  0.00  0.00    +0.000 C 
ATOM      3  C   UNL     1      -5.360  -4.756 133.085  0.00  0.00    +0.000 C 
ATOM      4  C   UNL     1      -4.067  -4.248 132.473  0.00  0.00    +0.000 C 
ATOM      5  O   UNL     1      -2.952  -4.570 132.859  0.00  0.00    +0.000 OA
ATOM      6  C   UNL     1      -4.340  -3.258 131.361  0.00  0.00    +0.000 C 
ATOM      7  C   UNL     1      -4.334  -1.866 132.014  0.00  0.00    +0.000 C 
ATOM      8  C   UNL     1      -3.405  -3.325 130.160  0.00  0.00    +0.000 C 
ATOM      9  C   UNL     1      -3.977  -2.514 128.992  0.00  0.00    +0.000 C 
ATOM     10  C   UNL     1      -5.434  -2.899 128.618  0.00  0.00    +0.000 C 
ATOM     11  C   UNL     1      -6.372  -2.888 129.859  0.00  0.00    +0.000 C 
ATOM     12  C   UNL     1      -7.766  -3.409 129.484  0.00  0.00    +0.000 C 
ATOM     13  C   UNL     1      -8.271  -2.907 128.168  0.00  0.00    +0.000 C 
ATOM     14  C   UNL     1      -7.512  -2.302 127.239  0.00  0.00    +0.000 C 
ATOM     15  C   UNL     1      -8.123  -1.825 125.937  0.00  0.00    +0.000 C 
ATOM     16  C   UNL     1      -7.326  -2.305 124.721  0.00  0.00    +0.000 C 
ATOM     17  C   UNL     1      -5.853  -1.934 124.847  0.00  0.00    +0.000 C 
ATOM     18  C   UNL     1      -5.280  -2.538 126.124  0.00  0.00    +0.000 C 
ATOM     19  C   UNL     1      -6.008  -2.064 127.416  0.00  0.00    +0.000 C 
ATOM     20  C   UNL     1      -5.789  -0.550 127.631  0.00  0.00    +0.000 C 
ENDROOT
BRANCH  16  21
ATOM     21  O   UNL     1      -7.851  -1.655 123.546  0.00  0.00    +0.000 OA
BRANCH  21  22
ATOM     22  C   UNL     1      -9.161  -1.627 123.210  0.00  0.00    +0.000 C 
ATOM     23  O   UNL     1      -9.822  -2.664 123.230  0.00  0.00    +0.000 OA
BRANCH  22  24
ATOM     24  C   UNL     1      -9.750  -0.293 122.817  0.00  0.00    +0.000 C 
BRANCH  24  25
ATOM     25  C   UNL     1      -8.858   0.853 123.284  0.00  0.00    +0.000 C 
BRANCH  25  26
ATOM     26  C   UNL     1      -9.321   1.402 124.627  0.00  0.00    +0.000 C 
BRANCH  26  27
ATOM     27  C   UNL     1      -8.160   2.075 125.348  0.00  0.00    +0.000 C 
BRANCH  27  28
ATOM     28  C   UNL     1      -6.833   1.706 124.697  0.00  0.00    +0.000 C 
ATOM     29  C   UNL     1      -5.675   2.315 125.465  0.00  0.00    +0.000 C 
ENDBRANCH  27  28
ENDBRANCH  26  27
ENDBRANCH  25  26
ENDBRANCH  24  25
ENDBRANCH  22  24
ENDBRANCH  21  22
ENDBRANCH  16  21
TORSDOF 7
ENDMDL
MODEL 5
REMARK VINA RESULT:      -7.2      7.249      8.959
REMARK  Name = Prasterone enantate
REMARK  10 active torsions:
REMARK  status: ('A' for Active; 'I' for Inactive)
REMARK    1  A    between atoms: C_7  and  C_8
REMARK    2  A    between atoms: C_19  and  O_24
REMARK    3  A    between atoms: C_22  and  C_23
REMARK    4  A    between atoms: O_24  and  C_25
REMARK    5  A    between atoms: C_25  and  C_27
REMARK    6  A    between atoms: C_27  and  C_28
REMARK    7  A    between atoms: C_28  and  C_29
REMARK    8  A    between atoms: C_29  and  C_30
REMARK    9  A    between atoms: C_30  and  C_31
REMARK   10  A    between atoms: C_31  and  C_32
REMARK                            x       y       z     vdW  Elec       q    Type
REMARK                         _______ _______ _______ _____ _____    ______ ____
ROOT
ATOM      1  C   UNL     1     -10.301   7.144 129.439  0.00  0.00    +0.000 C 
ATOM      2  C   UNL     1     -10.501   8.503 128.777  0.00  0.00    +0.000 C 
ATOM      3  C   UNL     1     -11.692   8.251 127.835  0.00  0.00    +0.000 C 
ATOM      4  C   UNL     1     -12.405   7.076 128.478  0.00  0.00    +0.000 C 
ATOM      5  O   UNL     1     -13.418   6.558 128.030  0.00  0.00    +0.000 OA
ATOM      6  C   UNL     1     -11.728   6.666 129.769  0.00  0.00    +0.000 C 
ATOM      7  C   UNL     1     -12.436   7.443 130.891  0.00  0.00    +0.000 C 
ATOM      8  C   UNL     1     -11.682   5.170 130.056  0.00  0.00    +0.000 C 
ATOM      9  C   UNL     1     -10.705   4.876 131.199  0.00  0.00    +0.000 C 
ATOM     10  C   UNL     1      -9.288   5.469 130.980  0.00  0.00    +0.000 C 
ATOM     11  C   UNL     1      -9.343   6.984 130.627  0.00  0.00    +0.000 C 
ATOM     12  C   UNL     1      -7.944   7.506 130.277  0.00  0.00    +0.000 C 
ATOM     13  C   UNL     1      -6.859   6.992 131.170  0.00  0.00    +0.000 C 
ATOM     14  C   UNL     1      -6.993   5.957 132.016  0.00  0.00    +0.000 C 
ATOM     15  C   UNL     1      -5.832   5.516 132.884  0.00  0.00    +0.000 C 
ATOM     16  C   UNL     1      -5.583   4.009 132.785  0.00  0.00    +0.000 C 
ATOM     17  C   UNL     1      -6.858   3.221 133.068  0.00  0.00    +0.000 C 
ATOM     18  C   UNL     1      -7.948   3.640 132.088  0.00  0.00    +0.000 C 
ATOM     19  C   UNL     1      -8.293   5.157 132.156  0.00  0.00    +0.000 C 
ATOM     20  C   UNL     1      -8.919   5.504 133.524  0.00  0.00    +0.000 C 
ENDROOT
BRANCH  16  21
ATOM     21  O   UNL     1      -4.603   3.642 133.776  0.00  0.00    +0.000 OA
BRANCH  21  22
ATOM     22  C   UNL     1      -3.276   3.532 133.534  0.00  0.00    +0.000 C 
ATOM     23  O   UNL     1      -2.778   2.425 133.339  0.00  0.00    +0.000 OA
BRANCH  22  24
ATOM     24  C   UNL     1      -2.464   4.806 133.519  0.00  0.00    +0.000 C 
BRANCH  24  25
ATOM     25  C   UNL     1      -1.654   4.917 132.232  0.00  0.00    +0.000 C 
BRANCH  25  26
ATOM     26  C   UNL     1      -2.559   5.110 131.023  0.00  0.00    +0.000 C 
BRANCH  26  27
ATOM     27  C   UNL     1      -2.316   6.479 130.397  0.00  0.00    +0.000 C 
BRANCH  27  28
ATOM     28  C   UNL     1      -3.191   7.537 131.057  0.00  0.00    +0.000 C 
ATOM     29  C   UNL     1      -3.859   8.405 130.007  0.00  0.00    +0.000 C 
ENDBRANCH  27  28
ENDBRANCH  26  27
ENDBRANCH  25  26
ENDBRANCH  24  25
ENDBRANCH  22  24
ENDBRANCH  21  22
ENDBRANCH  16  21
TORSDOF 7
ENDMDL
MODEL 6
REMARK VINA RESULT:      -7.1      1.291      2.061
REMARK  Name = Prasterone enantate
REMARK  10 active torsions:
REMARK  status: ('A' for Active; 'I' for Inactive)
REMARK    1  A    between atoms: C_7  and  C_8
REMARK    2  A    between atoms: C_19  and  O_24
REMARK    3  A    between atoms: C_22  and  C_23
REMARK    4  A    between atoms: O_24  and  C_25
REMARK    5  A    between atoms: C_25  and  C_27
REMARK    6  A    between atoms: C_27  and  C_28
REMARK    7  A    between atoms: C_28  and  C_29
REMARK    8  A    between atoms: C_29  and  C_30
REMARK    9  A    between atoms: C_30  and  C_31
REMARK   10  A    between atoms: C_31  and  C_32
REMARK                            x       y       z     vdW  Elec       q    Type
REMARK                         _______ _______ _______ _____ _____    ______ ____
ROOT
ATOM      1  C   UNL     1      -8.730  -2.493 125.588  0.00  0.00    +0.000 C 
ATOM      2  C   UNL     1      -8.959  -3.748 124.754  0.00  0.00    +0.000 C 
ATOM      3  C   UNL     1      -9.491  -3.181 123.425  0.00  0.00    +0.000 C 
ATOM      4  C   UNL     1      -8.937  -1.768 123.400  0.00  0.00    +0.000 C 
ATOM      5  O   UNL     1      -9.135  -0.968 122.498  0.00  0.00    +0.000 OA
ATOM      6  C   UNL     1      -8.069  -1.501 124.613  0.00  0.00    +0.000 C 
ATOM      7  C   UNL     1      -6.631  -1.850 124.197  0.00  0.00    +0.000 C 
ATOM      8  C   UNL     1      -8.165  -0.102 125.208  0.00  0.00    +0.000 C 
ATOM      9  C   UNL     1      -7.504  -0.064 126.590  0.00  0.00    +0.000 C 
ATOM     10  C   UNL     1      -8.034  -1.149 127.567  0.00  0.00    +0.000 C 
ATOM     11  C   UNL     1      -7.992  -2.569 126.931  0.00  0.00    +0.000 C 
ATOM     12  C   UNL     1      -8.652  -3.594 127.862  0.00  0.00    +0.000 C 
ATOM     13  C   UNL     1      -8.306  -3.418 129.307  0.00  0.00    +0.000 C 
ATOM     14  C   UNL     1      -7.724  -2.323 129.826  0.00  0.00    +0.000 C 
ATOM     15  C   UNL     1      -7.410  -2.245 131.306  0.00  0.00    +0.000 C 
ATOM     16  C   UNL     1      -7.928  -0.948 131.933  0.00  0.00    +0.000 C 
ATOM     17  C   UNL     1      -7.431   0.271 131.164  0.00  0.00    +0.000 C 
ATOM     18  C   UNL     1      -7.876   0.176 129.709  0.00  0.00    +0.000 C 
ATOM     19  C   UNL     1      -7.353  -1.098 128.982  0.00  0.00    +0.000 C 
ATOM     20  C   UNL     1      -5.814  -1.053 128.861  0.00  0.00    +0.000 C 
ENDROOT
BRANCH  16  21
ATOM     21  O   UNL     1      -7.424  -0.860 133.281  0.00  0.00    +0.000 OA
BRANCH  21  22
ATOM     22  C   UNL     1      -6.365  -0.104 133.652  0.00  0.00    +0.000 C 
ATOM     23  O   UNL     1      -6.544   0.931 134.290  0.00  0.00    +0.000 OA
BRANCH  22  24
ATOM     24  C   UNL     1      -4.990  -0.586 133.249  0.00  0.00    +0.000 C 
BRANCH  24  25
ATOM     25  C   UNL     1      -4.009   0.579 133.168  0.00  0.00    +0.000 C 
BRANCH  25  26
ATOM     26  C   UNL     1      -3.923   1.132 131.752  0.00  0.00    +0.000 C 
BRANCH  26  27
ATOM     27  C   UNL     1      -4.507   2.539 131.700  0.00  0.00    +0.000 C 
BRANCH  27  28
ATOM     28  C   UNL     1      -4.230   3.190 130.352  0.00  0.00    +0.000 C 
ATOM     29  C   UNL     1      -4.132   2.137 129.263  0.00  0.00    +0.000 C 
ENDBRANCH  27  28
ENDBRANCH  26  27
ENDBRANCH  25  26
ENDBRANCH  24  25
ENDBRANCH  22  24
ENDBRANCH  21  22
ENDBRANCH  16  21
TORSDOF 7
ENDMDL
MODEL 7
REMARK VINA RESULT:      -7.1      7.626     11.580
REMARK  Name = Prasterone enantate
REMARK  10 active torsions:
REMARK  status: ('A' for Active; 'I' for Inactive)
REMARK    1  A    between atoms: C_7  and  C_8
REMARK    2  A    between atoms: C_19  and  O_24
REMARK    3  A    between atoms: C_22  and  C_23
REMARK    4  A    between atoms: O_24  and  C_25
REMARK    5  A    between atoms: C_25  and  C_27
REMARK    6  A    between atoms: C_27  and  C_28
REMARK    7  A    between atoms: C_28  and  C_29
REMARK    8  A    between atoms: C_29  and  C_30
REMARK    9  A    between atoms: C_30  and  C_31
REMARK   10  A    between atoms: C_31  and  C_32
REMARK                            x       y       z     vdW  Elec       q    Type
REMARK                         _______ _______ _______ _____ _____    ______ ____
ROOT
ATOM      1  C   UNL     1      -3.371   7.083 132.860  0.00  0.00    +0.000 C 
ATOM      2  C   UNL     1      -2.252   7.753 132.070  0.00  0.00    +0.000 C 
ATOM      3  C   UNL     1      -1.211   8.074 133.158  0.00  0.00    +0.000 C 
ATOM      4  C   UNL     1      -1.516   7.058 134.244  0.00  0.00    +0.000 C 
ATOM      5  O   UNL     1      -0.906   6.978 135.300  0.00  0.00    +0.000 OA
ATOM      6  C   UNL     1      -2.639   6.132 133.826  0.00  0.00    +0.000 C 
ATOM      7  C   UNL     1      -1.969   4.915 133.167  0.00  0.00    +0.000 C 
ATOM      8  C   UNL     1      -3.610   5.718 134.925  0.00  0.00    +0.000 C 
ATOM      9  C   UNL     1      -4.855   5.064 134.318  0.00  0.00    +0.000 C 
ATOM     10  C   UNL     1      -5.546   5.924 133.226  0.00  0.00    +0.000 C 
ATOM     11  C   UNL     1      -4.537   6.395 132.138  0.00  0.00    +0.000 C 
ATOM     12  C   UNL     1      -5.217   7.358 131.156  0.00  0.00    +0.000 C 
ATOM     13  C   UNL     1      -6.600   6.948 130.757  0.00  0.00    +0.000 C 
ATOM     14  C   UNL     1      -7.329   6.009 131.385  0.00  0.00    +0.000 C 
ATOM     15  C   UNL     1      -8.721   5.663 130.898  0.00  0.00    +0.000 C 
ATOM     16  C   UNL     1      -9.746   5.680 132.036  0.00  0.00    +0.000 C 
ATOM     17  C   UNL     1      -9.294   4.800 133.196  0.00  0.00    +0.000 C 
ATOM     18  C   UNL     1      -7.937   5.275 133.702  0.00  0.00    +0.000 C 
ATOM     19  C   UNL     1      -6.824   5.246 132.614  0.00  0.00    +0.000 C 
ATOM     20  C   UNL     1      -6.533   3.791 132.183  0.00  0.00    +0.000 C 
ENDROOT
BRANCH  16  21
ATOM     21  O   UNL     1     -10.991   5.155 131.536  0.00  0.00    +0.000 OA
BRANCH  21  22
ATOM     22  C   UNL     1     -11.767   5.775 130.616  0.00  0.00    +0.000 C 
ATOM     23  O   UNL     1     -11.871   5.305 129.485  0.00  0.00    +0.000 OA
BRANCH  22  24
ATOM     24  C   UNL     1     -12.475   7.040 131.041  0.00  0.00    +0.000 C 
BRANCH  24  25
ATOM     25  C   UNL     1     -11.960   8.241 130.255  0.00  0.00    +0.000 C 
BRANCH  25  26
ATOM     26  C   UNL     1     -13.011   8.756 129.281  0.00  0.00    +0.000 C 
BRANCH  26  27
ATOM     27  C   UNL     1     -12.554   8.528 127.845  0.00  0.00    +0.000 C 
BRANCH  27  28
ATOM     28  C   UNL     1     -11.049   8.302 127.786  0.00  0.00    +0.000 C 
ATOM     29  C   UNL     1     -10.699   7.338 126.668  0.00  0.00    +0.000 C 
ENDBRANCH  27  28
ENDBRANCH  26  27
ENDBRANCH  25  26
ENDBRANCH  24  25
ENDBRANCH  22  24
ENDBRANCH  21  22
ENDBRANCH  16  21
TORSDOF 7
ENDMDL
MODEL 8
REMARK VINA RESULT:      -6.9      1.614      3.042
REMARK  Name = Prasterone enantate
REMARK  10 active torsions:
REMARK  status: ('A' for Active; 'I' for Inactive)
REMARK    1  A    between atoms: C_7  and  C_8
REMARK    2  A    between atoms: C_19  and  O_24
REMARK    3  A    between atoms: C_22  and  C_23
REMARK    4  A    between atoms: O_24  and  C_25
REMARK    5  A    between atoms: C_25  and  C_27
REMARK    6  A    between atoms: C_27  and  C_28
REMARK    7  A    between atoms: C_28  and  C_29
REMARK    8  A    between atoms: C_29  and  C_30
REMARK    9  A    between atoms: C_30  and  C_31
REMARK   10  A    between atoms: C_31  and  C_32
REMARK                            x       y       z     vdW  Elec       q    Type
REMARK                         _______ _______ _______ _____ _____    ______ ____
ROOT
ATOM      1  C   UNL     1      -8.140  -2.663 125.461  0.00  0.00    +0.000 C 
ATOM      2  C   UNL     1      -9.135  -3.661 124.880  0.00  0.00    +0.000 C 
ATOM      3  C   UNL     1      -9.334  -3.146 123.443  0.00  0.00    +0.000 C 
ATOM      4  C   UNL     1      -8.055  -2.376 123.166  0.00  0.00    +0.000 C 
ATOM      5  O   UNL     1      -7.815  -1.799 122.116  0.00  0.00    +0.000 OA
ATOM      6  C   UNL     1      -7.103  -2.461 124.340  0.00  0.00    +0.000 C 
ATOM      7  C   UNL     1      -6.190  -3.667 124.067  0.00  0.00    +0.000 C 
ATOM      8  C   UNL     1      -6.302  -1.200 124.644  0.00  0.00    +0.000 C 
ATOM      9  C   UNL     1      -5.637  -1.310 126.021  0.00  0.00    +0.000 C 
ATOM     10  C   UNL     1      -6.624  -1.662 127.166  0.00  0.00    +0.000 C 
ATOM     11  C   UNL     1      -7.483  -2.915 126.825  0.00  0.00    +0.000 C 
ATOM     12  C   UNL     1      -8.543  -3.152 127.908  0.00  0.00    +0.000 C 
ATOM     13  C   UNL     1      -8.043  -2.954 129.305  0.00  0.00    +0.000 C 
ATOM     14  C   UNL     1      -6.886  -2.349 129.623  0.00  0.00    +0.000 C 
ATOM     15  C   UNL     1      -6.468  -2.202 131.072  0.00  0.00    +0.000 C 
ATOM     16  C   UNL     1      -6.064  -0.765 131.408  0.00  0.00    +0.000 C 
ATOM     17  C   UNL     1      -5.007  -0.249 130.438  0.00  0.00    +0.000 C 
ATOM     18  C   UNL     1      -5.539  -0.326 129.011  0.00  0.00    +0.000 C 
ATOM     19  C   UNL     1      -5.933  -1.767 128.573  0.00  0.00    +0.000 C 
ATOM     20  C   UNL     1      -4.682  -2.671 128.516  0.00  0.00    +0.000 C 
ENDROOT
BRANCH  16  21
ATOM     21  O   UNL     1      -5.498  -0.748 132.734  0.00  0.00    +0.000 OA
BRANCH  21  22
ATOM     22  C   UNL     1      -6.185  -0.423 133.853  0.00  0.00    +0.000 C 
ATOM     23  O   UNL     1      -6.698  -1.307 134.536  0.00  0.00    +0.000 OA
BRANCH  22  24
ATOM     24  C   UNL     1      -6.287   1.042 134.207  0.00  0.00    +0.000 C 
BRANCH  24  25
ATOM     25  C   UNL     1      -5.349   1.876 133.340  0.00  0.00    +0.000 C 
BRANCH  25  26
ATOM     26  C   UNL     1      -6.128   2.786 132.399  0.00  0.00    +0.000 C 
BRANCH  26  27
ATOM     27  C   UNL     1      -7.625   2.650 132.656  0.00  0.00    +0.000 C 
BRANCH  27  28
ATOM     28  C   UNL     1      -8.341   2.133 131.415  0.00  0.00    +0.000 C 
ATOM     29  C   UNL     1      -9.225   0.951 131.764  0.00  0.00    +0.000 C 
ENDBRANCH  27  28
ENDBRANCH  26  27
ENDBRANCH  25  26
ENDBRANCH  24  25
ENDBRANCH  22  24
ENDBRANCH  21  22
ENDBRANCH  16  21
TORSDOF 7
ENDMDL
MODEL 9
REMARK VINA RESULT:      -6.8      3.172      8.265
REMARK  Name = Prasterone enantate
REMARK  10 active torsions:
REMARK  status: ('A' for Active; 'I' for Inactive)
REMARK    1  A    between atoms: C_7  and  C_8
REMARK    2  A    between atoms: C_19  and  O_24
REMARK    3  A    between atoms: C_22  and  C_23
REMARK    4  A    between atoms: O_24  and  C_25
REMARK    5  A    between atoms: C_25  and  C_27
REMARK    6  A    between atoms: C_27  and  C_28
REMARK    7  A    between atoms: C_28  and  C_29
REMARK    8  A    between atoms: C_29  and  C_30
REMARK    9  A    between atoms: C_30  and  C_31
REMARK   10  A    between atoms: C_31  and  C_32
REMARK                            x       y       z     vdW  Elec       q    Type
REMARK                         _______ _______ _______ _____ _____    ______ ____
ROOT
ATOM      1  C   UNL     1      -7.033   4.394 129.818  0.00  0.00    +0.000 C 
ATOM      2  C   UNL     1      -6.033   5.447 130.284  0.00  0.00    +0.000 C 
ATOM      3  C   UNL     1      -6.738   6.070 131.503  0.00  0.00    +0.000 C 
ATOM      4  C   UNL     1      -7.676   4.969 131.966  0.00  0.00    +0.000 C 
ATOM      5  O   UNL     1      -8.430   5.067 132.923  0.00  0.00    +0.000 OA
ATOM      6  C   UNL     1      -7.516   3.724 131.119  0.00  0.00    +0.000 C 
ATOM      7  C   UNL     1      -6.473   2.849 131.832  0.00  0.00    +0.000 C 
ATOM      8  C   UNL     1      -8.795   2.951 130.818  0.00  0.00    +0.000 C 
ATOM      9  C   UNL     1      -8.548   1.924 129.708  0.00  0.00    +0.000 C 
ATOM     10  C   UNL     1      -7.920   2.530 128.424  0.00  0.00    +0.000 C 
ATOM     11  C   UNL     1      -6.648   3.369 128.743  0.00  0.00    +0.000 C 
ATOM     12  C   UNL     1      -6.135   4.069 127.478  0.00  0.00    +0.000 C 
ATOM     13  C   UNL     1      -6.170   3.214 126.251  0.00  0.00    +0.000 C 
ATOM     14  C   UNL     1      -6.840   2.054 126.146  0.00  0.00    +0.000 C 
ATOM     15  C   UNL     1      -6.808   1.259 124.857  0.00  0.00    +0.000 C 
ATOM     16  C   UNL     1      -8.213   0.869 124.390  0.00  0.00    +0.000 C 
ATOM     17  C   UNL     1      -8.983   0.158 125.497  0.00  0.00    +0.000 C 
ATOM     18  C   UNL     1      -9.068   1.060 126.723  0.00  0.00    +0.000 C 
ATOM     19  C   UNL     1      -7.676   1.469 127.290  0.00  0.00    +0.000 C 
ATOM     20  C   UNL     1      -6.933   0.229 127.835  0.00  0.00    +0.000 C 
ENDROOT
BRANCH  16  21
ATOM     21  O   UNL     1      -8.087  -0.041 123.279  0.00  0.00    +0.000 OA
BRANCH  21  22
ATOM     22  C   UNL     1      -9.027  -0.949 122.926  0.00  0.00    +0.000 C 
ATOM     23  O   UNL     1     -10.168  -0.579 122.659  0.00  0.00    +0.000 OA
BRANCH  22  24
ATOM     24  C   UNL     1      -8.610  -2.401 122.882  0.00  0.00    +0.000 C 
BRANCH  24  25
ATOM     25  C   UNL     1      -9.308  -3.199 123.978  0.00  0.00    +0.000 C 
BRANCH  25  26
ATOM     26  C   UNL     1      -8.301  -3.923 124.862  0.00  0.00    +0.000 C 
BRANCH  26  27
ATOM     27  C   UNL     1      -8.114  -3.168 126.172  0.00  0.00    +0.000 C 
BRANCH  27  28
ATOM     28  C   UNL     1      -8.867  -3.855 127.304  0.00  0.00    +0.000 C 
ATOM     29  C   UNL     1      -8.473  -3.261 128.644  0.00  0.00    +0.000 C 
ENDBRANCH  27  28
ENDBRANCH  26  27
ENDBRANCH  25  26
ENDBRANCH  24  25
ENDBRANCH  22  24
ENDBRANCH  21  22
ENDBRANCH  16  21
TORSDOF 7
ENDMDL
