MODEL 1
REMARK VINA RESULT:      -7.8      0.000      0.000
REMARK  Name = Prasterone
REMARK  3 active torsions:
REMARK  status: ('A' for Active; 'I' for Inactive)
REMARK    1  A    between atoms: C_7  and  C_8
REMARK    2  A    between atoms: C_19  and  O_21
REMARK    3  A    between atoms: C_24  and  C_25
REMARK                            x       y       z     vdW  Elec       q    Type
REMARK                         _______ _______ _______ _____ _____    ______ ____
ROOT
ATOM      1  C   UNL     1      -7.135  -2.800 130.629  0.00  0.00    +0.000 C 
ATOM      2  C   UNL     1      -6.369  -4.036 130.456  0.00  0.00    +0.000 C 
ATOM      3  C   UNL     1      -5.687  -3.176 129.440  0.00  0.00    +0.000 C 
ATOM      4  C   UNL     1      -6.370  -1.471 130.039  0.00  0.00    +0.000 C 
ATOM      5  O   UNL     1      -6.855  -0.329 129.911  0.00  0.00    +0.000 OA
ATOM      6  C   UNL     1      -5.662  -1.794 131.062  0.00  0.00    +0.000 C 
ATOM      7  C   UNL     1      -5.428  -1.658 132.489  0.00  0.00    +0.000 C 
ATOM      8  C   UNL     1      -4.608  -1.116 129.767  0.00  0.00    +0.000 C 
ATOM      9  C   UNL     1      -5.413  -0.936 128.090  0.00  0.00    +0.000 C 
ATOM     10  C   UNL     1      -6.749  -1.913 127.612  0.00  0.00    +0.000 C 
ATOM     11  C   UNL     1      -7.883  -2.474 128.927  0.00  0.00    +0.000 C 
ATOM     12  C   UNL     1      -8.616  -3.718 128.504  0.00  0.00    +0.000 C 
ATOM     13  C   UNL     1      -9.012  -3.652 127.097  0.00  0.00    +0.000 C 
ATOM     14  C   UNL     1      -8.614  -2.744 126.186  0.00  0.00    +0.000 C 
ATOM     15  C   UNL     1      -9.149  -3.074 124.836  0.00  0.00    +0.000 C 
ATOM     16  C   UNL     1      -8.468  -2.269 123.827  0.00  0.00    +0.000 C 
ATOM     17  C   UNL     1      -7.630  -1.171 123.368  0.00  0.00    +0.000 C 
ATOM     18  C   UNL     1      -6.721  -1.112 124.872  0.00  0.00    +0.000 C 
ATOM     19  C   UNL     1      -7.603  -1.504 126.343  0.00  0.00    +0.000 C 
ATOM     20  C   UNL     1      -8.300  -0.199 126.730  0.00  0.00    +0.000 C 
ENDROOT
BRANCH  16  21
ATOM     21  O   UNL     1      -7.320  -3.197 123.625  0.00  0.00    +0.000 OA
ATOM     22  H   UNL     1      -6.429  -2.956 123.933  0.00  0.00    +0.000 HD
ENDBRANCH  16  21
TORSDOF 1
ENDMDL
MODEL 2
REMARK VINA RESULT:      -7.3      2.922      6.276
REMARK  Name = Prasterone
REMARK  3 active torsions:
REMARK  status: ('A' for Active; 'I' for Inactive)
REMARK    1  A    between atoms: C_7  and  C_8
REMARK    2  A    between atoms: C_19  and  O_21
REMARK    3  A    between atoms: C_24  and  C_25
REMARK                            x       y       z     vdW  Elec       q    Type
REMARK                         _______ _______ _______ _____ _____    ______ ____
ROOT
ATOM      1  C   UNL     1      -8.560  -1.200 123.215  0.00  0.00    +0.000 C 
ATOM      2  C   UNL     1      -7.375  -1.703 122.517  0.00  0.00    +0.000 C 
ATOM      3  C   UNL     1      -6.955  -1.947 123.932  0.00  0.00    +0.000 C 
ATOM      4  C   UNL     1      -8.687  -1.745 124.759  0.00  0.00    +0.000 C 
ATOM      5  O   UNL     1      -9.500  -1.353 125.621  0.00  0.00    +0.000 OA
ATOM      6  C   UNL     1      -8.905  -2.796 124.054  0.00  0.00    +0.000 C 
ATOM      7  C   UNL     1      -9.867  -3.639 123.365  0.00  0.00    +0.000 C 
ATOM      8  C   UNL     1      -8.036  -3.236 125.570  0.00  0.00    +0.000 C 
ATOM      9  C   UNL     1      -7.324  -1.800 126.531  0.00  0.00    +0.000 C 
ATOM     10  C   UNL     1      -6.913  -0.309 125.771  0.00  0.00    +0.000 C 
ATOM     11  C   UNL     1      -7.900   0.183 124.317  0.00  0.00    +0.000 C 
ATOM     12  C   UNL     1      -7.125   1.132 123.443  0.00  0.00    +0.000 C 
ATOM     13  C   UNL     1      -6.366   2.094 124.242  0.00  0.00    +0.000 C 
ATOM     14  C   UNL     1      -6.157   2.055 125.572  0.00  0.00    +0.000 C 
ATOM     15  C   UNL     1      -5.245   3.151 126.000  0.00  0.00    +0.000 C 
ATOM     16  C   UNL     1      -4.794   2.910 127.367  0.00  0.00    +0.000 C 
ATOM     17  C   UNL     1      -4.838   2.264 128.671  0.00  0.00    +0.000 C 
ATOM     18  C   UNL     1      -5.540   0.789 128.019  0.00  0.00    +0.000 C 
ATOM     19  C   UNL     1      -6.640   0.973 126.658  0.00  0.00    +0.000 C 
ATOM     20  C   UNL     1      -7.986   1.315 127.298  0.00  0.00    +0.000 C 
ENDROOT
BRANCH  16  21
ATOM     21  O   UNL     1      -3.632   2.051 127.008  0.00  0.00    +0.000 OA
ATOM     22  H   UNL     1      -3.718   1.361 126.326  0.00  0.00    +0.000 HD
ENDBRANCH  16  21
TORSDOF 1
ENDMDL
MODEL 3
REMARK VINA RESULT:      -7.2      1.214      5.677
REMARK  Name = Prasterone
REMARK  3 active torsions:
REMARK  status: ('A' for Active; 'I' for Inactive)
REMARK    1  A    between atoms: C_7  and  C_8
REMARK    2  A    between atoms: C_19  and  O_21
REMARK    3  A    between atoms: C_24  and  C_25
REMARK                            x       y       z     vdW  Elec       q    Type
REMARK                         _______ _______ _______ _____ _____    ______ ____
ROOT
ATOM      1  C   UNL     1      -8.221  -2.983 125.181  0.00  0.00    +0.000 C 
ATOM      2  C   UNL     1      -9.398  -2.121 125.310  0.00  0.00    +0.000 C 
ATOM      3  C   UNL     1      -8.349  -1.190 125.828  0.00  0.00    +0.000 C 
ATOM      4  C   UNL     1      -6.803  -2.154 125.189  0.00  0.00    +0.000 C 
ATOM      5  O   UNL     1      -5.657  -2.643 125.254  0.00  0.00    +0.000 OA
ATOM      6  C   UNL     1      -7.334  -1.826 124.066  0.00  0.00    +0.000 C 
ATOM      7  C   UNL     1      -7.498  -2.112 122.651  0.00  0.00    +0.000 C 
ATOM      8  C   UNL     1      -6.407  -0.437 124.743  0.00  0.00    +0.000 C 
ATOM      9  C   UNL     1      -5.878  -0.619 126.527  0.00  0.00    +0.000 C 
ATOM     10  C   UNL     1      -6.728  -1.634 127.629  0.00  0.00    +0.000 C 
ATOM     11  C   UNL     1      -7.545  -3.113 126.939  0.00  0.00    +0.000 C 
ATOM     12  C   UNL     1      -8.671  -3.565 127.828  0.00  0.00    +0.000 C 
ATOM     13  C   UNL     1      -8.312  -3.451 129.242  0.00  0.00    +0.000 C 
ATOM     14  C   UNL     1      -7.236  -2.826 129.756  0.00  0.00    +0.000 C 
ATOM     15  C   UNL     1      -7.276  -2.833 131.244  0.00  0.00    +0.000 C 
ATOM     16  C   UNL     1      -6.283  -1.902 131.768  0.00  0.00    +0.000 C 
ATOM     17  C   UNL     1      -5.117  -1.035 131.676  0.00  0.00    +0.000 C 
ATOM     18  C   UNL     1      -5.377  -0.711 129.967  0.00  0.00    +0.000 C 
ATOM     19  C   UNL     1      -6.061  -2.020 129.011  0.00  0.00    +0.000 C 
ATOM     20  C   UNL     1      -4.861  -2.897 128.649  0.00  0.00    +0.000 C 
ENDROOT
BRANCH  16  21
ATOM     21  O   UNL     1      -7.153  -0.694 131.728  0.00  0.00    +0.000 OA
ATOM     22  H   UNL     1      -6.781   0.178 131.508  0.00  0.00    +0.000 HD
ENDBRANCH  16  21
TORSDOF 1
ENDMDL
MODEL 4
REMARK VINA RESULT:      -7.2      1.645      6.036
REMARK  Name = Prasterone
REMARK  3 active torsions:
REMARK  status: ('A' for Active; 'I' for Inactive)
REMARK    1  A    between atoms: C_7  and  C_8
REMARK    2  A    between atoms: C_19  and  O_21
REMARK    3  A    between atoms: C_24  and  C_25
REMARK                            x       y       z     vdW  Elec       q    Type
REMARK                         _______ _______ _______ _____ _____    ______ ____
ROOT
ATOM      1  C   UNL     1      -7.408  -0.798 124.280  0.00  0.00    +0.000 C 
ATOM      2  C   UNL     1      -6.395  -1.611 123.604  0.00  0.00    +0.000 C 
ATOM      3  C   UNL     1      -6.995  -2.650 124.496  0.00  0.00    +0.000 C 
ATOM      4  C   UNL     1      -8.599  -1.689 124.978  0.00  0.00    +0.000 C 
ATOM      5  O   UNL     1      -9.489  -1.269 125.744  0.00  0.00    +0.000 OA
ATOM      6  C   UNL     1      -8.809  -1.845 123.720  0.00  0.00    +0.000 C 
ATOM      7  C   UNL     1      -9.466  -1.372 122.514  0.00  0.00    +0.000 C 
ATOM      8  C   UNL     1      -9.233  -3.352 124.611  0.00  0.00    +0.000 C 
ATOM      9  C   UNL     1      -8.651  -3.425 126.386  0.00  0.00    +0.000 C 
ATOM     10  C   UNL     1      -7.294  -2.519 126.937  0.00  0.00    +0.000 C 
ATOM     11  C   UNL     1      -6.965  -0.926 126.110  0.00  0.00    +0.000 C 
ATOM     12  C   UNL     1      -5.519  -0.537 126.257  0.00  0.00    +0.000 C 
ATOM     13  C   UNL     1      -5.016  -0.848 127.596  0.00  0.00    +0.000 C 
ATOM     14  C   UNL     1      -5.631  -1.585 128.540  0.00  0.00    +0.000 C 
ATOM     15  C   UNL     1      -4.755  -1.766 129.729  0.00  0.00    +0.000 C 
ATOM     16  C   UNL     1      -5.306  -2.804 130.594  0.00  0.00    +0.000 C 
ATOM     17  C   UNL     1      -6.346  -3.708 131.063  0.00  0.00    +0.000 C 
ATOM     18  C   UNL     1      -7.111  -3.798 129.482  0.00  0.00    +0.000 C 
ATOM     19  C   UNL     1      -7.047  -2.345 128.491  0.00  0.00    +0.000 C 
ATOM     20  C   UNL     1      -8.211  -1.490 128.991  0.00  0.00    +0.000 C 
ENDROOT
BRANCH  16  21
ATOM     21  O   UNL     1      -4.651  -3.953 129.909  0.00  0.00    +0.000 OA
ATOM     22  H   UNL     1      -4.046  -4.541 130.395  0.00  0.00    +0.000 HD
ENDBRANCH  16  21
TORSDOF 1
ENDMDL
MODEL 5
REMARK VINA RESULT:      -7.0      1.956      6.003
REMARK  Name = Prasterone
REMARK  3 active torsions:
REMARK  status: ('A' for Active; 'I' for Inactive)
REMARK    1  A    between atoms: C_7  and  C_8
REMARK    2  A    between atoms: C_19  and  O_21
REMARK    3  A    between atoms: C_24  and  C_25
REMARK                            x       y       z     vdW  Elec       q    Type
REMARK                         _______ _______ _______ _____ _____    ______ ____
ROOT
ATOM      1  C   UNL     1      -7.694  -1.437 124.036  0.00  0.00    +0.000 C 
ATOM      2  C   UNL     1      -6.530  -2.283 123.763  0.00  0.00    +0.000 C 
ATOM      3  C   UNL     1      -6.790  -2.666 125.186  0.00  0.00    +0.000 C 
ATOM      4  C   UNL     1      -8.570  -1.933 125.335  0.00  0.00    +0.000 C 
ATOM      5  O   UNL     1      -9.506  -1.314 125.880  0.00  0.00    +0.000 OA
ATOM      6  C   UNL     1      -8.785  -2.851 124.462  0.00  0.00    +0.000 C 
ATOM      7  C   UNL     1      -9.597  -3.335 123.359  0.00  0.00    +0.000 C 
ATOM      8  C   UNL     1      -8.750  -3.565 126.116  0.00  0.00    +0.000 C 
ATOM      9  C   UNL     1      -8.093  -2.443 127.459  0.00  0.00    +0.000 C 
ATOM     10  C   UNL     1      -7.006  -1.151 127.115  0.00  0.00    +0.000 C 
ATOM     11  C   UNL     1      -7.153  -0.351 125.482  0.00  0.00    +0.000 C 
ATOM     12  C   UNL     1      -5.859   0.313 125.094  0.00  0.00    +0.000 C 
ATOM     13  C   UNL     1      -5.233   0.972 126.241  0.00  0.00    +0.000 C 
ATOM     14  C   UNL     1      -5.586   0.852 127.535  0.00  0.00    +0.000 C 
ATOM     15  C   UNL     1      -4.642   1.594 128.415  0.00  0.00    +0.000 C 
ATOM     16  C   UNL     1      -4.855   1.205 129.805  0.00  0.00    +0.000 C 
ATOM     17  C   UNL     1      -5.593   0.589 130.899  0.00  0.00    +0.000 C 
ATOM     18  C   UNL     1      -6.375  -0.576 129.839  0.00  0.00    +0.000 C 
ATOM     19  C   UNL     1      -6.747  -0.034 128.207  0.00  0.00    +0.000 C 
ATOM     20  C   UNL     1      -8.075   0.711 128.345  0.00  0.00    +0.000 C 
ENDROOT
BRANCH  16  21
ATOM     21  O   UNL     1      -3.947   0.025 129.786  0.00  0.00    +0.000 OA
ATOM     22  H   UNL     1      -3.964  -0.602 129.041  0.00  0.00    +0.000 HD
ENDBRANCH  16  21
TORSDOF 1
ENDMDL
MODEL 6
REMARK VINA RESULT:      -7.0      3.428      5.584
REMARK  Name = Prasterone
REMARK  3 active torsions:
REMARK  status: ('A' for Active; 'I' for Inactive)
REMARK    1  A    between atoms: C_7  and  C_8
REMARK    2  A    between atoms: C_19  and  O_21
REMARK    3  A    between atoms: C_24  and  C_25
REMARK                            x       y       z     vdW  Elec       q    Type
REMARK                         _______ _______ _______ _____ _____    ______ ____
ROOT
ATOM      1  C   UNL     1      -6.944   3.276 126.402  0.00  0.00    +0.000 C 
ATOM      2  C   UNL     1      -5.598   2.788 126.709  0.00  0.00    +0.000 C 
ATOM      3  C   UNL     1      -5.766   2.213 125.338  0.00  0.00    +0.000 C 
ATOM      4  C   UNL     1      -7.290   3.268 124.796  0.00  0.00    +0.000 C 
ATOM      5  O   UNL     1      -8.404   3.477 124.274  0.00  0.00    +0.000 OA
ATOM      6  C   UNL     1      -6.411   4.198 124.906  0.00  0.00    +0.000 C 
ATOM      7  C   UNL     1      -6.128   5.604 125.138  0.00  0.00    +0.000 C 
ATOM      8  C   UNL     1      -6.217   3.345 123.330  0.00  0.00    +0.000 C 
ATOM      9  C   UNL     1      -7.167   1.745 123.163  0.00  0.00    +0.000 C 
ATOM     10  C   UNL     1      -7.622   0.807 124.535  0.00  0.00    +0.000 C 
ATOM     11  C   UNL     1      -7.948   1.709 126.088  0.00  0.00    +0.000 C 
ATOM     12  C   UNL     1      -7.767   0.806 127.277  0.00  0.00    +0.000 C 
ATOM     13  C   UNL     1      -8.298  -0.533 127.017  0.00  0.00    +0.000 C 
ATOM     14  C   UNL     1      -8.698  -1.028 125.830  0.00  0.00    +0.000 C 
ATOM     15  C   UNL     1      -9.074  -2.463 125.951  0.00  0.00    +0.000 C 
ATOM     16  C   UNL     1      -9.206  -3.051 124.622  0.00  0.00    +0.000 C 
ATOM     17  C   UNL     1      -9.333  -3.008 123.173  0.00  0.00    +0.000 C 
ATOM     18  C   UNL     1      -8.478  -1.475 123.051  0.00  0.00    +0.000 C 
ATOM     19  C   UNL     1      -8.700  -0.340 124.377  0.00  0.00    +0.000 C 
ATOM     20  C   UNL     1     -10.009   0.379 124.049  0.00  0.00    +0.000 C 
ENDROOT
BRANCH  16  21
ATOM     21  O   UNL     1      -7.771  -3.417 124.462  0.00  0.00    +0.000 OA
ATOM     22  H   UNL     1      -7.194  -3.512 125.240  0.00  0.00    +0.000 HD
ENDBRANCH  16  21
TORSDOF 1
ENDMDL
MODEL 7
REMARK VINA RESULT:      -7.0      1.885      6.175
REMARK  Name = Prasterone
REMARK  3 active torsions:
REMARK  status: ('A' for Active; 'I' for Inactive)
REMARK    1  A    between atoms: C_7  and  C_8
REMARK    2  A    between atoms: C_19  and  O_21
REMARK    3  A    between atoms: C_24  and  C_25
REMARK                            x       y       z     vdW  Elec       q    Type
REMARK                         _______ _______ _______ _____ _____    ______ ____
ROOT
ATOM      1  C   UNL     1      -9.496   1.031 125.054  0.00  0.00    +0.000 C 
ATOM      2  C   UNL     1      -8.586   2.133 124.735  0.00  0.00    +0.000 C 
ATOM      3  C   UNL     1      -7.633   0.985 124.636  0.00  0.00    +0.000 C 
ATOM      4  C   UNL     1      -8.939  -0.436 124.567  0.00  0.00    +0.000 C 
ATOM      5  O   UNL     1      -9.429  -1.548 124.849  0.00  0.00    +0.000 OA
ATOM      6  C   UNL     1      -9.209   0.162 123.463  0.00  0.00    +0.000 C 
ATOM      7  C   UNL     1     -10.189   0.459 122.432  0.00  0.00    +0.000 C 
ATOM      8  C   UNL     1      -7.775  -0.909 123.254  0.00  0.00    +0.000 C 
ATOM      9  C   UNL     1      -7.029  -1.567 124.836  0.00  0.00    +0.000 C 
ATOM     10  C   UNL     1      -7.207  -0.743 126.339  0.00  0.00    +0.000 C 
ATOM     11  C   UNL     1      -8.736   0.225 126.581  0.00  0.00    +0.000 C 
ATOM     12  C   UNL     1      -8.527   1.302 127.610  0.00  0.00    +0.000 C 
ATOM     13  C   UNL     1      -7.712   0.823 128.727  0.00  0.00    +0.000 C 
ATOM     14  C   UNL     1      -7.021  -0.331 128.788  0.00  0.00    +0.000 C 
ATOM     15  C   UNL     1      -6.229  -0.412 130.046  0.00  0.00    +0.000 C 
ATOM     16  C   UNL     1      -5.267  -1.505 129.953  0.00  0.00    +0.000 C 
ATOM     17  C   UNL     1      -4.705  -2.715 129.370  0.00  0.00    +0.000 C 
ATOM     18  C   UNL     1      -5.320  -2.340 127.766  0.00  0.00    +0.000 C 
ATOM     19  C   UNL     1      -6.861  -1.493 127.689  0.00  0.00    +0.000 C 
ATOM     20  C   UNL     1      -7.910  -2.598 127.818  0.00  0.00    +0.000 C 
ENDROOT
BRANCH  16  21
ATOM     21  O   UNL     1      -4.187  -0.717 129.296  0.00  0.00    +0.000 OA
ATOM     22  H   UNL     1      -4.385   0.137 128.872  0.00  0.00    +0.000 HD
ENDBRANCH  16  21
TORSDOF 1
ENDMDL
MODEL 8
REMARK VINA RESULT:      -6.9      1.799      3.126
REMARK  Name = Prasterone
REMARK  3 active torsions:
REMARK  status: ('A' for Active; 'I' for Inactive)
REMARK    1  A    between atoms: C_7  and  C_8
REMARK    2  A    between atoms: C_19  and  O_21
REMARK    3  A    between atoms: C_24  and  C_25
REMARK                            x       y       z     vdW  Elec       q    Type
REMARK                         _______ _______ _______ _____ _____    ______ ____
ROOT
ATOM      1  C   UNL     1      -7.195   0.678 130.993  0.00  0.00    +0.000 C 
ATOM      2  C   UNL     1      -8.602   0.860 131.358  0.00  0.00    +0.000 C 
ATOM      3  C   UNL     1      -8.618  -0.597 131.021  0.00  0.00    +0.000 C 
ATOM      4  C   UNL     1      -6.710  -0.891 131.036  0.00  0.00    +0.000 C 
ATOM      5  O   UNL     1      -5.623  -1.344 130.623  0.00  0.00    +0.000 OA
ATOM      6  C   UNL     1      -6.894  -0.603 132.274  0.00  0.00    +0.000 C 
ATOM      7  C   UNL     1      -6.339  -0.091 133.515  0.00  0.00    +0.000 C 
ATOM      8  C   UNL     1      -7.336  -2.323 131.965  0.00  0.00    +0.000 C 
ATOM      9  C   UNL     1      -7.473  -2.804 130.164  0.00  0.00    +0.000 C 
ATOM     10  C   UNL     1      -7.830  -1.647 128.937  0.00  0.00    +0.000 C 
ATOM     11  C   UNL     1      -7.252   0.062 129.210  0.00  0.00    +0.000 C 
ATOM     12  C   UNL     1      -8.077   1.037 128.416  0.00  0.00    +0.000 C 
ATOM     13  C   UNL     1      -8.389   0.514 127.086  0.00  0.00    +0.000 C 
ATOM     14  C   UNL     1      -8.195  -0.744 126.646  0.00  0.00    +0.000 C 
ATOM     15  C   UNL     1      -8.738  -0.916 125.270  0.00  0.00    +0.000 C 
ATOM     16  C   UNL     1      -8.797  -2.335 124.938  0.00  0.00    +0.000 C 
ATOM     17  C   UNL     1      -8.478  -3.743 125.126  0.00  0.00    +0.000 C 
ATOM     18  C   UNL     1      -8.264  -3.558 126.862  0.00  0.00    +0.000 C 
ATOM     19  C   UNL     1      -7.604  -2.024 127.417  0.00  0.00    +0.000 C 
ATOM     20  C   UNL     1      -6.091  -2.180 127.261  0.00  0.00    +0.000 C 
ENDROOT
BRANCH  16  21
ATOM     21  O   UNL     1     -10.142  -2.586 125.525  0.00  0.00    +0.000 OA
ATOM     22  H   UNL     1     -10.776  -3.174 125.078  0.00  0.00    +0.000 HD
ENDBRANCH  16  21
TORSDOF 1
ENDMDL
MODEL 9
REMARK VINA RESULT:      -6.8      7.127      8.974
REMARK  Name = Prasterone
REMARK  3 active torsions:
REMARK  status: ('A' for Active; 'I' for Inactive)
REMARK    1  A    between atoms: C_7  and  C_8
REMARK    2  A    between atoms: C_19  and  O_21
REMARK    3  A    between atoms: C_24  and  C_25
REMARK                            x       y       z     vdW  Elec       q    Type
REMARK                         _______ _______ _______ _____ _____    ______ ____
ROOT
ATOM      1  C   UNL     1      -3.224   4.659 131.042  0.00  0.00    +0.000 C 
ATOM      2  C   UNL     1      -3.055   4.495 129.596  0.00  0.00    +0.000 C 
ATOM      3  C   UNL     1      -3.923   5.714 129.611  0.00  0.00    +0.000 C 
ATOM      4  C   UNL     1      -3.707   6.168 131.475  0.00  0.00    +0.000 C 
ATOM      5  O   UNL     1      -4.076   6.533 132.609  0.00  0.00    +0.000 OA
ATOM      6  C   UNL     1      -2.501   6.346 131.067  0.00  0.00    +0.000 C 
ATOM      7  C   UNL     1      -1.086   6.387 131.391  0.00  0.00    +0.000 C 
ATOM      8  C   UNL     1      -3.514   7.778 130.653  0.00  0.00    +0.000 C 
ATOM      9  C   UNL     1      -5.358   7.539 130.846  0.00  0.00    +0.000 C 
ATOM     10  C   UNL     1      -6.089   5.981 130.752  0.00  0.00    +0.000 C 
ATOM     11  C   UNL     1      -5.090   4.558 131.308  0.00  0.00    +0.000 C 
ATOM     12  C   UNL     1      -5.574   3.285 130.669  0.00  0.00    +0.000 C 
ATOM     13  C   UNL     1      -7.035   3.244 130.601  0.00  0.00    +0.000 C 
ATOM     14  C   UNL     1      -7.886   4.260 130.845  0.00  0.00    +0.000 C 
ATOM     15  C   UNL     1      -9.291   3.856 130.567  0.00  0.00    +0.000 C 
ATOM     16  C   UNL     1     -10.147   5.038 130.539  0.00  0.00    +0.000 C 
ATOM     17  C   UNL     1     -10.462   6.438 130.785  0.00  0.00    +0.000 C 
ATOM     18  C   UNL     1      -8.778   6.933 130.673  0.00  0.00    +0.000 C 
ATOM     19  C   UNL     1      -7.577   5.784 131.251  0.00  0.00    +0.000 C 
ATOM     20  C   UNL     1      -7.529   6.010 132.763  0.00  0.00    +0.000 C 
ENDROOT
BRANCH  16  21
ATOM     21  O   UNL     1      -9.931   5.364 129.102  0.00  0.00    +0.000 OA
ATOM     22  H   UNL     1     -10.671   5.328 128.470  0.00  0.00    +0.000 HD
ENDBRANCH  16  21
TORSDOF 1
ENDMDL
