MODEL 1
REMARK VINA RESULT:      -7.3      0.000      0.000
REMARK  Name = Pravastatin
REMARK  18 active torsions:
REMARK  status: ('A' for Active; 'I' for Inactive)
REMARK    1  A    between atoms: C_3  and  O_25
REMARK    2  A    between atoms: C_5  and  O_6
REMARK    3  A    between atoms: C_11  and  C_12
REMARK    4  A    between atoms: C_13  and  C_14
REMARK    5  A    between atoms: C_14  and  C_15
REMARK    6  A    between atoms: C_15  and  C_16
REMARK    7  A    between atoms: C_16  and  O_17
REMARK    8  A    between atoms: C_16  and  C_18
REMARK    9  A    between atoms: C_18  and  C_19
REMARK   10  A    between atoms: C_19  and  O_20
REMARK   11  A    between atoms: C_19  and  C_21
REMARK   12  A    between atoms: C_21  and  C_22
REMARK   13  A    between atoms: C_22  and  O_23
REMARK   14  A    between atoms: O_25  and  C_26
REMARK   15  A    between atoms: C_26  and  C_28
REMARK   16  A    between atoms: C_28  and  C_29
REMARK   17  A    between atoms: C_28  and  C_30
REMARK   18  A    between atoms: C_30  and  C_31
REMARK                            x       y       z     vdW  Elec       q    Type
REMARK                         _______ _______ _______ _____ _____    ______ ____
ROOT
ATOM      1  C   UNL     1      -7.578  -1.628 125.830  0.00  0.00    +0.000 C 
ATOM      2  C   UNL     1      -7.312  -0.823 127.150  0.00  0.00    +0.000 C 
ATOM      3  C   UNL     1      -8.173  -1.296 128.279  0.00  0.00    +0.000 C 
ATOM      4  C   UNL     1      -7.947  -2.710 128.617  0.00  0.00    +0.000 C 
ATOM      5  C   UNL     1      -8.422  -3.440 127.425  0.00  0.00    +0.000 C 
ATOM      6  C   UNL     1      -8.320  -2.944 126.173  0.00  0.00    +0.000 C 
ATOM      7  C   UNL     1      -8.996  -3.630 125.103  0.00  0.00    +0.000 C 
ATOM      8  C   UNL     1      -9.123  -3.107 123.880  0.00  0.00    +0.000 C 
ATOM      9  C   UNL     1      -8.587  -1.763 123.476  0.00  0.00    +0.000 C 
ATOM     10  C   UNL     1      -7.316  -1.985 122.646  0.00  0.00    +0.000 C 
ATOM     11  C   UNL     1      -8.298  -0.821 124.675  0.00  0.00    +0.000 C 
ENDROOT
BRANCH   4  12
ATOM     12  O   UNL     1      -6.580  -2.937 128.901  0.00  0.00    +0.000 OA
ATOM     13  H   UNL     1      -6.490  -3.771 129.394  0.00  0.00    +0.000 HD
ENDBRANCH   4  12
BRANCH  11  14
ATOM     14  C   UNL     1      -7.544   0.432 124.053  0.00  0.00    +0.000 C 
BRANCH  14  15
ATOM     15  C   UNL     1      -8.421   1.564 123.669  0.00  0.00    +0.000 C 
BRANCH  15  16
ATOM     16  C   UNL     1      -8.082   2.785 122.889  0.00  0.00    +0.000 C 
BRANCH  16  17
ATOM     17  O   UNL     1      -8.222   3.872 123.783  0.00  0.00    +0.000 OA
ATOM     18  H   UNL     1      -9.138   3.826 124.120  0.00  0.00    +0.000 HD
ENDBRANCH  16  17
BRANCH  16  19
ATOM     19  C   UNL     1      -6.632   2.725 122.326  0.00  0.00    +0.000 C 
BRANCH  19  20
ATOM     20  C   UNL     1      -6.179   4.087 121.897  0.00  0.00    +0.000 C 
BRANCH  20  21
ATOM     21  O   UNL     1      -5.459   4.705 122.969  0.00  0.00    +0.000 OA
ATOM     22  H   UNL     1      -5.649   4.190 123.783  0.00  0.00    +0.000 HD
ENDBRANCH  20  21
BRANCH  20  23
ATOM     23  C   UNL     1      -5.215   4.030 120.733  0.00  0.00    +0.000 C 
BRANCH  23  24
ATOM     24  C   UNL     1      -5.033   5.397 120.122  0.00  0.00    +0.000 C 
ATOM     25  O   UNL     1      -5.534   5.692 119.045  0.00  0.00    +0.000 OA
BRANCH  24  26
ATOM     26  O   UNL     1      -4.288   6.284 120.822  0.00  0.00    +0.000 OA
ATOM     27  H   UNL     1      -4.519   7.230 120.653  0.00  0.00    +0.000 HD
ENDBRANCH  24  26
ENDBRANCH  23  24
ENDBRANCH  20  23
ENDBRANCH  19  20
ENDBRANCH  16  19
ENDBRANCH  15  16
ENDBRANCH  14  15
ENDBRANCH  11  14
BRANCH   2  28
ATOM     28  O   UNL     1      -7.790   0.506 126.985  0.00  0.00    +0.000 OA
BRANCH  28  29
ATOM     29  C   UNL     1      -7.817   1.683 127.605  0.00  0.00    +0.000 C 
ATOM     30  O   UNL     1      -8.818   2.068 128.153  0.00  0.00    +0.000 OA
BRANCH  29  31
ATOM     31  C   UNL     1      -6.554   2.378 127.806  0.00  0.00    +0.000 C 
ATOM     32  C   UNL     1      -5.538   1.669 128.700  0.00  0.00    +0.000 C 
BRANCH  31  33
ATOM     33  C   UNL     1      -6.024   2.670 126.418  0.00  0.00    +0.000 C 
ATOM     34  C   UNL     1      -4.754   1.887 126.305  0.00  0.00    +0.000 C 
ENDBRANCH  31  33
ENDBRANCH  29  31
ENDBRANCH  28  29
ENDBRANCH   2  28
TORSDOF 15
ENDMDL
MODEL 2
REMARK VINA RESULT:      -7.1      4.928      8.830
REMARK  Name = Pravastatin
REMARK  18 active torsions:
REMARK  status: ('A' for Active; 'I' for Inactive)
REMARK    1  A    between atoms: C_3  and  O_25
REMARK    2  A    between atoms: C_5  and  O_6
REMARK    3  A    between atoms: C_11  and  C_12
REMARK    4  A    between atoms: C_13  and  C_14
REMARK    5  A    between atoms: C_14  and  C_15
REMARK    6  A    between atoms: C_15  and  C_16
REMARK    7  A    between atoms: C_16  and  O_17
REMARK    8  A    between atoms: C_16  and  C_18
REMARK    9  A    between atoms: C_18  and  C_19
REMARK   10  A    between atoms: C_19  and  O_20
REMARK   11  A    between atoms: C_19  and  C_21
REMARK   12  A    between atoms: C_21  and  C_22
REMARK   13  A    between atoms: C_22  and  O_23
REMARK   14  A    between atoms: O_25  and  C_26
REMARK   15  A    between atoms: C_26  and  C_28
REMARK   16  A    between atoms: C_28  and  C_29
REMARK   17  A    between atoms: C_28  and  C_30
REMARK   18  A    between atoms: C_30  and  C_31
REMARK                            x       y       z     vdW  Elec       q    Type
REMARK                         _______ _______ _______ _____ _____    ______ ____
ROOT
ATOM      1  C   UNL     1      -4.459   5.018 129.853  0.00  0.00    +0.000 C 
ATOM      2  C   UNL     1      -5.201   4.095 128.824  0.00  0.00    +0.000 C 
ATOM      3  C   UNL     1      -4.673   4.266 127.434  0.00  0.00    +0.000 C 
ATOM      4  C   UNL     1      -3.246   3.931 127.319  0.00  0.00    +0.000 C 
ATOM      5  C   UNL     1      -2.571   4.965 128.127  0.00  0.00    +0.000 C 
ATOM      6  C   UNL     1      -3.127   5.509 129.233  0.00  0.00    +0.000 C 
ATOM      7  C   UNL     1      -2.491   6.653 129.832  0.00  0.00    +0.000 C 
ATOM      8  C   UNL     1      -3.071   7.376 130.794  0.00  0.00    +0.000 C 
ATOM      9  C   UNL     1      -4.433   7.093 131.360  0.00  0.00    +0.000 C 
ATOM     10  C   UNL     1      -4.252   6.432 132.732  0.00  0.00    +0.000 C 
ATOM     11  C   UNL     1      -5.318   6.209 130.440  0.00  0.00    +0.000 C 
ENDROOT
BRANCH   4  12
ATOM     12  O   UNL     1      -3.008   2.617 127.785  0.00  0.00    +0.000 OA
ATOM     13  H   UNL     1      -2.112   2.343 127.526  0.00  0.00    +0.000 HD
ENDBRANCH   4  12
BRANCH  11  14
ATOM     14  C   UNL     1      -6.600   5.852 131.309  0.00  0.00    +0.000 C 
BRANCH  14  15
ATOM     15  C   UNL     1      -7.725   6.812 131.189  0.00  0.00    +0.000 C 
BRANCH  15  16
ATOM     16  C   UNL     1      -9.119   6.564 130.733  0.00  0.00    +0.000 C 
BRANCH  16  17
ATOM     17  O   UNL     1      -9.922   6.582 131.897  0.00  0.00    +0.000 OA
ATOM     18  H   UNL     1      -9.362   6.227 132.615  0.00  0.00    +0.000 HD
ENDBRANCH  16  17
BRANCH  16  19
ATOM     19  C   UNL     1      -9.597   7.649 129.724  0.00  0.00    +0.000 C 
BRANCH  19  20
ATOM     20  C   UNL     1     -10.335   7.017 128.584  0.00  0.00    +0.000 C 
BRANCH  20  21
ATOM     21  O   UNL     1     -11.291   6.084 129.099  0.00  0.00    +0.000 OA
ATOM     22  H   UNL     1     -11.561   5.502 128.357  0.00  0.00    +0.000 HD
ENDBRANCH  20  21
BRANCH  20  23
ATOM     23  C   UNL     1     -11.131   8.027 127.788  0.00  0.00    +0.000 C 
BRANCH  23  24
ATOM     24  C   UNL     1     -12.372   7.393 127.210  0.00  0.00    +0.000 C 
ATOM     25  O   UNL     1     -13.483   7.617 127.670  0.00  0.00    +0.000 OA
BRANCH  24  26
ATOM     26  O   UNL     1     -12.198   6.562 126.156  0.00  0.00    +0.000 OA
ATOM     27  H   UNL     1     -12.702   6.823 125.346  0.00  0.00    +0.000 HD
ENDBRANCH  24  26
ENDBRANCH  23  24
ENDBRANCH  20  23
ENDBRANCH  19  20
ENDBRANCH  16  19
ENDBRANCH  15  16
ENDBRANCH  14  15
ENDBRANCH  11  14
BRANCH   2  28
ATOM     28  O   UNL     1      -6.536   4.560 128.665  0.00  0.00    +0.000 OA
BRANCH  28  29
ATOM     29  C   UNL     1      -7.752   4.129 128.342  0.00  0.00    +0.000 C 
ATOM     30  O   UNL     1      -8.346   4.602 127.407  0.00  0.00    +0.000 OA
BRANCH  29  31
ATOM     31  C   UNL     1      -8.245   2.923 128.992  0.00  0.00    +0.000 C 
ATOM     32  C   UNL     1      -9.448   3.109 129.916  0.00  0.00    +0.000 C 
BRANCH  31  33
ATOM     33  C   UNL     1      -8.499   1.932 127.875  0.00  0.00    +0.000 C 
ATOM     34  C   UNL     1      -7.447   0.879 128.033  0.00  0.00    +0.000 C 
ENDBRANCH  31  33
ENDBRANCH  29  31
ENDBRANCH  28  29
ENDBRANCH   2  28
TORSDOF 15
ENDMDL
MODEL 3
REMARK VINA RESULT:      -6.8      2.959      5.532
REMARK  Name = Pravastatin
REMARK  18 active torsions:
REMARK  status: ('A' for Active; 'I' for Inactive)
REMARK    1  A    between atoms: C_3  and  O_25
REMARK    2  A    between atoms: C_5  and  O_6
REMARK    3  A    between atoms: C_11  and  C_12
REMARK    4  A    between atoms: C_13  and  C_14
REMARK    5  A    between atoms: C_14  and  C_15
REMARK    6  A    between atoms: C_15  and  C_16
REMARK    7  A    between atoms: C_16  and  O_17
REMARK    8  A    between atoms: C_16  and  C_18
REMARK    9  A    between atoms: C_18  and  C_19
REMARK   10  A    between atoms: C_19  and  O_20
REMARK   11  A    between atoms: C_19  and  C_21
REMARK   12  A    between atoms: C_21  and  C_22
REMARK   13  A    between atoms: C_22  and  O_23
REMARK   14  A    between atoms: O_25  and  C_26
REMARK   15  A    between atoms: C_26  and  C_28
REMARK   16  A    between atoms: C_28  and  C_29
REMARK   17  A    between atoms: C_28  and  C_30
REMARK   18  A    between atoms: C_30  and  C_31
REMARK                            x       y       z     vdW  Elec       q    Type
REMARK                         _______ _______ _______ _____ _____    ______ ____
ROOT
ATOM      1  C   UNL     1      -8.471   0.057 124.634  0.00  0.00    +0.000 C 
ATOM      2  C   UNL     1      -9.094   1.478 124.411  0.00  0.00    +0.000 C 
ATOM      3  C   UNL     1      -9.384   1.744 122.968  0.00  0.00    +0.000 C 
ATOM      4  C   UNL     1     -10.343   0.790 122.391  0.00  0.00    +0.000 C 
ATOM      5  C   UNL     1      -9.623  -0.498 122.418  0.00  0.00    +0.000 C 
ATOM      6  C   UNL     1      -8.733  -0.820 123.384  0.00  0.00    +0.000 C 
ATOM      7  C   UNL     1      -7.929  -2.002 123.213  0.00  0.00    +0.000 C 
ATOM      8  C   UNL     1      -6.891  -2.285 124.005  0.00  0.00    +0.000 C 
ATOM      9  C   UNL     1      -6.441  -1.423 125.149  0.00  0.00    +0.000 C 
ATOM     10  C   UNL     1      -6.905  -2.081 126.455  0.00  0.00    +0.000 C 
ATOM     11  C   UNL     1      -6.949   0.042 125.064  0.00  0.00    +0.000 C 
ENDROOT
BRANCH   4  12
ATOM     12  O   UNL     1     -11.539   0.775 123.146  0.00  0.00    +0.000 OA
ATOM     13  H   UNL     1     -12.240   1.225 122.644  0.00  0.00    +0.000 HD
ENDBRANCH   4  12
BRANCH  11  14
ATOM     14  C   UNL     1      -6.556   0.704 126.454  0.00  0.00    +0.000 C 
BRANCH  14  15
ATOM     15  C   UNL     1      -5.176   1.243 126.523  0.00  0.00    +0.000 C 
BRANCH  15  16
ATOM     16  C   UNL     1      -4.548   2.065 127.592  0.00  0.00    +0.000 C 
BRANCH  16  17
ATOM     17  O   UNL     1      -4.173   1.161 128.613  0.00  0.00    +0.000 OA
ATOM     18  H   UNL     1      -5.007   0.836 129.004  0.00  0.00    +0.000 HD
ENDBRANCH  16  17
BRANCH  16  19
ATOM     19  C   UNL     1      -3.305   2.842 127.067  0.00  0.00    +0.000 C 
BRANCH  19  20
ATOM     20  C   UNL     1      -2.832   3.829 128.089  0.00  0.00    +0.000 C 
BRANCH  20  21
ATOM     21  O   UNL     1      -2.015   4.816 127.451  0.00  0.00    +0.000 OA
ATOM     22  H   UNL     1      -2.531   5.650 127.424  0.00  0.00    +0.000 HD
ENDBRANCH  20  21
BRANCH  20  23
ATOM     23  C   UNL     1      -3.976   4.588 128.724  0.00  0.00    +0.000 C 
BRANCH  23  24
ATOM     24  C   UNL     1      -3.605   6.034 128.935  0.00  0.00    +0.000 C 
ATOM     25  O   UNL     1      -4.131   6.934 128.293  0.00  0.00    +0.000 OA
BRANCH  24  26
ATOM     26  O   UNL     1      -2.661   6.293 129.870  0.00  0.00    +0.000 OA
ATOM     27  H   UNL     1      -2.173   5.493 130.185  0.00  0.00    +0.000 HD
ENDBRANCH  24  26
ENDBRANCH  23  24
ENDBRANCH  20  23
ENDBRANCH  19  20
ENDBRANCH  16  19
ENDBRANCH  15  16
ENDBRANCH  14  15
ENDBRANCH  11  14
BRANCH   2  28
ATOM     28  O   UNL     1      -8.103   2.464 124.674  0.00  0.00    +0.000 OA
BRANCH  28  29
ATOM     29  C   UNL     1      -7.960   3.779 124.812  0.00  0.00    +0.000 C 
ATOM     30  O   UNL     1      -8.764   4.425 125.434  0.00  0.00    +0.000 OA
BRANCH  29  31
ATOM     31  C   UNL     1      -6.697   4.376 124.400  0.00  0.00    +0.000 C 
ATOM     32  C   UNL     1      -5.822   4.927 125.525  0.00  0.00    +0.000 C 
BRANCH  31  33
ATOM     33  C   UNL     1      -6.000   3.321 123.566  0.00  0.00    +0.000 C 
ATOM     34  C   UNL     1      -6.078   3.814 122.156  0.00  0.00    +0.000 C 
ENDBRANCH  31  33
ENDBRANCH  29  31
ENDBRANCH  28  29
ENDBRANCH   2  28
TORSDOF 15
ENDMDL
MODEL 4
REMARK VINA RESULT:      -6.8      2.532      3.604
REMARK  Name = Pravastatin
REMARK  18 active torsions:
REMARK  status: ('A' for Active; 'I' for Inactive)
REMARK    1  A    between atoms: C_3  and  O_25
REMARK    2  A    between atoms: C_5  and  O_6
REMARK    3  A    between atoms: C_11  and  C_12
REMARK    4  A    between atoms: C_13  and  C_14
REMARK    5  A    between atoms: C_14  and  C_15
REMARK    6  A    between atoms: C_15  and  C_16
REMARK    7  A    between atoms: C_16  and  O_17
REMARK    8  A    between atoms: C_16  and  C_18
REMARK    9  A    between atoms: C_18  and  C_19
REMARK   10  A    between atoms: C_19  and  O_20
REMARK   11  A    between atoms: C_19  and  C_21
REMARK   12  A    between atoms: C_21  and  C_22
REMARK   13  A    between atoms: C_22  and  O_23
REMARK   14  A    between atoms: O_25  and  C_26
REMARK   15  A    between atoms: C_26  and  C_28
REMARK   16  A    between atoms: C_28  and  C_29
REMARK   17  A    between atoms: C_28  and  C_30
REMARK   18  A    between atoms: C_30  and  C_31
REMARK                            x       y       z     vdW  Elec       q    Type
REMARK                         _______ _______ _______ _____ _____    ______ ____
ROOT
ATOM      1  C   UNL     1      -6.872  -2.242 126.830  0.00  0.00    +0.000 C 
ATOM      2  C   UNL     1      -6.636  -1.713 128.287  0.00  0.00    +0.000 C 
ATOM      3  C   UNL     1      -7.832  -1.920 129.161  0.00  0.00    +0.000 C 
ATOM      4  C   UNL     1      -8.199  -3.338 129.303  0.00  0.00    +0.000 C 
ATOM      5  C   UNL     1      -8.627  -3.731 127.947  0.00  0.00    +0.000 C 
ATOM      6  C   UNL     1      -8.086  -3.206 126.826  0.00  0.00    +0.000 C 
ATOM      7  C   UNL     1      -8.708  -3.493 125.560  0.00  0.00    +0.000 C 
ATOM      8  C   UNL     1      -8.372  -2.859 124.434  0.00  0.00    +0.000 C 
ATOM      9  C   UNL     1      -7.323  -1.788 124.347  0.00  0.00    +0.000 C 
ATOM     10  C   UNL     1      -6.063  -2.401 123.723  0.00  0.00    +0.000 C 
ATOM     11  C   UNL     1      -6.991  -1.129 125.713  0.00  0.00    +0.000 C 
ENDROOT
BRANCH   4  12
ATOM     12  O   UNL     1      -7.097  -4.087 129.778  0.00  0.00    +0.000 OA
ATOM     13  H   UNL     1      -7.422  -4.897 130.208  0.00  0.00    +0.000 HD
ENDBRANCH   4  12
BRANCH  11  14
ATOM     14  C   UNL     1      -5.727  -0.206 125.438  0.00  0.00    +0.000 C 
BRANCH  14  15
ATOM     15  C   UNL     1      -6.016   1.248 125.372  0.00  0.00    +0.000 C 
BRANCH  15  16
ATOM     16  C   UNL     1      -5.385   2.360 126.134  0.00  0.00    +0.000 C 
BRANCH  16  17
ATOM     17  O   UNL     1      -4.209   1.825 126.708  0.00  0.00    +0.000 OA
ATOM     18  H   UNL     1      -4.110   0.928 126.332  0.00  0.00    +0.000 HD
ENDBRANCH  16  17
BRANCH  16  19
ATOM     19  C   UNL     1      -5.043   3.568 125.213  0.00  0.00    +0.000 C 
BRANCH  19  20
ATOM     20  C   UNL     1      -5.806   4.785 125.639  0.00  0.00    +0.000 C 
BRANCH  20  21
ATOM     21  O   UNL     1      -6.378   5.410 124.486  0.00  0.00    +0.000 OA
ATOM     22  H   UNL     1      -7.207   4.929 124.273  0.00  0.00    +0.000 HD
ENDBRANCH  20  21
BRANCH  20  23
ATOM     23  C   UNL     1      -6.969   4.444 126.544  0.00  0.00    +0.000 C 
BRANCH  23  24
ATOM     24  C   UNL     1      -8.281   4.720 125.854  0.00  0.00    +0.000 C 
ATOM     25  O   UNL     1      -8.918   5.743 126.068  0.00  0.00    +0.000 OA
BRANCH  24  26
ATOM     26  O   UNL     1      -8.724   3.781 124.986  0.00  0.00    +0.000 OA
ATOM     27  H   UNL     1      -9.032   2.945 125.415  0.00  0.00    +0.000 HD
ENDBRANCH  24  26
ENDBRANCH  23  24
ENDBRANCH  20  23
ENDBRANCH  19  20
ENDBRANCH  16  19
ENDBRANCH  15  16
ENDBRANCH  14  15
ENDBRANCH  11  14
BRANCH   2  28
ATOM     28  O   UNL     1      -6.567  -0.292 128.258  0.00  0.00    +0.000 OA
BRANCH  28  29
ATOM     29  C   UNL     1      -6.459   0.758 129.067  0.00  0.00    +0.000 C 
ATOM     30  O   UNL     1      -5.406   1.033 129.582  0.00  0.00    +0.000 OA
BRANCH  29  31
ATOM     31  C   UNL     1      -7.574   1.693 129.126  0.00  0.00    +0.000 C 
ATOM     32  C   UNL     1      -8.595   1.583 127.994  0.00  0.00    +0.000 C 
BRANCH  31  33
ATOM     33  C   UNL     1      -8.185   1.512 130.500  0.00  0.00    +0.000 C 
ATOM     34  C   UNL     1      -7.953   2.809 131.210  0.00  0.00    +0.000 C 
ENDBRANCH  31  33
ENDBRANCH  29  31
ENDBRANCH  28  29
ENDBRANCH   2  28
TORSDOF 15
ENDMDL
MODEL 5
REMARK VINA RESULT:      -6.8      2.741      7.204
REMARK  Name = Pravastatin
REMARK  18 active torsions:
REMARK  status: ('A' for Active; 'I' for Inactive)
REMARK    1  A    between atoms: C_3  and  O_25
REMARK    2  A    between atoms: C_5  and  O_6
REMARK    3  A    between atoms: C_11  and  C_12
REMARK    4  A    between atoms: C_13  and  C_14
REMARK    5  A    between atoms: C_14  and  C_15
REMARK    6  A    between atoms: C_15  and  C_16
REMARK    7  A    between atoms: C_16  and  O_17
REMARK    8  A    between atoms: C_16  and  C_18
REMARK    9  A    between atoms: C_18  and  C_19
REMARK   10  A    between atoms: C_19  and  O_20
REMARK   11  A    between atoms: C_19  and  C_21
REMARK   12  A    between atoms: C_21  and  C_22
REMARK   13  A    between atoms: C_22  and  O_23
REMARK   14  A    between atoms: O_25  and  C_26
REMARK   15  A    between atoms: C_26  and  C_28
REMARK   16  A    between atoms: C_28  and  C_29
REMARK   17  A    between atoms: C_28  and  C_30
REMARK   18  A    between atoms: C_30  and  C_31
REMARK                            x       y       z     vdW  Elec       q    Type
REMARK                         _______ _______ _______ _____ _____    ______ ____
ROOT
ATOM      1  C   UNL     1      -9.141  -0.864 124.976  0.00  0.00    +0.000 C 
ATOM      2  C   UNL     1      -9.364   0.678 124.799  0.00  0.00    +0.000 C 
ATOM      3  C   UNL     1      -9.176   1.113 123.380  0.00  0.00    +0.000 C 
ATOM      4  C   UNL     1     -10.114   0.462 122.452  0.00  0.00    +0.000 C 
ATOM      5  C   UNL     1      -9.718  -0.959 122.486  0.00  0.00    +0.000 C 
ATOM      6  C   UNL     1      -9.222  -1.556 123.593  0.00  0.00    +0.000 C 
ATOM      7  C   UNL     1      -8.670  -2.880 123.472  0.00  0.00    +0.000 C 
ATOM      8  C   UNL     1      -7.978  -3.462 124.456  0.00  0.00    +0.000 C 
ATOM      9  C   UNL     1      -7.695  -2.822 125.784  0.00  0.00    +0.000 C 
ATOM     10  C   UNL     1      -8.633  -3.444 126.825  0.00  0.00    +0.000 C 
ATOM     11  C   UNL     1      -7.838  -1.276 125.774  0.00  0.00    +0.000 C 
ENDROOT
BRANCH   4  12
ATOM     12  O   UNL     1     -11.448   0.678 122.868  0.00  0.00    +0.000 OA
ATOM     13  H   UNL     1     -11.553   1.606 123.140  0.00  0.00    +0.000 HD
ENDBRANCH   4  12
BRANCH  11  14
ATOM     14  C   UNL     1      -7.720  -0.833 127.295  0.00  0.00    +0.000 C 
BRANCH  14  15
ATOM     15  C   UNL     1      -6.368  -0.390 127.715  0.00  0.00    +0.000 C 
BRANCH  15  16
ATOM     16  C   UNL     1      -5.436  -1.027 128.685  0.00  0.00    +0.000 C 
BRANCH  16  17
ATOM     17  O   UNL     1      -6.097  -1.004 129.935  0.00  0.00    +0.000 OA
ATOM     18  H   UNL     1      -5.564  -0.420 130.510  0.00  0.00    +0.000 HD
ENDBRANCH  16  17
BRANCH  16  19
ATOM     19  C   UNL     1      -5.090  -2.489 128.277  0.00  0.00    +0.000 C 
BRANCH  19  20
ATOM     20  C   UNL     1      -3.934  -2.998 129.082  0.00  0.00    +0.000 C 
BRANCH  20  21
ATOM     21  O   UNL     1      -3.316  -1.904 129.766  0.00  0.00    +0.000 OA
ATOM     22  H   UNL     1      -3.381  -1.119 129.181  0.00  0.00    +0.000 HD
ENDBRANCH  20  21
BRANCH  20  23
ATOM     23  C   UNL     1      -4.368  -3.967 130.159  0.00  0.00    +0.000 C 
BRANCH  23  24
ATOM     24  C   UNL     1      -4.057  -3.417 131.529  0.00  0.00    +0.000 C 
ATOM     25  O   UNL     1      -3.027  -3.710 132.121  0.00  0.00    +0.000 OA
BRANCH  24  26
ATOM     26  O   UNL     1      -4.971  -2.581 132.074  0.00  0.00    +0.000 OA
ATOM     27  H   UNL     1      -5.906  -2.889 131.984  0.00  0.00    +0.000 HD
ENDBRANCH  24  26
ENDBRANCH  23  24
ENDBRANCH  20  23
ENDBRANCH  19  20
ENDBRANCH  16  19
ENDBRANCH  15  16
ENDBRANCH  14  15
ENDBRANCH  11  14
BRANCH   2  28
ATOM     28  O   UNL     1      -8.301   1.375 125.438  0.00  0.00    +0.000 OA
BRANCH  28  29
ATOM     29  C   UNL     1      -7.724   2.573 125.479  0.00  0.00    +0.000 C 
ATOM     30  O   UNL     1      -8.296   3.516 125.962  0.00  0.00    +0.000 OA
BRANCH  29  31
ATOM     31  C   UNL     1      -6.309   2.661 125.146  0.00  0.00    +0.000 C 
ATOM     32  C   UNL     1      -5.956   3.582 123.978  0.00  0.00    +0.000 C 
BRANCH  31  33
ATOM     33  C   UNL     1      -5.609   3.039 126.435  0.00  0.00    +0.000 C 
ATOM     34  C   UNL     1      -4.286   2.342 126.387  0.00  0.00    +0.000 C 
ENDBRANCH  31  33
ENDBRANCH  29  31
ENDBRANCH  28  29
ENDBRANCH   2  28
TORSDOF 15
ENDMDL
MODEL 6
REMARK VINA RESULT:      -6.8      2.792      6.248
REMARK  Name = Pravastatin
REMARK  18 active torsions:
REMARK  status: ('A' for Active; 'I' for Inactive)
REMARK    1  A    between atoms: C_3  and  O_25
REMARK    2  A    between atoms: C_5  and  O_6
REMARK    3  A    between atoms: C_11  and  C_12
REMARK    4  A    between atoms: C_13  and  C_14
REMARK    5  A    between atoms: C_14  and  C_15
REMARK    6  A    between atoms: C_15  and  C_16
REMARK    7  A    between atoms: C_16  and  O_17
REMARK    8  A    between atoms: C_16  and  C_18
REMARK    9  A    between atoms: C_18  and  C_19
REMARK   10  A    between atoms: C_19  and  O_20
REMARK   11  A    between atoms: C_19  and  C_21
REMARK   12  A    between atoms: C_21  and  C_22
REMARK   13  A    between atoms: C_22  and  O_23
REMARK   14  A    between atoms: O_25  and  C_26
REMARK   15  A    between atoms: C_26  and  C_28
REMARK   16  A    between atoms: C_28  and  C_29
REMARK   17  A    between atoms: C_28  and  C_30
REMARK   18  A    between atoms: C_30  and  C_31
REMARK                            x       y       z     vdW  Elec       q    Type
REMARK                         _______ _______ _______ _____ _____    ______ ____
ROOT
ATOM      1  C   UNL     1      -9.146  -0.140 125.202  0.00  0.00    +0.000 C 
ATOM      2  C   UNL     1      -9.712   1.275 124.835  0.00  0.00    +0.000 C 
ATOM      3  C   UNL     1      -9.487   1.614 123.395  0.00  0.00    +0.000 C 
ATOM      4  C   UNL     1     -10.140   0.669 122.476  0.00  0.00    +0.000 C 
ATOM      5  C   UNL     1      -9.420  -0.600 122.701  0.00  0.00    +0.000 C 
ATOM      6  C   UNL     1      -8.914  -0.952 123.904  0.00  0.00    +0.000 C 
ATOM      7  C   UNL     1      -8.051  -2.101 123.978  0.00  0.00    +0.000 C 
ATOM      8  C   UNL     1      -7.346  -2.402 125.072  0.00  0.00    +0.000 C 
ATOM      9  C   UNL     1      -7.364  -1.594 126.338  0.00  0.00    +0.000 C 
ATOM     10  C   UNL     1      -8.230  -2.335 127.365  0.00  0.00    +0.000 C 
ATOM     11  C   UNL     1      -7.873  -0.140 126.142  0.00  0.00    +0.000 C 
ENDROOT
BRANCH   4  12
ATOM     12  O   UNL     1     -11.523   0.582 122.758  0.00  0.00    +0.000 OA
ATOM     13  H   UNL     1     -11.820   1.415 123.162  0.00  0.00    +0.000 HD
ENDBRANCH   4  12
BRANCH  11  14
ATOM     14  C   UNL     1      -8.023   0.453 127.608  0.00  0.00    +0.000 C 
BRANCH  14  15
ATOM     15  C   UNL     1      -6.825   1.159 128.124  0.00  0.00    +0.000 C 
BRANCH  15  16
ATOM     16  C   UNL     1      -6.666   1.925 129.390  0.00  0.00    +0.000 C 
BRANCH  16  17
ATOM     17  O   UNL     1      -5.884   3.058 129.066  0.00  0.00    +0.000 OA
ATOM     18  H   UNL     1      -4.972   2.843 129.342  0.00  0.00    +0.000 HD
ENDBRANCH  16  17
BRANCH  16  19
ATOM     19  C   UNL     1      -8.040   2.359 129.978  0.00  0.00    +0.000 C 
BRANCH  19  20
ATOM     20  C   UNL     1      -8.245   3.832 129.801  0.00  0.00    +0.000 C 
BRANCH  20  21
ATOM     21  O   UNL     1      -8.829   4.076 128.517  0.00  0.00    +0.000 OA
ATOM     22  H   UNL     1      -9.767   4.322 128.664  0.00  0.00    +0.000 HD
ENDBRANCH  20  21
BRANCH  20  23
ATOM     23  C   UNL     1      -9.217   4.400 130.811  0.00  0.00    +0.000 C 
BRANCH  23  24
ATOM     24  C   UNL     1     -10.587   4.563 130.201  0.00  0.00    +0.000 C 
ATOM     25  O   UNL     1     -10.922   5.597 129.638  0.00  0.00    +0.000 OA
BRANCH  24  26
ATOM     26  O   UNL     1     -11.431   3.510 130.306  0.00  0.00    +0.000 OA
ATOM     27  H   UNL     1     -12.166   3.513 129.645  0.00  0.00    +0.000 HD
ENDBRANCH  24  26
ENDBRANCH  23  24
ENDBRANCH  20  23
ENDBRANCH  19  20
ENDBRANCH  16  19
ENDBRANCH  15  16
ENDBRANCH  14  15
ENDBRANCH  11  14
BRANCH   2  28
ATOM     28  O   UNL     1      -8.920   2.270 125.473  0.00  0.00    +0.000 OA
BRANCH  28  29
ATOM     29  C   UNL     1      -8.253   3.390 125.210  0.00  0.00    +0.000 C 
ATOM     30  O   UNL     1      -8.758   4.467 125.398  0.00  0.00    +0.000 OA
BRANCH  29  31
ATOM     31  C   UNL     1      -6.830   3.285 124.918  0.00  0.00    +0.000 C 
ATOM     32  C   UNL     1      -6.436   3.472 123.454  0.00  0.00    +0.000 C 
BRANCH  31  33
ATOM     33  C   UNL     1      -6.149   4.267 125.849  0.00  0.00    +0.000 C 
ATOM     34  C   UNL     1      -4.704   3.879 125.847  0.00  0.00    +0.000 C 
ENDBRANCH  31  33
ENDBRANCH  29  31
ENDBRANCH  28  29
ENDBRANCH   2  28
TORSDOF 15
ENDMDL
MODEL 7
REMARK VINA RESULT:      -6.8      1.232      1.782
REMARK  Name = Pravastatin
REMARK  18 active torsions:
REMARK  status: ('A' for Active; 'I' for Inactive)
REMARK    1  A    between atoms: C_3  and  O_25
REMARK    2  A    between atoms: C_5  and  O_6
REMARK    3  A    between atoms: C_11  and  C_12
REMARK    4  A    between atoms: C_13  and  C_14
REMARK    5  A    between atoms: C_14  and  C_15
REMARK    6  A    between atoms: C_15  and  C_16
REMARK    7  A    between atoms: C_16  and  O_17
REMARK    8  A    between atoms: C_16  and  C_18
REMARK    9  A    between atoms: C_18  and  C_19
REMARK   10  A    between atoms: C_19  and  O_20
REMARK   11  A    between atoms: C_19  and  C_21
REMARK   12  A    between atoms: C_21  and  C_22
REMARK   13  A    between atoms: C_22  and  O_23
REMARK   14  A    between atoms: O_25  and  C_26
REMARK   15  A    between atoms: C_26  and  C_28
REMARK   16  A    between atoms: C_28  and  C_29
REMARK   17  A    between atoms: C_28  and  C_30
REMARK   18  A    between atoms: C_30  and  C_31
REMARK                            x       y       z     vdW  Elec       q    Type
REMARK                         _______ _______ _______ _____ _____    ______ ____
ROOT
ATOM      1  C   UNL     1      -7.283  -1.697 125.626  0.00  0.00    +0.000 C 
ATOM      2  C   UNL     1      -7.083  -1.011 127.022  0.00  0.00    +0.000 C 
ATOM      3  C   UNL     1      -8.149  -1.401 127.997  0.00  0.00    +0.000 C 
ATOM      4  C   UNL     1      -8.182  -2.848 128.261  0.00  0.00    +0.000 C 
ATOM      5  C   UNL     1      -8.593  -3.435 126.971  0.00  0.00    +0.000 C 
ATOM      6  C   UNL     1      -8.250  -2.898 125.779  0.00  0.00    +0.000 C 
ATOM      7  C   UNL     1      -8.868  -3.417 124.587  0.00  0.00    +0.000 C 
ATOM      8  C   UNL     1      -8.749  -2.820 123.398  0.00  0.00    +0.000 C 
ATOM      9  C   UNL     1      -7.971  -1.557 123.159  0.00  0.00    +0.000 C 
ATOM     10  C   UNL     1      -6.646  -1.932 122.484  0.00  0.00    +0.000 C 
ATOM     11  C   UNL     1      -7.713  -0.732 124.449  0.00  0.00    +0.000 C 
ENDROOT
BRANCH   4  12
ATOM     12  O   UNL     1      -6.915  -3.298 128.700  0.00  0.00    +0.000 OA
ATOM     13  H   UNL     1      -7.011  -3.730 129.566  0.00  0.00    +0.000 HD
ENDBRANCH   4  12
BRANCH  11  14
ATOM     14  C   UNL     1      -6.705   0.418 124.017  0.00  0.00    +0.000 C 
BRANCH  14  15
ATOM     15  C   UNL     1      -7.345   1.642 123.477  0.00  0.00    +0.000 C 
BRANCH  15  16
ATOM     16  C   UNL     1      -7.159   3.057 123.899  0.00  0.00    +0.000 C 
BRANCH  16  17
ATOM     17  O   UNL     1      -6.717   3.010 125.242  0.00  0.00    +0.000 OA
ATOM     18  H   UNL     1      -5.847   2.566 125.223  0.00  0.00    +0.000 HD
ENDBRANCH  16  17
BRANCH  16  19
ATOM     19  C   UNL     1      -6.117   3.792 123.006  0.00  0.00    +0.000 C 
BRANCH  19  20
ATOM     20  C   UNL     1      -6.284   3.397 121.571  0.00  0.00    +0.000 C 
BRANCH  20  21
ATOM     21  O   UNL     1      -7.353   4.153 120.995  0.00  0.00    +0.000 OA
ATOM     22  H   UNL     1      -8.053   4.237 121.677  0.00  0.00    +0.000 HD
ENDBRANCH  20  21
BRANCH  20  23
ATOM     23  C   UNL     1      -5.059   3.717 120.743  0.00  0.00    +0.000 C 
BRANCH  23  24
ATOM     24  C   UNL     1      -5.170   5.091 120.133  0.00  0.00    +0.000 C 
ATOM     25  O   UNL     1      -4.657   6.071 120.657  0.00  0.00    +0.000 OA
BRANCH  24  26
ATOM     26  O   UNL     1      -5.867   5.192 118.977  0.00  0.00    +0.000 OA
ATOM     27  H   UNL     1      -6.444   4.414 118.783  0.00  0.00    +0.000 HD
ENDBRANCH  24  26
ENDBRANCH  23  24
ENDBRANCH  20  23
ENDBRANCH  19  20
ENDBRANCH  16  19
ENDBRANCH  15  16
ENDBRANCH  14  15
ENDBRANCH  11  14
BRANCH   2  28
ATOM     28  O   UNL     1      -7.334   0.383 126.892  0.00  0.00    +0.000 OA
BRANCH  28  29
ATOM     29  C   UNL     1      -7.977   1.381 127.491  0.00  0.00    +0.000 C 
ATOM     30  O   UNL     1      -8.989   1.833 127.019  0.00  0.00    +0.000 OA
BRANCH  29  31
ATOM     31  C   UNL     1      -7.563   1.751 128.837  0.00  0.00    +0.000 C 
ATOM     32  C   UNL     1      -6.486   2.831 128.929  0.00  0.00    +0.000 C 
BRANCH  31  33
ATOM     33  C   UNL     1      -8.838   2.116 129.570  0.00  0.00    +0.000 C 
ATOM     34  C   UNL     1      -8.693   1.524 130.936  0.00  0.00    +0.000 C 
ENDBRANCH  31  33
ENDBRANCH  29  31
ENDBRANCH  28  29
ENDBRANCH   2  28
TORSDOF 15
ENDMDL
MODEL 8
REMARK VINA RESULT:      -6.7      2.011      2.682
REMARK  Name = Pravastatin
REMARK  18 active torsions:
REMARK  status: ('A' for Active; 'I' for Inactive)
REMARK    1  A    between atoms: C_3  and  O_25
REMARK    2  A    between atoms: C_5  and  O_6
REMARK    3  A    between atoms: C_11  and  C_12
REMARK    4  A    between atoms: C_13  and  C_14
REMARK    5  A    between atoms: C_14  and  C_15
REMARK    6  A    between atoms: C_15  and  C_16
REMARK    7  A    between atoms: C_16  and  O_17
REMARK    8  A    between atoms: C_16  and  C_18
REMARK    9  A    between atoms: C_18  and  C_19
REMARK   10  A    between atoms: C_19  and  O_20
REMARK   11  A    between atoms: C_19  and  C_21
REMARK   12  A    between atoms: C_21  and  C_22
REMARK   13  A    between atoms: C_22  and  O_23
REMARK   14  A    between atoms: O_25  and  C_26
REMARK   15  A    between atoms: C_26  and  C_28
REMARK   16  A    between atoms: C_28  and  C_29
REMARK   17  A    between atoms: C_28  and  C_30
REMARK   18  A    between atoms: C_30  and  C_31
REMARK                            x       y       z     vdW  Elec       q    Type
REMARK                         _______ _______ _______ _____ _____    ______ ____
ROOT
ATOM      1  C   UNL     1      -7.507  -1.563 127.584  0.00  0.00    +0.000 C 
ATOM      2  C   UNL     1      -7.044  -1.084 129.003  0.00  0.00    +0.000 C 
ATOM      3  C   UNL     1      -7.735  -1.830 130.101  0.00  0.00    +0.000 C 
ATOM      4  C   UNL     1      -7.476  -3.277 130.061  0.00  0.00    +0.000 C 
ATOM      5  C   UNL     1      -8.126  -3.720 128.812  0.00  0.00    +0.000 C 
ATOM      6  C   UNL     1      -8.204  -2.941 127.711  0.00  0.00    +0.000 C 
ATOM      7  C   UNL     1      -9.035  -3.374 126.618  0.00  0.00    +0.000 C 
ATOM      8  C   UNL     1      -9.334  -2.582 125.585  0.00  0.00    +0.000 C 
ATOM      9  C   UNL     1      -8.850  -1.169 125.435  0.00  0.00    +0.000 C 
ATOM     10  C   UNL     1      -7.716  -1.158 124.402  0.00  0.00    +0.000 C 
ATOM     11  C   UNL     1      -8.380  -0.526 126.768  0.00  0.00    +0.000 C 
ENDROOT
BRANCH   4  12
ATOM     12  O   UNL     1      -6.085  -3.530 130.084  0.00  0.00    +0.000 OA
ATOM     13  H   UNL     1      -5.617  -2.786 129.668  0.00  0.00    +0.000 HD
ENDBRANCH   4  12
BRANCH  11  14
ATOM     14  C   UNL     1      -7.713   0.855 126.356  0.00  0.00    +0.000 C 
BRANCH  14  15
ATOM     15  C   UNL     1      -8.647   1.859 125.791  0.00  0.00    +0.000 C 
BRANCH  15  16
ATOM     16  C   UNL     1      -8.462   2.748 124.612  0.00  0.00    +0.000 C 
BRANCH  16  17
ATOM     17  O   UNL     1      -8.661   4.067 125.081  0.00  0.00    +0.000 OA
ATOM     18  H   UNL     1      -9.034   4.566 124.328  0.00  0.00    +0.000 HD
ENDBRANCH  16  17
BRANCH  16  19
ATOM     19  C   UNL     1      -7.041   2.597 123.994  0.00  0.00    +0.000 C 
BRANCH  19  20
ATOM     20  C   UNL     1      -7.050   3.006 122.553  0.00  0.00    +0.000 C 
BRANCH  20  21
ATOM     21  O   UNL     1      -8.226   3.777 122.288  0.00  0.00    +0.000 OA
ATOM     22  H   UNL     1      -8.792   3.731 123.088  0.00  0.00    +0.000 HD
ENDBRANCH  20  21
BRANCH  20  23
ATOM     23  C   UNL     1      -5.881   3.901 122.205  0.00  0.00    +0.000 C 
BRANCH  23  24
ATOM     24  C   UNL     1      -5.955   4.339 120.764  0.00  0.00    +0.000 C 
ATOM     25  O   UNL     1      -6.689   3.781 119.959  0.00  0.00    +0.000 OA
BRANCH  24  26
ATOM     26  O   UNL     1      -5.169   5.379 120.401  0.00  0.00    +0.000 OA
ATOM     27  H   UNL     1      -4.375   5.122 119.871  0.00  0.00    +0.000 HD
ENDBRANCH  24  26
ENDBRANCH  23  24
ENDBRANCH  20  23
ENDBRANCH  19  20
ENDBRANCH  16  19
ENDBRANCH  15  16
ENDBRANCH  14  15
ENDBRANCH  11  14
BRANCH   2  28
ATOM     28  O   UNL     1      -7.528   0.235 129.227  0.00  0.00    +0.000 OA
BRANCH  28  29
ATOM     29  C   UNL     1      -7.734   1.112 130.206  0.00  0.00    +0.000 C 
ATOM     30  O   UNL     1      -6.808   1.645 130.761  0.00  0.00    +0.000 OA
BRANCH  29  31
ATOM     31  C   UNL     1      -9.094   1.581 130.427  0.00  0.00    +0.000 C 
ATOM     32  C   UNL     1      -9.570   1.586 131.880  0.00  0.00    +0.000 C 
BRANCH  31  33
ATOM     33  C   UNL     1      -9.166   2.946 129.773  0.00  0.00    +0.000 C 
ATOM     34  C   UNL     1     -10.277   3.664 130.473  0.00  0.00    +0.000 C 
ENDBRANCH  31  33
ENDBRANCH  29  31
ENDBRANCH  28  29
ENDBRANCH   2  28
TORSDOF 15
ENDMDL
MODEL 9
REMARK VINA RESULT:      -6.7      2.155      3.106
REMARK  Name = Pravastatin
REMARK  18 active torsions:
REMARK  status: ('A' for Active; 'I' for Inactive)
REMARK    1  A    between atoms: C_3  and  O_25
REMARK    2  A    between atoms: C_5  and  O_6
REMARK    3  A    between atoms: C_11  and  C_12
REMARK    4  A    between atoms: C_13  and  C_14
REMARK    5  A    between atoms: C_14  and  C_15
REMARK    6  A    between atoms: C_15  and  C_16
REMARK    7  A    between atoms: C_16  and  O_17
REMARK    8  A    between atoms: C_16  and  C_18
REMARK    9  A    between atoms: C_18  and  C_19
REMARK   10  A    between atoms: C_19  and  O_20
REMARK   11  A    between atoms: C_19  and  C_21
REMARK   12  A    between atoms: C_21  and  C_22
REMARK   13  A    between atoms: C_22  and  O_23
REMARK   14  A    between atoms: O_25  and  C_26
REMARK   15  A    between atoms: C_26  and  C_28
REMARK   16  A    between atoms: C_28  and  C_29
REMARK   17  A    between atoms: C_28  and  C_30
REMARK   18  A    between atoms: C_30  and  C_31
REMARK                            x       y       z     vdW  Elec       q    Type
REMARK                         _______ _______ _______ _____ _____    ______ ____
ROOT
ATOM      1  C   UNL     1      -6.992  -2.067 127.230  0.00  0.00    +0.000 C 
ATOM      2  C   UNL     1      -5.967  -1.038 127.822  0.00  0.00    +0.000 C 
ATOM      3  C   UNL     1      -6.042  -0.967 129.315  0.00  0.00    +0.000 C 
ATOM      4  C   UNL     1      -5.742  -2.253 129.965  0.00  0.00    +0.000 C 
ATOM      5  C   UNL     1      -6.858  -3.127 129.554  0.00  0.00    +0.000 C 
ATOM      6  C   UNL     1      -7.471  -3.018 128.355  0.00  0.00    +0.000 C 
ATOM      7  C   UNL     1      -8.678  -3.769 128.128  0.00  0.00    +0.000 C 
ATOM      8  C   UNL     1      -9.458  -3.571 127.063  0.00  0.00    +0.000 C 
ATOM      9  C   UNL     1      -9.181  -2.559 125.988  0.00  0.00    +0.000 C 
ATOM     10  C   UNL     1      -8.638  -3.302 124.761  0.00  0.00    +0.000 C 
ATOM     11  C   UNL     1      -8.200  -1.438 126.426  0.00  0.00    +0.000 C 
ENDROOT
BRANCH   4  12
ATOM     12  O   UNL     1      -4.478  -2.732 129.550  0.00  0.00    +0.000 OA
ATOM     13  H   UNL     1      -4.588  -3.601 129.128  0.00  0.00    +0.000 HD
ENDBRANCH   4  12
BRANCH  11  14
ATOM     14  C   UNL     1      -7.875  -0.623 125.101  0.00  0.00    +0.000 C 
BRANCH  14  15
ATOM     15  C   UNL     1      -8.862   0.428 124.755  0.00  0.00    +0.000 C 
BRANCH  15  16
ATOM     16  C   UNL     1      -8.620   1.791 124.208  0.00  0.00    +0.000 C 
BRANCH  16  17
ATOM     17  O   UNL     1      -9.478   2.658 124.925  0.00  0.00    +0.000 OA
ATOM     18  H   UNL     1      -9.862   2.121 125.645  0.00  0.00    +0.000 HD
ENDBRANCH  16  17
BRANCH  16  19
ATOM     19  C   UNL     1      -7.136   2.227 124.380  0.00  0.00    +0.000 C 
BRANCH  19  20
ATOM     20  C   UNL     1      -6.770   3.259 123.357  0.00  0.00    +0.000 C 
BRANCH  20  21
ATOM     21  O   UNL     1      -7.965   3.824 122.808  0.00  0.00    +0.000 OA
ATOM     22  H   UNL     1      -8.715   3.511 123.358  0.00  0.00    +0.000 HD
ENDBRANCH  20  21
BRANCH  20  23
ATOM     23  C   UNL     1      -6.005   4.416 123.960  0.00  0.00    +0.000 C 
BRANCH  23  24
ATOM     24  C   UNL     1      -6.693   4.921 125.203  0.00  0.00    +0.000 C 
ATOM     25  O   UNL     1      -6.107   5.003 126.275  0.00  0.00    +0.000 OA
BRANCH  24  26
ATOM     26  O   UNL     1      -7.992   5.281 125.080  0.00  0.00    +0.000 OA
ATOM     27  H   UNL     1      -8.445   5.465 125.939  0.00  0.00    +0.000 HD
ENDBRANCH  24  26
ENDBRANCH  23  24
ENDBRANCH  20  23
ENDBRANCH  19  20
ENDBRANCH  16  19
ENDBRANCH  15  16
ENDBRANCH  14  15
ENDBRANCH  11  14
BRANCH   2  28
ATOM     28  O   UNL     1      -6.377   0.277 127.469  0.00  0.00    +0.000 OA
BRANCH  28  29
ATOM     29  C   UNL     1      -6.142   1.552 127.768  0.00  0.00    +0.000 C 
ATOM     30  O   UNL     1      -5.097   2.072 127.473  0.00  0.00    +0.000 OA
BRANCH  29  31
ATOM     31  C   UNL     1      -7.257   2.359 128.243  0.00  0.00    +0.000 C 
ATOM     32  C   UNL     1      -8.625   1.679 128.229  0.00  0.00    +0.000 C 
BRANCH  31  33
ATOM     33  C   UNL     1      -6.849   2.851 129.616  0.00  0.00    +0.000 C 
ATOM     34  C   UNL     1      -7.051   4.333 129.583  0.00  0.00    +0.000 C 
ENDBRANCH  31  33
ENDBRANCH  29  31
ENDBRANCH  28  29
ENDBRANCH   2  28
TORSDOF 15
ENDMDL
