MODEL 1
REMARK VINA RESULT:      -8.7      0.000      0.000
REMARK  Name = Prazepam
REMARK  3 active torsions:
REMARK  status: ('A' for Active; 'I' for Inactive)
REMARK    1  A    between atoms: N_8  and  C_9
REMARK    2  A    between atoms: C_9  and  C_10
REMARK    3  A    between atoms: C_17  and  C_18
REMARK                            x       y       z     vdW  Elec       q    Type
REMARK                         _______ _______ _______ _____ _____    ______ ____
ROOT
ATOM      1 CL   UNL     1      -4.125   3.686 126.065  0.00  0.00    +0.000 Cl
ATOM      2  C   UNL     1      -5.436   2.730 125.500  0.00  0.00    +0.000 A 
ATOM      3  C   UNL     1      -6.165   3.112 124.379  0.00  0.00    +0.000 A 
ATOM      4  C   UNL     1      -7.148   2.247 123.841  0.00  0.00    +0.000 A 
ATOM      5  C   UNL     1      -7.422   1.023 124.473  0.00  0.00    +0.000 A 
ATOM      6  C   UNL     1      -6.891   0.833 125.742  0.00  0.00    +0.000 A 
ATOM      7  C   UNL     1      -5.787   1.578 126.176  0.00  0.00    +0.000 A 
ATOM      8  N   UNL     1      -8.022  -0.092 123.790  0.00  0.00    +0.000 N 
ATOM      9  C   UNL     1      -9.288   0.074 123.219  0.00  0.00    +0.000 C 
ATOM     10  O   UNL     1      -9.953  -0.880 122.778  0.00  0.00    +0.000 OA
ATOM     11  C   UNL     1      -9.838   1.494 123.239  0.00  0.00    +0.000 C 
ATOM     12  N   UNL     1      -9.070   2.332 122.305  0.00  0.00    +0.000 NA
ATOM     13  C   UNL     1      -7.847   2.638 122.588  0.00  0.00    +0.000 C 
ENDROOT
BRANCH  13  14
ATOM     14  C   UNL     1      -7.080   3.448 121.603  0.00  0.00    +0.000 A 
ATOM     15  C   UNL     1      -5.741   3.757 121.853  0.00  0.00    +0.000 A 
ATOM     16  C   UNL     1      -5.048   4.569 120.954  0.00  0.00    +0.000 A 
ATOM     17  C   UNL     1      -5.659   4.985 119.769  0.00  0.00    +0.000 A 
ATOM     18  C   UNL     1      -6.963   4.584 119.475  0.00  0.00    +0.000 A 
ATOM     19  C   UNL     1      -7.695   3.859 120.414  0.00  0.00    +0.000 A 
ENDBRANCH  13  14
BRANCH   8  20
ATOM     20  C   UNL     1      -7.436  -1.475 123.713  0.00  0.00    +0.000 C 
BRANCH  20  21
ATOM     21  C   UNL     1      -7.510  -2.491 124.872  0.00  0.00    +0.000 C 
ATOM     22  C   UNL     1      -8.751  -2.597 125.687  0.00  0.00    +0.000 C 
ATOM     23  C   UNL     1      -8.347  -3.736 124.743  0.00  0.00    +0.000 C 
ENDBRANCH  20  21
ENDBRANCH   8  20
TORSDOF 3
ENDMDL
MODEL 2
REMARK VINA RESULT:      -8.6      2.970      6.744
REMARK  Name = Prazepam
REMARK  3 active torsions:
REMARK  status: ('A' for Active; 'I' for Inactive)
REMARK    1  A    between atoms: N_8  and  C_9
REMARK    2  A    between atoms: C_9  and  C_10
REMARK    3  A    between atoms: C_17  and  C_18
REMARK                            x       y       z     vdW  Elec       q    Type
REMARK                         _______ _______ _______ _____ _____    ______ ____
ROOT
ATOM      1 CL   UNL     1      -4.138  -4.562 124.146  0.00  0.00    +0.000 Cl
ATOM      2  C   UNL     1      -5.321  -3.369 123.783  0.00  0.00    +0.000 A 
ATOM      3  C   UNL     1      -6.478  -3.256 124.546  0.00  0.00    +0.000 A 
ATOM      4  C   UNL     1      -7.374  -2.183 124.325  0.00  0.00    +0.000 A 
ATOM      5  C   UNL     1      -7.118  -1.259 123.299  0.00  0.00    +0.000 A 
ATOM      6  C   UNL     1      -6.126  -1.589 122.384  0.00  0.00    +0.000 A 
ATOM      7  C   UNL     1      -5.133  -2.522 122.707  0.00  0.00    +0.000 A 
ATOM      8  N   UNL     1      -7.667   0.071 123.289  0.00  0.00    +0.000 N 
ATOM      9  C   UNL     1      -9.057   0.222 123.290  0.00  0.00    +0.000 C 
ATOM     10  O   UNL     1      -9.610   1.319 123.094  0.00  0.00    +0.000 OA
ATOM     11  C   UNL     1      -9.858  -1.061 123.470  0.00  0.00    +0.000 C 
ATOM     12  N   UNL     1      -9.696  -1.553 124.848  0.00  0.00    +0.000 NA
ATOM     13  C   UNL     1      -8.554  -2.032 125.217  0.00  0.00    +0.000 C 
ENDROOT
BRANCH  13  14
ATOM     14  C   UNL     1      -8.405  -2.480 126.629  0.00  0.00    +0.000 A 
ATOM     15  C   UNL     1      -7.667  -1.705 127.527  0.00  0.00    +0.000 A 
ATOM     16  C   UNL     1      -7.481  -2.163 128.832  0.00  0.00    +0.000 A 
ATOM     17  C   UNL     1      -8.108  -3.335 129.260  0.00  0.00    +0.000 A 
ATOM     18  C   UNL     1      -8.931  -4.048 128.388  0.00  0.00    +0.000 A 
ATOM     19  C   UNL     1      -9.039  -3.652 127.056  0.00  0.00    +0.000 A 
ENDBRANCH  13  14
BRANCH   8  20
ATOM     20  C   UNL     1      -6.862   1.337 123.184  0.00  0.00    +0.000 C 
BRANCH  20  21
ATOM     21  C   UNL     1      -6.351   2.118 124.413  0.00  0.00    +0.000 C 
ATOM     22  C   UNL     1      -7.197   2.214 125.635  0.00  0.00    +0.000 C 
ATOM     23  C   UNL     1      -5.906   1.388 125.652  0.00  0.00    +0.000 C 
ENDBRANCH  20  21
ENDBRANCH   8  20
TORSDOF 3
ENDMDL
MODEL 3
REMARK VINA RESULT:      -8.3      2.869      5.877
REMARK  Name = Prazepam
REMARK  3 active torsions:
REMARK  status: ('A' for Active; 'I' for Inactive)
REMARK    1  A    between atoms: N_8  and  C_9
REMARK    2  A    between atoms: C_9  and  C_10
REMARK    3  A    between atoms: C_17  and  C_18
REMARK                            x       y       z     vdW  Elec       q    Type
REMARK                         _______ _______ _______ _____ _____    ______ ____
ROOT
ATOM      1 CL   UNL     1      -6.157   3.696 120.412  0.00  0.00    +0.000 Cl
ATOM      2  C   UNL     1      -6.107   3.542 122.123  0.00  0.00    +0.000 A 
ATOM      3  C   UNL     1      -6.853   2.566 122.774  0.00  0.00    +0.000 A 
ATOM      4  C   UNL     1      -6.695   2.359 124.165  0.00  0.00    +0.000 A 
ATOM      5  C   UNL     1      -5.818   3.175 124.898  0.00  0.00    +0.000 A 
ATOM      6  C   UNL     1      -5.337   4.315 124.265  0.00  0.00    +0.000 A 
ATOM      7  C   UNL     1      -5.331   4.411 122.867  0.00  0.00    +0.000 A 
ATOM      8  N   UNL     1      -5.241   2.775 126.154  0.00  0.00    +0.000 N 
ATOM      9  C   UNL     1      -6.097   2.472 127.218  0.00  0.00    +0.000 C 
ATOM     10  O   UNL     1      -5.685   2.301 128.379  0.00  0.00    +0.000 OA
ATOM     11  C   UNL     1      -7.581   2.441 126.880  0.00  0.00    +0.000 C 
ATOM     12  N   UNL     1      -7.870   1.270 126.035  0.00  0.00    +0.000 NA
ATOM     13  C   UNL     1      -7.435   1.247 124.819  0.00  0.00    +0.000 C 
ENDROOT
BRANCH  13  14
ATOM     14  C   UNL     1      -7.701   0.031 124.002  0.00  0.00    +0.000 A 
ATOM     15  C   UNL     1      -6.655  -0.845 123.702  0.00  0.00    +0.000 A 
ATOM     16  C   UNL     1      -6.901  -1.948 122.885  0.00  0.00    +0.000 A 
ATOM     17  C   UNL     1      -8.200  -2.227 122.454  0.00  0.00    +0.000 A 
ATOM     18  C   UNL     1      -9.259  -1.407 122.846  0.00  0.00    +0.000 A 
ATOM     19  C   UNL     1      -9.005  -0.247 123.576  0.00  0.00    +0.000 A 
ENDBRANCH  13  14
BRANCH   8  20
ATOM     20  C   UNL     1      -3.769   2.739 126.455  0.00  0.00    +0.000 C 
BRANCH  20  21
ATOM     21  C   UNL     1      -2.962   3.983 126.881  0.00  0.00    +0.000 C 
ATOM     22  C   UNL     1      -3.665   5.160 127.463  0.00  0.00    +0.000 C 
ATOM     23  C   UNL     1      -2.754   4.295 128.340  0.00  0.00    +0.000 C 
ENDBRANCH  20  21
ENDBRANCH   8  20
TORSDOF 3
ENDMDL
MODEL 4
REMARK VINA RESULT:      -8.2      3.839      4.868
REMARK  Name = Prazepam
REMARK  3 active torsions:
REMARK  status: ('A' for Active; 'I' for Inactive)
REMARK    1  A    between atoms: N_8  and  C_9
REMARK    2  A    between atoms: C_9  and  C_10
REMARK    3  A    between atoms: C_17  and  C_18
REMARK                            x       y       z     vdW  Elec       q    Type
REMARK                         _______ _______ _______ _____ _____    ______ ____
ROOT
ATOM      1 CL   UNL     1      -7.589  -1.584 130.431  0.00  0.00    +0.000 Cl
ATOM      2  C   UNL     1      -7.837  -1.744 128.738  0.00  0.00    +0.000 A 
ATOM      3  C   UNL     1      -7.700  -0.650 127.890  0.00  0.00    +0.000 A 
ATOM      4  C   UNL     1      -7.767  -0.824 126.488  0.00  0.00    +0.000 A 
ATOM      5  C   UNL     1      -8.023  -2.097 125.953  0.00  0.00    +0.000 A 
ATOM      6  C   UNL     1      -8.450  -3.080 126.837  0.00  0.00    +0.000 A 
ATOM      7  C   UNL     1      -8.196  -2.970 128.210  0.00  0.00    +0.000 A 
ATOM      8  N   UNL     1      -7.658  -2.471 124.612  0.00  0.00    +0.000 N 
ATOM      9  C   UNL     1      -8.194  -1.744 123.545  0.00  0.00    +0.000 C 
ATOM     10  O   UNL     1      -8.082  -2.112 122.362  0.00  0.00    +0.000 OA
ATOM     11  C   UNL     1      -8.995  -0.507 123.928  0.00  0.00    +0.000 C 
ATOM     12  N   UNL     1      -8.086   0.525 124.453  0.00  0.00    +0.000 NA
ATOM     13  C   UNL     1      -7.523   0.345 125.602  0.00  0.00    +0.000 C 
ENDROOT
BRANCH  13  14
ATOM     14  C   UNL     1      -6.573   1.383 126.087  0.00  0.00    +0.000 A 
ATOM     15  C   UNL     1      -5.199   1.132 126.058  0.00  0.00    +0.000 A 
ATOM     16  C   UNL     1      -4.319   2.085 126.573  0.00  0.00    +0.000 A 
ATOM     17  C   UNL     1      -4.803   3.317 127.020  0.00  0.00    +0.000 A 
ATOM     18  C   UNL     1      -6.166   3.603 126.946  0.00  0.00    +0.000 A 
ATOM     19  C   UNL     1      -7.061   2.618 126.530  0.00  0.00    +0.000 A 
ENDBRANCH  13  14
BRANCH   8  20
ATOM     20  C   UNL     1      -6.805  -3.654 124.248  0.00  0.00    +0.000 C 
BRANCH  20  21
ATOM     21  C   UNL     1      -5.267  -3.658 124.373  0.00  0.00    +0.000 C 
ATOM     22  C   UNL     1      -4.464  -4.667 123.628  0.00  0.00    +0.000 C 
ATOM     23  C   UNL     1      -4.406  -3.188 123.231  0.00  0.00    +0.000 C 
ENDBRANCH  20  21
ENDBRANCH   8  20
TORSDOF 3
ENDMDL
MODEL 5
REMARK VINA RESULT:      -7.9      6.637      8.909
REMARK  Name = Prazepam
REMARK  3 active torsions:
REMARK  status: ('A' for Active; 'I' for Inactive)
REMARK    1  A    between atoms: N_8  and  C_9
REMARK    2  A    between atoms: C_9  and  C_10
REMARK    3  A    between atoms: C_17  and  C_18
REMARK                            x       y       z     vdW  Elec       q    Type
REMARK                         _______ _______ _______ _____ _____    ______ ____
ROOT
ATOM      1 CL   UNL     1      -2.699  -3.696 129.007  0.00  0.00    +0.000 Cl
ATOM      2  C   UNL     1      -3.650  -2.570 129.892  0.00  0.00    +0.000 A 
ATOM      3  C   UNL     1      -4.862  -2.110 129.389  0.00  0.00    +0.000 A 
ATOM      4  C   UNL     1      -5.700  -1.296 130.187  0.00  0.00    +0.000 A 
ATOM      5  C   UNL     1      -5.282  -0.911 131.472  0.00  0.00    +0.000 A 
ATOM      6  C   UNL     1      -3.952  -1.141 131.800  0.00  0.00    +0.000 A 
ATOM      7  C   UNL     1      -3.199  -2.099 131.110  0.00  0.00    +0.000 A 
ATOM      8  N   UNL     1      -6.200  -0.508 132.505  0.00  0.00    +0.000 N 
ATOM      9  C   UNL     1      -7.026   0.596 132.274  0.00  0.00    +0.000 C 
ATOM     10  O   UNL     1      -7.707   1.121 133.172  0.00  0.00    +0.000 OA
ATOM     11  C   UNL     1      -6.982   1.167 130.863  0.00  0.00    +0.000 C 
ATOM     12  N   UNL     1      -7.620   0.224 129.930  0.00  0.00    +0.000 NA
ATOM     13  C   UNL     1      -7.032  -0.895 129.661  0.00  0.00    +0.000 C 
ENDROOT
BRANCH  13  14
ATOM     14  C   UNL     1      -7.722  -1.849 128.751  0.00  0.00    +0.000 A 
ATOM     15  C   UNL     1      -8.260  -3.031 129.266  0.00  0.00    +0.000 A 
ATOM     16  C   UNL     1      -8.850  -3.949 128.396  0.00  0.00    +0.000 A 
ATOM     17  C   UNL     1      -8.988  -3.642 127.041  0.00  0.00    +0.000 A 
ATOM     18  C   UNL     1      -8.544  -2.413 126.552  0.00  0.00    +0.000 A 
ATOM     19  C   UNL     1      -7.863  -1.536 127.394  0.00  0.00    +0.000 A 
ENDBRANCH  13  14
BRANCH   8  20
ATOM     20  C   UNL     1      -6.286  -1.127 133.872  0.00  0.00    +0.000 C 
BRANCH  20  21
ATOM     21  C   UNL     1      -6.799  -2.561 134.121  0.00  0.00    +0.000 C 
ATOM     22  C   UNL     1      -8.144  -2.964 133.626  0.00  0.00    +0.000 C 
ATOM     23  C   UNL     1      -6.880  -3.550 132.988  0.00  0.00    +0.000 C 
ENDBRANCH  20  21
ENDBRANCH   8  20
TORSDOF 3
ENDMDL
MODEL 6
REMARK VINA RESULT:      -7.8      3.568      4.649
REMARK  Name = Prazepam
REMARK  3 active torsions:
REMARK  status: ('A' for Active; 'I' for Inactive)
REMARK    1  A    between atoms: N_8  and  C_9
REMARK    2  A    between atoms: C_9  and  C_10
REMARK    3  A    between atoms: C_17  and  C_18
REMARK                            x       y       z     vdW  Elec       q    Type
REMARK                         _______ _______ _______ _____ _____    ______ ____
ROOT
ATOM      1 CL   UNL     1      -7.187  -2.445 129.283  0.00  0.00    +0.000 Cl
ATOM      2  C   UNL     1      -7.913  -1.855 127.842  0.00  0.00    +0.000 A 
ATOM      3  C   UNL     1      -7.849  -0.506 127.512  0.00  0.00    +0.000 A 
ATOM      4  C   UNL     1      -8.327  -0.057 126.257  0.00  0.00    +0.000 A 
ATOM      5  C   UNL     1      -8.913  -0.969 125.365  0.00  0.00    +0.000 A 
ATOM      6  C   UNL     1      -9.224  -2.229 125.863  0.00  0.00    +0.000 A 
ATOM      7  C   UNL     1      -8.588  -2.726 127.007  0.00  0.00    +0.000 A 
ATOM      8  N   UNL     1      -8.993  -0.736 123.948  0.00  0.00    +0.000 N 
ATOM      9  C   UNL     1      -9.685   0.391 123.493  0.00  0.00    +0.000 C 
ATOM     10  O   UNL     1      -9.961   0.566 122.292  0.00  0.00    +0.000 OA
ATOM     11  C   UNL     1     -10.150   1.358 124.573  0.00  0.00    +0.000 C 
ATOM     12  N   UNL     1      -8.984   2.044 125.154  0.00  0.00    +0.000 NA
ATOM     13  C   UNL     1      -8.161   1.375 125.891  0.00  0.00    +0.000 C 
ENDROOT
BRANCH  13  14
ATOM     14  C   UNL     1      -6.966   2.083 126.428  0.00  0.00    +0.000 A 
ATOM     15  C   UNL     1      -7.115   3.005 127.466  0.00  0.00    +0.000 A 
ATOM     16  C   UNL     1      -5.999   3.709 127.920  0.00  0.00    +0.000 A 
ATOM     17  C   UNL     1      -4.732   3.421 127.408  0.00  0.00    +0.000 A 
ATOM     18  C   UNL     1      -4.575   2.422 126.446  0.00  0.00    +0.000 A 
ATOM     19  C   UNL     1      -5.697   1.788 125.915  0.00  0.00    +0.000 A 
ENDBRANCH  13  14
BRANCH   8  20
ATOM     20  C   UNL     1      -8.465  -1.664 122.889  0.00  0.00    +0.000 C 
BRANCH  20  21
ATOM     21  C   UNL     1      -6.974  -2.038 122.758  0.00  0.00    +0.000 C 
ATOM     22  C   UNL     1      -5.993  -1.537 123.761  0.00  0.00    +0.000 C 
ATOM     23  C   UNL     1      -6.349  -3.027 123.706  0.00  0.00    +0.000 C 
ENDBRANCH  20  21
ENDBRANCH   8  20
TORSDOF 3
ENDMDL
MODEL 7
REMARK VINA RESULT:      -7.7      6.796      8.892
REMARK  Name = Prazepam
REMARK  3 active torsions:
REMARK  status: ('A' for Active; 'I' for Inactive)
REMARK    1  A    between atoms: N_8  and  C_9
REMARK    2  A    between atoms: C_9  and  C_10
REMARK    3  A    between atoms: C_17  and  C_18
REMARK                            x       y       z     vdW  Elec       q    Type
REMARK                         _______ _______ _______ _____ _____    ______ ____
ROOT
ATOM      1 CL   UNL     1      -3.224   4.708 129.707  0.00  0.00    +0.000 Cl
ATOM      2  C   UNL     1      -4.781   5.227 130.218  0.00  0.00    +0.000 A 
ATOM      3  C   UNL     1      -5.932   4.709 129.635  0.00  0.00    +0.000 A 
ATOM      4  C   UNL     1      -7.205   5.037 130.160  0.00  0.00    +0.000 A 
ATOM      5  C   UNL     1      -7.306   5.928 131.241  0.00  0.00    +0.000 A 
ATOM      6  C   UNL     1      -6.164   6.642 131.581  0.00  0.00    +0.000 A 
ATOM      7  C   UNL     1      -4.894   6.185 131.208  0.00  0.00    +0.000 A 
ATOM      8  N   UNL     1      -8.443   5.963 132.122  0.00  0.00    +0.000 N 
ATOM      9  C   UNL     1      -9.703   6.235 131.579  0.00  0.00    +0.000 C 
ATOM     10  O   UNL     1     -10.700   6.467 132.286  0.00  0.00    +0.000 OA
ATOM     11  C   UNL     1      -9.763   6.304 130.059  0.00  0.00    +0.000 C 
ATOM     12  N   UNL     1      -9.574   4.957 129.497  0.00  0.00    +0.000 NA
ATOM     13  C   UNL     1      -8.414   4.395 129.578  0.00  0.00    +0.000 C 
ENDROOT
BRANCH  13  14
ATOM     14  C   UNL     1      -8.264   3.015 129.043  0.00  0.00    +0.000 A 
ATOM     15  C   UNL     1      -8.263   1.927 129.920  0.00  0.00    +0.000 A 
ATOM     16  C   UNL     1      -8.060   0.643 129.416  0.00  0.00    +0.000 A 
ATOM     17  C   UNL     1      -7.956   0.438 128.038  0.00  0.00    +0.000 A 
ATOM     18  C   UNL     1      -8.064   1.516 127.159  0.00  0.00    +0.000 A 
ATOM     19  C   UNL     1      -8.165   2.813 127.661  0.00  0.00    +0.000 A 
ENDBRANCH  13  14
BRANCH   8  20
ATOM     20  C   UNL     1      -8.382   5.820 133.617  0.00  0.00    +0.000 C 
BRANCH  20  21
ATOM     21  C   UNL     1      -8.408   4.456 134.338  0.00  0.00    +0.000 C 
ATOM     22  C   UNL     1      -8.873   3.242 133.613  0.00  0.00    +0.000 C 
ATOM     23  C   UNL     1      -7.397   3.392 133.997  0.00  0.00    +0.000 C 
ENDBRANCH  20  21
ENDBRANCH   8  20
TORSDOF 3
ENDMDL
MODEL 8
REMARK VINA RESULT:      -7.6      7.590      9.854
REMARK  Name = Prazepam
REMARK  3 active torsions:
REMARK  status: ('A' for Active; 'I' for Inactive)
REMARK    1  A    between atoms: N_8  and  C_9
REMARK    2  A    between atoms: C_9  and  C_10
REMARK    3  A    between atoms: C_17  and  C_18
REMARK                            x       y       z     vdW  Elec       q    Type
REMARK                         _______ _______ _______ _____ _____    ______ ____
ROOT
ATOM      1 CL   UNL     1      -5.839   2.149 128.446  0.00  0.00    +0.000 Cl
ATOM      2  C   UNL     1      -7.049   3.016 129.303  0.00  0.00    +0.000 A 
ATOM      3  C   UNL     1      -6.709   3.883 130.336  0.00  0.00    +0.000 A 
ATOM      4  C   UNL     1      -7.699   4.696 130.937  0.00  0.00    +0.000 A 
ATOM      5  C   UNL     1      -9.037   4.589 130.524  0.00  0.00    +0.000 A 
ATOM      6  C   UNL     1      -9.365   3.506 129.718  0.00  0.00    +0.000 A 
ATOM      7  C   UNL     1      -8.381   2.838 128.979  0.00  0.00    +0.000 A 
ATOM      8  N   UNL     1     -10.000   5.642 130.711  0.00  0.00    +0.000 N 
ATOM      9  C   UNL     1     -10.275   6.076 132.012  0.00  0.00    +0.000 C 
ATOM     10  O   UNL     1     -11.219   6.841 132.275  0.00  0.00    +0.000 OA
ATOM     11  C   UNL     1      -9.387   5.490 133.102  0.00  0.00    +0.000 C 
ATOM     12  N   UNL     1      -8.027   6.037 132.976  0.00  0.00    +0.000 NA
ATOM     13  C   UNL     1      -7.293   5.682 131.974  0.00  0.00    +0.000 C 
ENDROOT
BRANCH  13  14
ATOM     14  C   UNL     1      -5.939   6.287 131.847  0.00  0.00    +0.000 A 
ATOM     15  C   UNL     1      -4.973   6.035 132.824  0.00  0.00    +0.000 A 
ATOM     16  C   UNL     1      -3.727   6.656 132.730  0.00  0.00    +0.000 A 
ATOM     17  C   UNL     1      -3.417   7.442 131.618  0.00  0.00    +0.000 A 
ATOM     18  C   UNL     1      -4.350   7.603 130.592  0.00  0.00    +0.000 A 
ATOM     19  C   UNL     1      -5.631   7.071 130.729  0.00  0.00    +0.000 A 
ENDBRANCH  13  14
BRANCH   8  20
ATOM     20  C   UNL     1     -10.820   6.266 129.616  0.00  0.00    +0.000 C 
BRANCH  20  21
ATOM     21  C   UNL     1     -10.498   7.642 128.998  0.00  0.00    +0.000 C 
ATOM     22  C   UNL     1     -10.688   7.864 127.538  0.00  0.00    +0.000 C 
ATOM     23  C   UNL     1     -11.607   8.557 128.550  0.00  0.00    +0.000 C 
ENDBRANCH  20  21
ENDBRANCH   8  20
TORSDOF 3
ENDMDL
MODEL 9
REMARK VINA RESULT:      -7.6      8.450      9.454
REMARK  Name = Prazepam
REMARK  3 active torsions:
REMARK  status: ('A' for Active; 'I' for Inactive)
REMARK    1  A    between atoms: N_8  and  C_9
REMARK    2  A    between atoms: C_9  and  C_10
REMARK    3  A    between atoms: C_17  and  C_18
REMARK                            x       y       z     vdW  Elec       q    Type
REMARK                         _______ _______ _______ _____ _____    ______ ____
ROOT
ATOM      1 CL   UNL     1      -5.455   5.076 135.944  0.00  0.00    +0.000 Cl
ATOM      2  C   UNL     1      -6.653   5.146 134.714  0.00  0.00    +0.000 A 
ATOM      3  C   UNL     1      -6.402   5.797 133.511  0.00  0.00    +0.000 A 
ATOM      4  C   UNL     1      -7.341   5.726 132.455  0.00  0.00    +0.000 A 
ATOM      5  C   UNL     1      -8.552   5.039 132.641  0.00  0.00    +0.000 A 
ATOM      6  C   UNL     1      -8.879   4.675 133.941  0.00  0.00    +0.000 A 
ATOM      7  C   UNL     1      -7.889   4.567 134.926  0.00  0.00    +0.000 A 
ATOM      8  N   UNL     1      -9.331   4.517 131.550  0.00  0.00    +0.000 N 
ATOM      9  C   UNL     1      -9.805   5.406 130.580  0.00  0.00    +0.000 C 
ATOM     10  O   UNL     1     -10.634   5.071 129.715  0.00  0.00    +0.000 OA
ATOM     11  C   UNL     1      -9.299   6.837 130.696  0.00  0.00    +0.000 C 
ATOM     12  N   UNL     1      -7.870   6.884 130.347  0.00  0.00    +0.000 NA
ATOM     13  C   UNL     1      -7.007   6.352 131.147  0.00  0.00    +0.000 C 
ENDROOT
BRANCH  13  14
ATOM     14  C   UNL     1      -5.573   6.373 130.747  0.00  0.00    +0.000 A 
ATOM     15  C   UNL     1      -4.945   5.187 130.360  0.00  0.00    +0.000 A 
ATOM     16  C   UNL     1      -3.585   5.205 130.046  0.00  0.00    +0.000 A 
ATOM     17  C   UNL     1      -2.886   6.414 130.025  0.00  0.00    +0.000 A 
ATOM     18  C   UNL     1      -3.546   7.610 130.310  0.00  0.00    +0.000 A 
ATOM     19  C   UNL     1      -4.877   7.587 130.723  0.00  0.00    +0.000 A 
ENDBRANCH  13  14
BRANCH   8  20
ATOM     20  C   UNL     1      -9.764   3.084 131.406  0.00  0.00    +0.000 C 
BRANCH  20  21
ATOM     21  C   UNL     1      -8.772   1.907 131.305  0.00  0.00    +0.000 C 
ATOM     22  C   UNL     1      -8.085   1.408 132.529  0.00  0.00    +0.000 C 
ATOM     23  C   UNL     1      -9.145   0.547 131.833  0.00  0.00    +0.000 C 
ENDBRANCH  20  21
ENDBRANCH   8  20
TORSDOF 3
ENDMDL
