MODEL 1
REMARK VINA RESULT:      -8.7      0.000      0.000
REMARK  Name = Praziquantel
REMARK  1 active torsions:
REMARK  status: ('A' for Active; 'I' for Inactive)
REMARK    1  A    between atoms: C_2  and  C_3
REMARK                            x       y       z     vdW  Elec       q    Type
REMARK                         _______ _______ _______ _____ _____    ______ ____
ROOT
ATOM      1  O   UNL     1      -7.491   4.107 124.682  0.00  0.00    +0.000 OA
ATOM      2  C   UNL     1      -7.420   3.170 123.890  0.00  0.00    +0.000 C 
ATOM      3  N   UNL     1      -8.131   1.976 124.134  0.00  0.00    +0.000 N 
ATOM      4  C   UNL     1      -7.803   0.795 123.379  0.00  0.00    +0.000 C 
ATOM      5  C   UNL     1      -8.334  -0.586 123.856  0.00  0.00    +0.000 C 
ATOM      6  N   UNL     1      -8.976  -0.618 125.161  0.00  0.00    +0.000 N 
ATOM      7  C   UNL     1      -8.131  -0.846 126.321  0.00  0.00    +0.000 C 
ATOM      8  C   UNL     1      -7.288  -2.087 126.235  0.00  0.00    +0.000 C 
ATOM      9  C   UNL     1      -6.640  -2.191 124.884  0.00  0.00    +0.000 A 
ATOM     10  C   UNL     1      -5.468  -2.928 124.765  0.00  0.00    +0.000 A 
ATOM     11  C   UNL     1      -4.820  -3.017 123.538  0.00  0.00    +0.000 A 
ATOM     12  C   UNL     1      -5.339  -2.384 122.413  0.00  0.00    +0.000 A 
ATOM     13  C   UNL     1      -6.526  -1.676 122.508  0.00  0.00    +0.000 A 
ATOM     14  C   UNL     1      -7.179  -1.559 123.747  0.00  0.00    +0.000 A 
ATOM     15  C   UNL     1      -9.830   0.463 125.393  0.00  0.00    +0.000 C 
ATOM     16  O   UNL     1     -10.897   0.293 125.965  0.00  0.00    +0.000 OA
ATOM     17  C   UNL     1      -9.046   1.812 125.304  0.00  0.00    +0.000 C 
ENDROOT
BRANCH   2  18
ATOM     18  C   UNL     1      -6.516   3.287 122.574  0.00  0.00    +0.000 C 
ATOM     19  C   UNL     1      -7.365   3.637 121.328  0.00  0.00    +0.000 C 
ATOM     20  C   UNL     1      -6.534   3.754 120.038  0.00  0.00    +0.000 C 
ATOM     21  C   UNL     1      -5.408   4.770 120.176  0.00  0.00    +0.000 C 
ATOM     22  C   UNL     1      -4.542   4.437 121.385  0.00  0.00    +0.000 C 
ATOM     23  C   UNL     1      -5.371   4.326 122.681  0.00  0.00    +0.000 C 
ENDBRANCH   2  18
TORSDOF 1
ENDMDL
MODEL 2
REMARK VINA RESULT:      -8.3      6.250      9.178
REMARK  Name = Praziquantel
REMARK  1 active torsions:
REMARK  status: ('A' for Active; 'I' for Inactive)
REMARK    1  A    between atoms: C_2  and  C_3
REMARK                            x       y       z     vdW  Elec       q    Type
REMARK                         _______ _______ _______ _____ _____    ______ ____
ROOT
ATOM      1  O   UNL     1      -8.548   1.979 130.497  0.00  0.00    +0.000 OA
ATOM      2  C   UNL     1      -8.534   2.971 129.772  0.00  0.00    +0.000 C 
ATOM      3  N   UNL     1      -8.829   4.245 130.302  0.00  0.00    +0.000 N 
ATOM      4  C   UNL     1      -9.111   5.333 129.402  0.00  0.00    +0.000 C 
ATOM      5  C   UNL     1      -9.751   6.636 129.958  0.00  0.00    +0.000 C 
ATOM      6  N   UNL     1     -10.209   6.594 131.339  0.00  0.00    +0.000 N 
ATOM      7  C   UNL     1     -11.568   6.142 131.584  0.00  0.00    +0.000 C 
ATOM      8  C   UNL     1     -12.616   6.896 130.815  0.00  0.00    +0.000 C 
ATOM      9  C   UNL     1     -12.198   7.065 129.382  0.00  0.00    +0.000 A 
ATOM     10  C   UNL     1     -13.185   7.251 128.421  0.00  0.00    +0.000 A 
ATOM     11  C   UNL     1     -12.838   7.374 127.079  0.00  0.00    +0.000 A 
ATOM     12  C   UNL     1     -11.505   7.328 126.682  0.00  0.00    +0.000 A 
ATOM     13  C   UNL     1     -10.509   7.181 127.634  0.00  0.00    +0.000 A 
ATOM     14  C   UNL     1     -10.846   7.031 128.989  0.00  0.00    +0.000 A 
ATOM     15  C   UNL     1      -9.323   5.947 132.203  0.00  0.00    +0.000 C 
ATOM     16  O   UNL     1      -9.122   6.392 133.325  0.00  0.00    +0.000 OA
ATOM     17  C   UNL     1      -9.098   4.468 131.754  0.00  0.00    +0.000 C 
ENDROOT
BRANCH   2  18
ATOM     18  C   UNL     1      -8.189   2.832 128.215  0.00  0.00    +0.000 C 
ATOM     19  C   UNL     1      -6.671   2.981 127.952  0.00  0.00    +0.000 C 
ATOM     20  C   UNL     1      -6.294   2.858 126.465  0.00  0.00    +0.000 C 
ATOM     21  C   UNL     1      -6.779   1.546 125.861  0.00  0.00    +0.000 C 
ATOM     22  C   UNL     1      -8.278   1.384 126.087  0.00  0.00    +0.000 C 
ATOM     23  C   UNL     1      -8.656   1.499 127.578  0.00  0.00    +0.000 C 
ENDBRANCH   2  18
TORSDOF 1
ENDMDL
MODEL 3
REMARK VINA RESULT:      -7.8      3.474      5.044
REMARK  Name = Praziquantel
REMARK  1 active torsions:
REMARK  status: ('A' for Active; 'I' for Inactive)
REMARK    1  A    between atoms: C_2  and  C_3
REMARK                            x       y       z     vdW  Elec       q    Type
REMARK                         _______ _______ _______ _____ _____    ______ ____
ROOT
ATOM      1  O   UNL     1      -6.407   2.808 125.072  0.00  0.00    +0.000 OA
ATOM      2  C   UNL     1      -5.846   1.877 125.647  0.00  0.00    +0.000 C 
ATOM      3  N   UNL     1      -6.092   0.545 125.252  0.00  0.00    +0.000 N 
ATOM      4  C   UNL     1      -5.681  -0.532 126.115  0.00  0.00    +0.000 C 
ATOM      5  C   UNL     1      -6.230  -1.964 125.860  0.00  0.00    +0.000 C 
ATOM      6  N   UNL     1      -7.289  -2.085 124.870  0.00  0.00    +0.000 N 
ATOM      7  C   UNL     1      -8.660  -1.934 125.329  0.00  0.00    +0.000 C 
ATOM      8  C   UNL     1      -9.035  -2.848 126.461  0.00  0.00    +0.000 C 
ATOM      9  C   UNL     1      -7.958  -2.857 127.509  0.00  0.00    +0.000 A 
ATOM     10  C   UNL     1      -8.304  -3.193 128.813  0.00  0.00    +0.000 A 
ATOM     11  C   UNL     1      -7.341  -3.176 129.817  0.00  0.00    +0.000 A 
ATOM     12  C   UNL     1      -6.022  -2.838 129.531  0.00  0.00    +0.000 A 
ATOM     13  C   UNL     1      -5.655  -2.537 128.230  0.00  0.00    +0.000 A 
ATOM     14  C   UNL     1      -6.622  -2.527 127.210  0.00  0.00    +0.000 A 
ATOM     15  C   UNL     1      -7.078  -1.314 123.725  0.00  0.00    +0.000 C 
ATOM     16  O   UNL     1      -7.351  -1.763 122.621  0.00  0.00    +0.000 OA
ATOM     17  C   UNL     1      -6.971   0.200 124.094  0.00  0.00    +0.000 C 
ENDROOT
BRANCH   2  18
ATOM     18  C   UNL     1      -4.835   2.161 126.854  0.00  0.00    +0.000 C 
ATOM     19  C   UNL     1      -3.569   2.911 126.374  0.00  0.00    +0.000 C 
ATOM     20  C   UNL     1      -2.566   3.200 127.505  0.00  0.00    +0.000 C 
ATOM     21  C   UNL     1      -3.204   3.980 128.647  0.00  0.00    +0.000 C 
ATOM     22  C   UNL     1      -4.444   3.252 129.155  0.00  0.00    +0.000 C 
ATOM     23  C   UNL     1      -5.454   2.967 128.024  0.00  0.00    +0.000 C 
ENDBRANCH   2  18
TORSDOF 1
ENDMDL
MODEL 4
REMARK VINA RESULT:      -7.7      1.898      2.221
REMARK  Name = Praziquantel
REMARK  1 active torsions:
REMARK  status: ('A' for Active; 'I' for Inactive)
REMARK    1  A    between atoms: C_2  and  C_3
REMARK                            x       y       z     vdW  Elec       q    Type
REMARK                         _______ _______ _______ _____ _____    ______ ____
ROOT
ATOM      1  O   UNL     1      -5.668   3.868 124.834  0.00  0.00    +0.000 OA
ATOM      2  C   UNL     1      -6.570   3.171 124.374  0.00  0.00    +0.000 C 
ATOM      3  N   UNL     1      -7.452   2.488 125.238  0.00  0.00    +0.000 N 
ATOM      4  C   UNL     1      -8.293   1.447 124.705  0.00  0.00    +0.000 C 
ATOM      5  C   UNL     1      -9.015   0.476 125.680  0.00  0.00    +0.000 C 
ATOM      6  N   UNL     1      -8.635   0.565 127.082  0.00  0.00    +0.000 N 
ATOM      7  C   UNL     1      -7.517  -0.249 127.529  0.00  0.00    +0.000 C 
ATOM      8  C   UNL     1      -7.660  -1.713 127.222  0.00  0.00    +0.000 C 
ATOM      9  C   UNL     1      -8.132  -1.912 125.810  0.00  0.00    +0.000 A 
ATOM     10  C   UNL     1      -7.841  -3.115 125.177  0.00  0.00    +0.000 A 
ATOM     11  C   UNL     1      -8.230  -3.320 123.857  0.00  0.00    +0.000 A 
ATOM     12  C   UNL     1      -8.924  -2.337 123.159  0.00  0.00    +0.000 A 
ATOM     13  C   UNL     1      -9.252  -1.148 123.789  0.00  0.00    +0.000 A 
ATOM     14  C   UNL     1      -8.846  -0.917 125.114  0.00  0.00    +0.000 A 
ATOM     15  C   UNL     1      -8.489   1.876 127.542  0.00  0.00    +0.000 C 
ATOM     16  O   UNL     1      -8.886   2.186 128.656  0.00  0.00    +0.000 OA
ATOM     17  C   UNL     1      -7.389   2.626 126.724  0.00  0.00    +0.000 C 
ENDROOT
BRANCH   2  18
ATOM     18  C   UNL     1      -6.751   3.022 122.791  0.00  0.00    +0.000 C 
ATOM     19  C   UNL     1      -8.121   3.568 122.320  0.00  0.00    +0.000 C 
ATOM     20  C   UNL     1      -8.339   3.439 120.802  0.00  0.00    +0.000 C 
ATOM     21  C   UNL     1      -7.231   4.117 120.007  0.00  0.00    +0.000 C 
ATOM     22  C   UNL     1      -5.870   3.582 120.437  0.00  0.00    +0.000 C 
ATOM     23  C   UNL     1      -5.646   3.717 121.957  0.00  0.00    +0.000 C 
ENDBRANCH   2  18
TORSDOF 1
ENDMDL
MODEL 5
REMARK VINA RESULT:      -7.6      2.362      3.874
REMARK  Name = Praziquantel
REMARK  1 active torsions:
REMARK  status: ('A' for Active; 'I' for Inactive)
REMARK    1  A    between atoms: C_2  and  C_3
REMARK                            x       y       z     vdW  Elec       q    Type
REMARK                         _______ _______ _______ _____ _____    ______ ____
ROOT
ATOM      1  O   UNL     1      -9.008   1.878 123.675  0.00  0.00    +0.000 OA
ATOM      2  C   UNL     1      -8.020   1.300 124.121  0.00  0.00    +0.000 C 
ATOM      3  N   UNL     1      -7.974  -0.110 124.153  0.00  0.00    +0.000 N 
ATOM      4  C   UNL     1      -6.967  -0.764 124.947  0.00  0.00    +0.000 C 
ATOM      5  C   UNL     1      -7.104  -2.281 125.255  0.00  0.00    +0.000 C 
ATOM      6  N   UNL     1      -8.362  -2.907 124.875  0.00  0.00    +0.000 N 
ATOM      7  C   UNL     1      -9.443  -2.889 125.846  0.00  0.00    +0.000 C 
ATOM      8  C   UNL     1      -9.076  -3.458 127.187  0.00  0.00    +0.000 C 
ATOM      9  C   UNL     1      -7.742  -2.931 127.636  0.00  0.00    +0.000 A 
ATOM     10  C   UNL     1      -7.464  -2.905 128.998  0.00  0.00    +0.000 A 
ATOM     11  C   UNL     1      -6.254  -2.390 129.453  0.00  0.00    +0.000 A 
ATOM     12  C   UNL     1      -5.304  -1.910 128.557  0.00  0.00    +0.000 A 
ATOM     13  C   UNL     1      -5.553  -1.965 127.195  0.00  0.00    +0.000 A 
ATOM     14  C   UNL     1      -6.780  -2.460 126.723  0.00  0.00    +0.000 A 
ATOM     15  C   UNL     1      -8.833  -2.506 123.623  0.00  0.00    +0.000 C 
ATOM     16  O   UNL     1      -9.342  -3.320 122.866  0.00  0.00    +0.000 OA
ATOM     17  C   UNL     1      -9.067  -0.961 123.593  0.00  0.00    +0.000 C 
ENDROOT
BRANCH   2  18
ATOM     18  C   UNL     1      -6.775   2.136 124.680  0.00  0.00    +0.000 C 
ATOM     19  C   UNL     1      -6.472   3.368 123.793  0.00  0.00    +0.000 C 
ATOM     20  C   UNL     1      -5.276   4.199 124.292  0.00  0.00    +0.000 C 
ATOM     21  C   UNL     1      -5.461   4.655 125.734  0.00  0.00    +0.000 C 
ATOM     22  C   UNL     1      -5.740   3.456 126.634  0.00  0.00    +0.000 C 
ATOM     23  C   UNL     1      -6.942   2.626 126.140  0.00  0.00    +0.000 C 
ENDBRANCH   2  18
TORSDOF 1
ENDMDL
MODEL 6
REMARK VINA RESULT:      -7.6      2.545      6.819
REMARK  Name = Praziquantel
REMARK  1 active torsions:
REMARK  status: ('A' for Active; 'I' for Inactive)
REMARK    1  A    between atoms: C_2  and  C_3
REMARK                            x       y       z     vdW  Elec       q    Type
REMARK                         _______ _______ _______ _____ _____    ______ ____
ROOT
ATOM      1  O   UNL     1      -7.929  -3.058 124.868  0.00  0.00    +0.000 OA
ATOM      2  C   UNL     1      -8.106  -2.068 125.575  0.00  0.00    +0.000 C 
ATOM      3  N   UNL     1      -8.597  -0.871 125.014  0.00  0.00    +0.000 N 
ATOM      4  C   UNL     1      -8.507   0.350 125.772  0.00  0.00    +0.000 C 
ATOM      5  C   UNL     1      -8.732   1.711 125.055  0.00  0.00    +0.000 C 
ATOM      6  N   UNL     1      -8.829   1.669 123.603  0.00  0.00    +0.000 N 
ATOM      7  C   UNL     1      -7.596   1.780 122.842  0.00  0.00    +0.000 C 
ATOM      8  C   UNL     1      -6.774   2.994 123.176  0.00  0.00    +0.000 C 
ATOM      9  C   UNL     1      -6.680   3.173 124.664  0.00  0.00    +0.000 A 
ATOM     10  C   UNL     1      -5.596   3.874 125.181  0.00  0.00    +0.000 A 
ATOM     11  C   UNL     1      -5.456   4.029 126.556  0.00  0.00    +0.000 A 
ATOM     12  C   UNL     1      -6.400   3.500 127.431  0.00  0.00    +0.000 A 
ATOM     13  C   UNL     1      -7.504   2.830 126.928  0.00  0.00    +0.000 A 
ATOM     14  C   UNL     1      -7.646   2.646 125.543  0.00  0.00    +0.000 A 
ATOM     15  C   UNL     1      -9.597   0.606 123.122  0.00  0.00    +0.000 C 
ATOM     16  O   UNL     1     -10.356   0.772 122.178  0.00  0.00    +0.000 OA
ATOM     17  C   UNL     1      -8.989  -0.760 123.576  0.00  0.00    +0.000 C 
ENDROOT
BRANCH   2  18
ATOM     18  C   UNL     1      -7.776  -2.121 127.140  0.00  0.00    +0.000 C 
ATOM     19  C   UNL     1      -8.507  -3.293 127.839  0.00  0.00    +0.000 C 
ATOM     20  C   UNL     1      -8.221  -3.377 129.348  0.00  0.00    +0.000 C 
ATOM     21  C   UNL     1      -6.729  -3.475 129.641  0.00  0.00    +0.000 C 
ATOM     22  C   UNL     1      -5.986  -2.319 128.982  0.00  0.00    +0.000 C 
ATOM     23  C   UNL     1      -6.265  -2.237 127.467  0.00  0.00    +0.000 C 
ENDBRANCH   2  18
TORSDOF 1
ENDMDL
MODEL 7
REMARK VINA RESULT:      -7.6      6.695      8.544
REMARK  Name = Praziquantel
REMARK  1 active torsions:
REMARK  status: ('A' for Active; 'I' for Inactive)
REMARK    1  A    between atoms: C_2  and  C_3
REMARK                            x       y       z     vdW  Elec       q    Type
REMARK                         _______ _______ _______ _____ _____    ______ ____
ROOT
ATOM      1  O   UNL     1     -10.491   6.490 132.578  0.00  0.00    +0.000 OA
ATOM      2  C   UNL     1     -10.367   5.903 131.505  0.00  0.00    +0.000 C 
ATOM      3  N   UNL     1      -9.661   4.683 131.438  0.00  0.00    +0.000 N 
ATOM      4  C   UNL     1      -9.261   4.172 130.153  0.00  0.00    +0.000 C 
ATOM      5  C   UNL     1      -8.214   3.025 130.081  0.00  0.00    +0.000 C 
ATOM      6  N   UNL     1      -7.555   2.671 131.330  0.00  0.00    +0.000 N 
ATOM      7  C   UNL     1      -6.341   3.391 131.677  0.00  0.00    +0.000 C 
ATOM      8  C   UNL     1      -5.279   3.358 130.615  0.00  0.00    +0.000 C 
ATOM      9  C   UNL     1      -5.877   3.634 129.264  0.00  0.00    +0.000 A 
ATOM     10  C   UNL     1      -5.055   4.149 128.268  0.00  0.00    +0.000 A 
ATOM     11  C   UNL     1      -5.582   4.451 127.016  0.00  0.00    +0.000 A 
ATOM     12  C   UNL     1      -6.927   4.230 126.739  0.00  0.00    +0.000 A 
ATOM     13  C   UNL     1      -7.749   3.682 127.710  0.00  0.00    +0.000 A 
ATOM     14  C   UNL     1      -7.236   3.394 128.986  0.00  0.00    +0.000 A 
ATOM     15  C   UNL     1      -8.417   2.625 132.427  0.00  0.00    +0.000 C 
ATOM     16  O   UNL     1      -8.300   1.744 133.267  0.00  0.00    +0.000 OA
ATOM     17  C   UNL     1      -9.098   4.014 132.650  0.00  0.00    +0.000 C 
ENDROOT
BRANCH   2  18
ATOM     18  C   UNL     1     -10.998   6.516 130.169  0.00  0.00    +0.000 C 
ATOM     19  C   UNL     1     -12.438   7.035 130.404  0.00  0.00    +0.000 C 
ATOM     20  C   UNL     1     -13.085   7.629 129.141  0.00  0.00    +0.000 C 
ATOM     21  C   UNL     1     -12.243   8.749 128.541  0.00  0.00    +0.000 C 
ATOM     22  C   UNL     1     -10.824   8.258 128.279  0.00  0.00    +0.000 C 
ATOM     23  C   UNL     1     -10.170   7.668 129.546  0.00  0.00    +0.000 C 
ENDBRANCH   2  18
TORSDOF 1
ENDMDL
MODEL 8
REMARK VINA RESULT:      -7.5      2.725      5.292
REMARK  Name = Praziquantel
REMARK  1 active torsions:
REMARK  status: ('A' for Active; 'I' for Inactive)
REMARK    1  A    between atoms: C_2  and  C_3
REMARK                            x       y       z     vdW  Elec       q    Type
REMARK                         _______ _______ _______ _____ _____    ______ ____
ROOT
ATOM      1  O   UNL     1      -8.624   3.177 127.560  0.00  0.00    +0.000 OA
ATOM      2  C   UNL     1      -7.883   2.322 127.080  0.00  0.00    +0.000 C 
ATOM      3  N   UNL     1      -7.839   2.122 125.684  0.00  0.00    +0.000 N 
ATOM      4  C   UNL     1      -7.216   0.932 125.164  0.00  0.00    +0.000 C 
ATOM      5  C   UNL     1      -7.447   0.539 123.678  0.00  0.00    +0.000 C 
ATOM      6  N   UNL     1      -8.449   1.306 122.953  0.00  0.00    +0.000 N 
ATOM      7  C   UNL     1      -9.824   0.839 123.008  0.00  0.00    +0.000 C 
ATOM      8  C   UNL     1     -10.005  -0.593 122.590  0.00  0.00    +0.000 C 
ATOM      9  C   UNL     1      -8.959  -1.464 123.227  0.00  0.00    +0.000 A 
ATOM     10  C   UNL     1      -9.236  -2.815 123.399  0.00  0.00    +0.000 A 
ATOM     11  C   UNL     1      -8.307  -3.645 124.018  0.00  0.00    +0.000 A 
ATOM     12  C   UNL     1      -7.087  -3.141 124.459  0.00  0.00    +0.000 A 
ATOM     13  C   UNL     1      -6.782  -1.804 124.260  0.00  0.00    +0.000 A 
ATOM     14  C   UNL     1      -7.721  -0.950 123.658  0.00  0.00    +0.000 A 
ATOM     15  C   UNL     1      -8.396   2.678 123.206  0.00  0.00    +0.000 C 
ATOM     16  O   UNL     1      -8.560   3.480 122.297  0.00  0.00    +0.000 OA
ATOM     17  C   UNL     1      -8.616   2.965 124.727  0.00  0.00    +0.000 C 
ENDROOT
BRANCH   2  18
ATOM     18  C   UNL     1      -6.965   1.419 128.030  0.00  0.00    +0.000 C 
ATOM     19  C   UNL     1      -5.702   2.183 128.496  0.00  0.00    +0.000 C 
ATOM     20  C   UNL     1      -4.786   1.349 129.409  0.00  0.00    +0.000 C 
ATOM     21  C   UNL     1      -5.528   0.819 130.630  0.00  0.00    +0.000 C 
ATOM     22  C   UNL     1      -6.767   0.043 130.198  0.00  0.00    +0.000 C 
ATOM     23  C   UNL     1      -7.690   0.880 129.288  0.00  0.00    +0.000 C 
ENDBRANCH   2  18
TORSDOF 1
ENDMDL
MODEL 9
REMARK VINA RESULT:      -7.5      4.012      6.783
REMARK  Name = Praziquantel
REMARK  1 active torsions:
REMARK  status: ('A' for Active; 'I' for Inactive)
REMARK    1  A    between atoms: C_2  and  C_3
REMARK                            x       y       z     vdW  Elec       q    Type
REMARK                         _______ _______ _______ _____ _____    ______ ____
ROOT
ATOM      1  O   UNL     1      -8.966   3.727 128.502  0.00  0.00    +0.000 OA
ATOM      2  C   UNL     1      -8.363   2.701 128.809  0.00  0.00    +0.000 C 
ATOM      3  N   UNL     1      -7.722   1.927 127.818  0.00  0.00    +0.000 N 
ATOM      4  C   UNL     1      -7.294   0.590 128.137  0.00  0.00    +0.000 C 
ATOM      5  C   UNL     1      -6.895  -0.377 126.988  0.00  0.00    +0.000 C 
ATOM      6  N   UNL     1      -7.169   0.079 125.633  0.00  0.00    +0.000 N 
ATOM      7  C   UNL     1      -8.475  -0.226 125.073  0.00  0.00    +0.000 C 
ATOM      8  C   UNL     1      -8.835  -1.685 125.108  0.00  0.00    +0.000 C 
ATOM      9  C   UNL     1      -8.511  -2.275 126.452  0.00  0.00    +0.000 A 
ATOM     10  C   UNL     1      -9.206  -3.405 126.865  0.00  0.00    +0.000 A 
ATOM     11  C   UNL     1      -8.959  -3.957 128.118  0.00  0.00    +0.000 A 
ATOM     12  C   UNL     1      -8.008  -3.399 128.966  0.00  0.00    +0.000 A 
ATOM     13  C   UNL     1      -7.281  -2.294 128.551  0.00  0.00    +0.000 A 
ATOM     14  C   UNL     1      -7.537  -1.712 127.299  0.00  0.00    +0.000 A 
ATOM     15  C   UNL     1      -6.857   1.423 125.419  0.00  0.00    +0.000 C 
ATOM     16  O   UNL     1      -6.336   1.775 124.370  0.00  0.00    +0.000 OA
ATOM     17  C   UNL     1      -7.678   2.339 126.383  0.00  0.00    +0.000 C 
ENDROOT
BRANCH   2  18
ATOM     18  C   UNL     1      -8.303   2.223 130.335  0.00  0.00    +0.000 C 
ATOM     19  C   UNL     1      -7.124   2.881 131.093  0.00  0.00    +0.000 C 
ATOM     20  C   UNL     1      -7.026   2.444 132.565  0.00  0.00    +0.000 C 
ATOM     21  C   UNL     1      -8.319   2.710 133.326  0.00  0.00    +0.000 C 
ATOM     22  C   UNL     1      -9.496   2.054 132.612  0.00  0.00    +0.000 C 
ATOM     23  C   UNL     1      -9.600   2.496 131.138  0.00  0.00    +0.000 C 
ENDBRANCH   2  18
TORSDOF 1
ENDMDL
