MODEL 1
REMARK VINA RESULT:      -7.5      0.000      0.000
REMARK  Name = Prazosin
REMARK  5 active torsions:
REMARK  status: ('A' for Active; 'I' for Inactive)
REMARK    1  A    between atoms: C_1  and  O_2
REMARK    2  A    between atoms: O_2  and  C_3
REMARK    3  A    between atoms: C_4  and  O_5
REMARK    4  A    between atoms: O_5  and  C_6
REMARK    5  A    between atoms: C_22  and  C_24
REMARK                            x       y       z     vdW  Elec       q    Type
REMARK                         _______ _______ _______ _____ _____    ______ ____
ROOT
ATOM      1  C   UNL     1      -3.861   6.487 130.548  0.00  0.00    +0.000 A 
ATOM      2  C   UNL     1      -2.561   6.302 130.074  0.00  0.00    +0.000 A 
ATOM      3  C   UNL     1      -2.394   5.470 128.970  0.00  0.00    +0.000 A 
ATOM      4  C   UNL     1      -3.491   4.812 128.330  0.00  0.00    +0.000 A 
ATOM      5  C   UNL     1      -3.357   3.943 127.244  0.00  0.00    +0.000 A 
ATOM      6  N   UNL     1      -2.120   3.654 126.698  0.00  0.00    +0.000 N 
ATOM      7  N   UNL     1      -4.395   3.311 126.662  0.00  0.00    +0.000 NA
ATOM      8  C   UNL     1      -5.635   3.573 127.098  0.00  0.00    +0.000 A 
ATOM      9  N   UNL     1      -5.860   4.410 128.135  0.00  0.00    +0.000 NA
ATOM     10  C   UNL     1      -4.800   4.998 128.771  0.00  0.00    +0.000 A 
ATOM     11  C   UNL     1      -4.943   5.825 129.904  0.00  0.00    +0.000 A 
ATOM     12  N   UNL     1      -6.671   2.898 126.484  0.00  0.00    +0.000 N 
ATOM     13  C   UNL     1      -7.838   3.526 125.852  0.00  0.00    +0.000 C 
ATOM     14  C   UNL     1      -8.006   3.011 124.380  0.00  0.00    +0.000 C 
ATOM     15  N   UNL     1      -7.979   1.532 124.310  0.00  0.00    +0.000 N 
ATOM     16  C   UNL     1      -6.774   0.964 124.933  0.00  0.00    +0.000 C 
ATOM     17  C   UNL     1      -6.633   1.436 126.396  0.00  0.00    +0.000 C 
ATOM     18  C   UNL     1      -8.968   0.806 123.624  0.00  0.00    +0.000 C 
ATOM     19  O   UNL     1      -9.883   1.395 123.032  0.00  0.00    +0.000 OA
ATOM     20  H   UNL     1      -1.260   4.066 127.014  0.00  0.00    +0.000 HD
ATOM     21  H   UNL     1      -2.120   3.043 125.896  0.00  0.00    +0.000 HD
ENDROOT
BRANCH  18  22
ATOM     22  C   UNL     1      -8.923  -0.652 123.680  0.00  0.00    +0.000 A 
ATOM     23  C   UNL     1      -8.446  -1.584 122.771  0.00  0.00    +0.000 A 
ATOM     24  C   UNL     1      -8.655  -2.867 123.328  0.00  0.00    +0.000 A 
ATOM     25  C   UNL     1      -9.205  -2.656 124.569  0.00  0.00    +0.000 A 
ATOM     26  O   UNL     1      -9.356  -1.321 124.804  0.00  0.00    +0.000 OA
ENDBRANCH  18  22
BRANCH   1  28
ATOM     27  C   UNL     1      -4.526   6.458 132.849  0.00  0.00    +0.000 C 
ATOM     28  O   UNL     1      -4.195   7.206 131.675  0.00  0.00    +0.000 OA
ENDBRANCH   1  28
BRANCH   2  29
ATOM     29  O   UNL     1      -1.522   6.892 130.735  0.00  0.00    +0.000 OA
ATOM     30  C   UNL     1      -0.939   6.251 131.862  0.00  0.00    +0.000 C 
ENDBRANCH   2  29
TORSDOF 3
ENDMDL
MODEL 2
REMARK VINA RESULT:      -7.3      2.157      9.645
REMARK  Name = Prazosin
REMARK  5 active torsions:
REMARK  status: ('A' for Active; 'I' for Inactive)
REMARK    1  A    between atoms: C_1  and  O_2
REMARK    2  A    between atoms: O_2  and  C_3
REMARK    3  A    between atoms: C_4  and  O_5
REMARK    4  A    between atoms: O_5  and  C_6
REMARK    5  A    between atoms: C_22  and  C_24
REMARK                            x       y       z     vdW  Elec       q    Type
REMARK                         _______ _______ _______ _____ _____    ______ ____
ROOT
ATOM      1  C   UNL     1      -6.365  -2.904 124.546  0.00  0.00    +0.000 A 
ATOM      2  C   UNL     1      -7.742  -2.691 124.640  0.00  0.00    +0.000 A 
ATOM      3  C   UNL     1      -8.167  -1.512 125.246  0.00  0.00    +0.000 A 
ATOM      4  C   UNL     1      -7.255  -0.542 125.767  0.00  0.00    +0.000 A 
ATOM      5  C   UNL     1      -7.646   0.634 126.413  0.00  0.00    +0.000 A 
ATOM      6  N   UNL     1      -8.980   0.949 126.595  0.00  0.00    +0.000 N 
ATOM      7  N   UNL     1      -6.778   1.531 126.920  0.00  0.00    +0.000 NA
ATOM      8  C   UNL     1      -5.465   1.327 126.744  0.00  0.00    +0.000 A 
ATOM      9  N   UNL     1      -4.996   0.224 126.120  0.00  0.00    +0.000 NA
ATOM     10  C   UNL     1      -5.876  -0.721 125.667  0.00  0.00    +0.000 A 
ATOM     11  C   UNL     1      -5.468  -1.933 125.071  0.00  0.00    +0.000 A 
ATOM     12  N   UNL     1      -4.607   2.262 127.287  0.00  0.00    +0.000 N 
ATOM     13  C   UNL     1      -3.575   2.999 126.547  0.00  0.00    +0.000 C 
ATOM     14  C   UNL     1      -3.738   4.543 126.771  0.00  0.00    +0.000 C 
ATOM     15  N   UNL     1      -3.835   4.881 128.209  0.00  0.00    +0.000 N 
ATOM     16  C   UNL     1      -4.906   4.134 128.889  0.00  0.00    +0.000 C 
ATOM     17  C   UNL     1      -4.719   2.613 128.704  0.00  0.00    +0.000 C 
ATOM     18  C   UNL     1      -3.041   5.885 128.789  0.00  0.00    +0.000 C 
ATOM     19  O   UNL     1      -2.247   6.537 128.096  0.00  0.00    +0.000 OA
ATOM     20  H   UNL     1      -9.739   0.386 126.253  0.00  0.00    +0.000 HD
ATOM     21  H   UNL     1      -9.171   1.832 127.041  0.00  0.00    +0.000 HD
ENDROOT
BRANCH  18  22
ATOM     22  C   UNL     1      -3.130   6.094 130.231  0.00  0.00    +0.000 A 
ATOM     23  C   UNL     1      -3.819   7.041 130.973  0.00  0.00    +0.000 A 
ATOM     24  C   UNL     1      -3.549   6.791 132.338  0.00  0.00    +0.000 A 
ATOM     25  C   UNL     1      -2.747   5.675 132.367  0.00  0.00    +0.000 A 
ATOM     26  O   UNL     1      -2.500   5.232 131.102  0.00  0.00    +0.000 OA
ENDBRANCH  18  22
BRANCH   1  28
ATOM     27  C   UNL     1      -4.403  -3.955 123.661  0.00  0.00    +0.000 C 
ATOM     28  O   UNL     1      -5.775  -4.048 124.055  0.00  0.00    +0.000 OA
ENDBRANCH   1  28
BRANCH   2  29
ATOM     29  O   UNL     1      -8.596  -3.656 124.189  0.00  0.00    +0.000 OA
ATOM     30  C   UNL     1      -9.686  -3.305 123.347  0.00  0.00    +0.000 C 
ENDBRANCH   2  29
TORSDOF 3
ENDMDL
MODEL 3
REMARK VINA RESULT:      -7.2      5.908      8.308
REMARK  Name = Prazosin
REMARK  5 active torsions:
REMARK  status: ('A' for Active; 'I' for Inactive)
REMARK    1  A    between atoms: C_1  and  O_2
REMARK    2  A    between atoms: O_2  and  C_3
REMARK    3  A    between atoms: C_4  and  O_5
REMARK    4  A    between atoms: O_5  and  C_6
REMARK    5  A    between atoms: C_22  and  C_24
REMARK                            x       y       z     vdW  Elec       q    Type
REMARK                         _______ _______ _______ _____ _____    ______ ____
ROOT
ATOM      1  C   UNL     1      -5.559  -2.692 131.084  0.00  0.00    +0.000 A 
ATOM      2  C   UNL     1      -4.315  -2.222 130.660  0.00  0.00    +0.000 A 
ATOM      3  C   UNL     1      -4.210  -0.865 130.365  0.00  0.00    +0.000 A 
ATOM      4  C   UNL     1      -5.316   0.034 130.475  0.00  0.00    +0.000 A 
ATOM      5  C   UNL     1      -5.257   1.393 130.153  0.00  0.00    +0.000 A 
ATOM      6  N   UNL     1      -4.090   1.976 129.695  0.00  0.00    +0.000 N 
ATOM      7  N   UNL     1      -6.311   2.227 130.239  0.00  0.00    +0.000 NA
ATOM      8  C   UNL     1      -7.470   1.754 130.722  0.00  0.00    +0.000 A 
ATOM      9  N   UNL     1      -7.615   0.456 131.070  0.00  0.00    +0.000 NA
ATOM     10  C   UNL     1      -6.563  -0.406 130.916  0.00  0.00    +0.000 A 
ATOM     11  C   UNL     1      -6.652  -1.788 131.187  0.00  0.00    +0.000 A 
ATOM     12  N   UNL     1      -8.529   2.636 130.785  0.00  0.00    +0.000 N 
ATOM     13  C   UNL     1      -9.307   2.944 131.992  0.00  0.00    +0.000 C 
ATOM     14  C   UNL     1      -9.348   4.493 132.235  0.00  0.00    +0.000 C 
ATOM     15  N   UNL     1      -9.766   5.227 131.018  0.00  0.00    +0.000 N 
ATOM     16  C   UNL     1      -8.932   4.899 129.851  0.00  0.00    +0.000 C 
ATOM     17  C   UNL     1      -8.927   3.378 129.587  0.00  0.00    +0.000 C 
ATOM     18  C   UNL     1     -10.784   6.196 131.052  0.00  0.00    +0.000 C 
ATOM     19  O   UNL     1     -11.347   6.480 132.118  0.00  0.00    +0.000 OA
ATOM     20  H   UNL     1      -3.219   1.485 129.599  0.00  0.00    +0.000 HD
ATOM     21  H   UNL     1      -4.129   2.968 129.519  0.00  0.00    +0.000 HD
ENDROOT
BRANCH  18  22
ATOM     22  C   UNL     1     -11.201   6.808 129.794  0.00  0.00    +0.000 A 
ATOM     23  C   UNL     1     -10.825   7.999 129.192  0.00  0.00    +0.000 A 
ATOM     24  C   UNL     1     -11.545   8.109 127.980  0.00  0.00    +0.000 A 
ATOM     25  C   UNL     1     -12.291   6.960 127.877  0.00  0.00    +0.000 A 
ATOM     26  O   UNL     1     -12.080   6.156 128.957  0.00  0.00    +0.000 OA
ENDBRANCH  18  22
BRANCH   1  28
ATOM     27  C   UNL     1      -5.689  -4.474 132.679  0.00  0.00    +0.000 C 
ATOM     28  O   UNL     1      -5.859  -4.013 131.335  0.00  0.00    +0.000 OA
ENDBRANCH   1  28
BRANCH   2  29
ATOM     29  O   UNL     1      -3.287  -3.106 130.505  0.00  0.00    +0.000 OA
ATOM     30  C   UNL     1      -3.018  -3.669 129.228  0.00  0.00    +0.000 C 
ENDBRANCH   2  29
TORSDOF 3
ENDMDL
MODEL 4
REMARK VINA RESULT:      -7.2      6.410      8.527
REMARK  Name = Prazosin
REMARK  5 active torsions:
REMARK  status: ('A' for Active; 'I' for Inactive)
REMARK    1  A    between atoms: C_1  and  O_2
REMARK    2  A    between atoms: O_2  and  C_3
REMARK    3  A    between atoms: C_4  and  O_5
REMARK    4  A    between atoms: O_5  and  C_6
REMARK    5  A    between atoms: C_22  and  C_24
REMARK                            x       y       z     vdW  Elec       q    Type
REMARK                         _______ _______ _______ _____ _____    ______ ____
ROOT
ATOM      1  C   UNL     1     -10.966   7.855 127.884  0.00  0.00    +0.000 A 
ATOM      2  C   UNL     1     -11.693   8.325 128.979  0.00  0.00    +0.000 A 
ATOM      3  C   UNL     1     -11.543   7.647 130.185  0.00  0.00    +0.000 A 
ATOM      4  C   UNL     1     -10.690   6.508 130.327  0.00  0.00    +0.000 A 
ATOM      5  C   UNL     1     -10.543   5.782 131.512  0.00  0.00    +0.000 A 
ATOM      6  N   UNL     1     -11.230   6.128 132.661  0.00  0.00    +0.000 N 
ATOM      7  N   UNL     1      -9.754   4.696 131.629  0.00  0.00    +0.000 NA
ATOM      8  C   UNL     1      -9.014   4.321 130.575  0.00  0.00    +0.000 A 
ATOM      9  N   UNL     1      -9.084   4.972 129.392  0.00  0.00    +0.000 NA
ATOM     10  C   UNL     1      -9.937   6.032 129.255  0.00  0.00    +0.000 A 
ATOM     11  C   UNL     1     -10.123   6.719 128.037  0.00  0.00    +0.000 A 
ATOM     12  N   UNL     1      -8.227   3.198 130.730  0.00  0.00    +0.000 N 
ATOM     13  C   UNL     1      -6.778   3.138 130.500  0.00  0.00    +0.000 C 
ATOM     14  C   UNL     1      -6.048   2.554 131.760  0.00  0.00    +0.000 C 
ATOM     15  N   UNL     1      -6.662   1.284 132.209  0.00  0.00    +0.000 N 
ATOM     16  C   UNL     1      -8.107   1.414 132.451  0.00  0.00    +0.000 C 
ATOM     17  C   UNL     1      -8.831   1.948 131.196  0.00  0.00    +0.000 C 
ATOM     18  C   UNL     1      -5.889   0.137 132.461  0.00  0.00    +0.000 C 
ATOM     19  O   UNL     1      -4.657   0.169 132.335  0.00  0.00    +0.000 OA
ATOM     20  H   UNL     1     -11.838   6.924 132.731  0.00  0.00    +0.000 HD
ATOM     21  H   UNL     1     -11.038   5.569 133.478  0.00  0.00    +0.000 HD
ENDROOT
BRANCH  18  22
ATOM     22  C   UNL     1      -6.578  -1.102 132.811  0.00  0.00    +0.000 A 
ATOM     23  C   UNL     1      -6.947  -2.188 132.033  0.00  0.00    +0.000 A 
ATOM     24  C   UNL     1      -7.599  -3.115 132.879  0.00  0.00    +0.000 A 
ATOM     25  C   UNL     1      -7.555  -2.572 134.141  0.00  0.00    +0.000 A 
ATOM     26  O   UNL     1      -6.925  -1.363 134.118  0.00  0.00    +0.000 OA
ENDBRANCH  18  22
BRANCH   1  28
ATOM     27  C   UNL     1     -11.883   7.630 125.683  0.00  0.00    +0.000 C 
ATOM     28  O   UNL     1     -11.059   8.353 126.602  0.00  0.00    +0.000 OA
ENDBRANCH   1  28
BRANCH   2  29
ATOM     29  O   UNL     1     -12.545   9.378 128.808  0.00  0.00    +0.000 OA
ATOM     30  C   UNL     1     -13.072  10.058 129.940  0.00  0.00    +0.000 C 
ENDBRANCH   2  29
TORSDOF 3
ENDMDL
MODEL 5
REMARK VINA RESULT:      -7.1      3.644      4.489
REMARK  Name = Prazosin
REMARK  5 active torsions:
REMARK  status: ('A' for Active; 'I' for Inactive)
REMARK    1  A    between atoms: C_1  and  O_2
REMARK    2  A    between atoms: O_2  and  C_3
REMARK    3  A    between atoms: C_4  and  O_5
REMARK    4  A    between atoms: O_5  and  C_6
REMARK    5  A    between atoms: C_22  and  C_24
REMARK                            x       y       z     vdW  Elec       q    Type
REMARK                         _______ _______ _______ _____ _____    ______ ____
ROOT
ATOM      1  C   UNL     1      -9.843   5.684 131.979  0.00  0.00    +0.000 A 
ATOM      2  C   UNL     1      -8.683   5.623 132.752  0.00  0.00    +0.000 A 
ATOM      3  C   UNL     1      -7.625   4.863 132.260  0.00  0.00    +0.000 A 
ATOM      4  C   UNL     1      -7.698   4.157 131.018  0.00  0.00    +0.000 A 
ATOM      5  C   UNL     1      -6.670   3.356 130.512  0.00  0.00    +0.000 A 
ATOM      6  N   UNL     1      -5.480   3.190 131.195  0.00  0.00    +0.000 N 
ATOM      7  N   UNL     1      -6.757   2.676 129.352  0.00  0.00    +0.000 NA
ATOM      8  C   UNL     1      -7.859   2.820 128.602  0.00  0.00    +0.000 A 
ATOM      9  N   UNL     1      -8.898   3.584 129.007  0.00  0.00    +0.000 NA
ATOM     10  C   UNL     1      -8.837   4.219 130.218  0.00  0.00    +0.000 A 
ATOM     11  C   UNL     1      -9.904   4.975 130.747  0.00  0.00    +0.000 A 
ATOM     12  N   UNL     1      -7.915   2.100 127.426  0.00  0.00    +0.000 N 
ATOM     13  C   UNL     1      -8.146   2.668 126.092  0.00  0.00    +0.000 C 
ATOM     14  C   UNL     1      -7.016   2.216 125.102  0.00  0.00    +0.000 C 
ATOM     15  N   UNL     1      -6.817   0.749 125.130  0.00  0.00    +0.000 N 
ATOM     16  C   UNL     1      -6.561   0.244 126.488  0.00  0.00    +0.000 C 
ATOM     17  C   UNL     1      -7.696   0.652 127.451  0.00  0.00    +0.000 C 
ATOM     18  C   UNL     1      -6.783  -0.015 123.951  0.00  0.00    +0.000 C 
ATOM     19  O   UNL     1      -6.895   0.531 122.844  0.00  0.00    +0.000 OA
ATOM     20  H   UNL     1      -5.264   3.650 132.062  0.00  0.00    +0.000 HD
ATOM     21  H   UNL     1      -4.782   2.622 130.740  0.00  0.00    +0.000 HD
ENDROOT
BRANCH  18  22
ATOM     22  C   UNL     1      -6.677  -1.467 124.067  0.00  0.00    +0.000 A 
ATOM     23  C   UNL     1      -5.578  -2.308 123.992  0.00  0.00    +0.000 A 
ATOM     24  C   UNL     1      -6.042  -3.632 124.167  0.00  0.00    +0.000 A 
ATOM     25  C   UNL     1      -7.395  -3.532 124.389  0.00  0.00    +0.000 A 
ATOM     26  O   UNL     1      -7.790  -2.228 124.349  0.00  0.00    +0.000 OA
ENDBRANCH  18  22
BRANCH   1  28
ATOM     27  C   UNL     1     -11.980   6.550 131.328  0.00  0.00    +0.000 C 
ATOM     28  O   UNL     1     -11.008   6.318 132.353  0.00  0.00    +0.000 OA
ENDBRANCH   1  28
BRANCH   2  29
ATOM     29  O   UNL     1      -8.655   6.257 133.960  0.00  0.00    +0.000 OA
ATOM     30  C   UNL     1      -7.828   5.762 135.006  0.00  0.00    +0.000 C 
ENDBRANCH   2  29
TORSDOF 3
ENDMDL
MODEL 6
REMARK VINA RESULT:      -7.0      6.135      7.829
REMARK  Name = Prazosin
REMARK  5 active torsions:
REMARK  status: ('A' for Active; 'I' for Inactive)
REMARK    1  A    between atoms: C_1  and  O_2
REMARK    2  A    between atoms: O_2  and  C_3
REMARK    3  A    between atoms: C_4  and  O_5
REMARK    4  A    between atoms: O_5  and  C_6
REMARK    5  A    between atoms: C_22  and  C_24
REMARK                            x       y       z     vdW  Elec       q    Type
REMARK                         _______ _______ _______ _____ _____    ______ ____
ROOT
ATOM      1  C   UNL     1      -9.774   6.480 129.506  0.00  0.00    +0.000 A 
ATOM      2  C   UNL     1     -10.490   6.544 130.703  0.00  0.00    +0.000 A 
ATOM      3  C   UNL     1     -10.255   5.544 131.643  0.00  0.00    +0.000 A 
ATOM      4  C   UNL     1      -9.330   4.478 131.418  0.00  0.00    +0.000 A 
ATOM      5  C   UNL     1      -9.097   3.439 132.323  0.00  0.00    +0.000 A 
ATOM      6  N   UNL     1      -9.762   3.372 133.533  0.00  0.00    +0.000 N 
ATOM      7  N   UNL     1      -8.238   2.426 132.092  0.00  0.00    +0.000 NA
ATOM      8  C   UNL     1      -7.514   2.440 130.964  0.00  0.00    +0.000 A 
ATOM      9  N   UNL     1      -7.665   3.412 130.037  0.00  0.00    +0.000 NA
ATOM     10  C   UNL     1      -8.587   4.403 130.241  0.00  0.00    +0.000 A 
ATOM     11  C   UNL     1      -8.858   5.412 129.293  0.00  0.00    +0.000 A 
ATOM     12  N   UNL     1      -6.654   1.381 130.757  0.00  0.00    +0.000 N 
ATOM     13  C   UNL     1      -5.214   1.494 130.499  0.00  0.00    +0.000 C 
ATOM     14  C   UNL     1      -4.405   0.609 131.510  0.00  0.00    +0.000 C 
ATOM     15  N   UNL     1      -4.923  -0.778 131.559  0.00  0.00    +0.000 N 
ATOM     16  C   UNL     1      -6.364  -0.827 131.851  0.00  0.00    +0.000 C 
ATOM     17  C   UNL     1      -7.163   0.009 130.829  0.00  0.00    +0.000 C 
ATOM     18  C   UNL     1      -4.072  -1.891 131.439  0.00  0.00    +0.000 C 
ATOM     19  O   UNL     1      -2.850  -1.736 131.310  0.00  0.00    +0.000 OA
ATOM     20  H   UNL     1     -10.415   4.065 133.851  0.00  0.00    +0.000 HD
ATOM     21  H   UNL     1      -9.508   2.607 134.138  0.00  0.00    +0.000 HD
ENDROOT
BRANCH  18  22
ATOM     22  C   UNL     1      -4.671  -3.222 131.404  0.00  0.00    +0.000 A 
ATOM     23  C   UNL     1      -5.163  -3.971 130.347  0.00  0.00    +0.000 A 
ATOM     24  C   UNL     1      -5.637  -5.193 130.877  0.00  0.00    +0.000 A 
ATOM     25  C   UNL     1      -5.370  -5.151 132.224  0.00  0.00    +0.000 A 
ATOM     26  O   UNL     1      -4.769  -3.973 132.554  0.00  0.00    +0.000 OA
ENDBRANCH  18  22
BRANCH   1  28
ATOM     27  C   UNL     1     -11.063   7.091 127.582  0.00  0.00    +0.000 C 
ATOM     28  O   UNL     1      -9.943   7.334 128.439  0.00  0.00    +0.000 OA
ENDBRANCH   1  28
BRANCH   2  29
ATOM     29  O   UNL     1     -11.411   7.537 130.874  0.00  0.00    +0.000 OA
ATOM     30  C   UNL     1     -12.760   7.211 131.183  0.00  0.00    +0.000 C 
ENDBRANCH   2  29
TORSDOF 3
ENDMDL
MODEL 7
REMARK VINA RESULT:      -6.9      6.872      9.083
REMARK  Name = Prazosin
REMARK  5 active torsions:
REMARK  status: ('A' for Active; 'I' for Inactive)
REMARK    1  A    between atoms: C_1  and  O_2
REMARK    2  A    between atoms: O_2  and  C_3
REMARK    3  A    between atoms: C_4  and  O_5
REMARK    4  A    between atoms: O_5  and  C_6
REMARK    5  A    between atoms: C_22  and  C_24
REMARK                            x       y       z     vdW  Elec       q    Type
REMARK                         _______ _______ _______ _____ _____    ______ ____
ROOT
ATOM      1  C   UNL     1      -6.186  -2.732 134.224  0.00  0.00    +0.000 A 
ATOM      2  C   UNL     1      -6.396  -3.557 133.118  0.00  0.00    +0.000 A 
ATOM      3  C   UNL     1      -6.943  -2.974 131.978  0.00  0.00    +0.000 A 
ATOM      4  C   UNL     1      -7.293  -1.588 131.916  0.00  0.00    +0.000 A 
ATOM      5  C   UNL     1      -7.877  -0.978 130.803  0.00  0.00    +0.000 A 
ATOM      6  N   UNL     1      -8.162  -1.691 129.653  0.00  0.00    +0.000 N 
ATOM      7  N   UNL     1      -8.224   0.324 130.762  0.00  0.00    +0.000 NA
ATOM      8  C   UNL     1      -7.938   1.100 131.817  0.00  0.00    +0.000 A 
ATOM      9  N   UNL     1      -7.363   0.597 132.932  0.00  0.00    +0.000 NA
ATOM     10  C   UNL     1      -7.074  -0.739 132.999  0.00  0.00    +0.000 A 
ATOM     11  C   UNL     1      -6.541  -1.356 134.150  0.00  0.00    +0.000 A 
ATOM     12  N   UNL     1      -8.318   2.425 131.742  0.00  0.00    +0.000 N 
ATOM     13  C   UNL     1      -7.425   3.576 131.919  0.00  0.00    +0.000 C 
ATOM     14  C   UNL     1      -7.538   4.550 130.695  0.00  0.00    +0.000 C 
ATOM     15  N   UNL     1      -8.947   4.894 130.397  0.00  0.00    +0.000 N 
ATOM     16  C   UNL     1      -9.785   3.701 130.200  0.00  0.00    +0.000 C 
ATOM     17  C   UNL     1      -9.707   2.764 131.424  0.00  0.00    +0.000 C 
ATOM     18  C   UNL     1      -9.365   6.226 130.228  0.00  0.00    +0.000 C 
ATOM     19  O   UNL     1      -8.548   7.154 130.302  0.00  0.00    +0.000 OA
ATOM     20  H   UNL     1      -7.941  -2.663 129.530  0.00  0.00    +0.000 HD
ATOM     21  H   UNL     1      -8.552  -1.163 128.888  0.00  0.00    +0.000 HD
ENDROOT
BRANCH  18  22
ATOM     22  C   UNL     1     -10.787   6.488 130.029  0.00  0.00    +0.000 A 
ATOM     23  C   UNL     1     -11.757   6.955 130.902  0.00  0.00    +0.000 A 
ATOM     24  C   UNL     1     -12.977   7.016 130.189  0.00  0.00    +0.000 A 
ATOM     25  C   UNL     1     -12.684   6.628 128.904  0.00  0.00    +0.000 A 
ATOM     26  O   UNL     1     -11.360   6.323 128.788  0.00  0.00    +0.000 OA
ENDBRANCH  18  22
BRANCH   1  28
ATOM     27  C   UNL     1      -4.352  -2.938 135.751  0.00  0.00    +0.000 C 
ATOM     28  O   UNL     1      -5.734  -3.159 135.453  0.00  0.00    +0.000 OA
ENDBRANCH   1  28
BRANCH   2  29
ATOM     29  O   UNL     1      -6.109  -4.888 133.217  0.00  0.00    +0.000 OA
ATOM     30  C   UNL     1      -4.823  -5.369 132.847  0.00  0.00    +0.000 C 
ENDBRANCH   2  29
TORSDOF 3
ENDMDL
MODEL 8
REMARK VINA RESULT:      -6.9      5.571      7.113
REMARK  Name = Prazosin
REMARK  5 active torsions:
REMARK  status: ('A' for Active; 'I' for Inactive)
REMARK    1  A    between atoms: C_1  and  O_2
REMARK    2  A    between atoms: O_2  and  C_3
REMARK    3  A    between atoms: C_4  and  O_5
REMARK    4  A    between atoms: O_5  and  C_6
REMARK    5  A    between atoms: C_22  and  C_24
REMARK                            x       y       z     vdW  Elec       q    Type
REMARK                         _______ _______ _______ _____ _____    ______ ____
ROOT
ATOM      1  C   UNL     1      -5.662   5.608 136.047  0.00  0.00    +0.000 A 
ATOM      2  C   UNL     1      -6.973   6.085 136.091  0.00  0.00    +0.000 A 
ATOM      3  C   UNL     1      -7.943   5.354 135.412  0.00  0.00    +0.000 A 
ATOM      4  C   UNL     1      -7.638   4.162 134.683  0.00  0.00    +0.000 A 
ATOM      5  C   UNL     1      -8.579   3.424 133.960  0.00  0.00    +0.000 A 
ATOM      6  N   UNL     1      -9.907   3.806 133.900  0.00  0.00    +0.000 N 
ATOM      7  N   UNL     1      -8.277   2.314 133.258  0.00  0.00    +0.000 NA
ATOM      8  C   UNL     1      -7.021   1.845 133.301  0.00  0.00    +0.000 A 
ATOM      9  N   UNL     1      -6.049   2.488 133.985  0.00  0.00    +0.000 NA
ATOM     10  C   UNL     1      -6.341   3.653 134.641  0.00  0.00    +0.000 A 
ATOM     11  C   UNL     1      -5.371   4.423 135.316  0.00  0.00    +0.000 A 
ATOM     12  N   UNL     1      -6.749   0.713 132.561  0.00  0.00    +0.000 N 
ATOM     13  C   UNL     1      -6.165  -0.526 133.089  0.00  0.00    +0.000 C 
ATOM     14  C   UNL     1      -7.063  -1.757 132.715  0.00  0.00    +0.000 C 
ATOM     15  N   UNL     1      -7.381  -1.783 131.269  0.00  0.00    +0.000 N 
ATOM     16  C   UNL     1      -7.990  -0.526 130.806  0.00  0.00    +0.000 C 
ATOM     17  C   UNL     1      -7.085   0.680 131.136  0.00  0.00    +0.000 C 
ATOM     18  C   UNL     1      -7.199  -2.941 130.492  0.00  0.00    +0.000 C 
ATOM     19  O   UNL     1      -6.785  -3.987 131.011  0.00  0.00    +0.000 OA
ATOM     20  H   UNL     1     -10.283   4.598 134.389  0.00  0.00    +0.000 HD
ATOM     21  H   UNL     1     -10.521   3.196 133.384  0.00  0.00    +0.000 HD
ENDROOT
BRANCH  18  22
ATOM     22  C   UNL     1      -7.448  -2.859 129.056  0.00  0.00    +0.000 A 
ATOM     23  C   UNL     1      -8.501  -3.327 128.287  0.00  0.00    +0.000 A 
ATOM     24  C   UNL     1      -8.234  -2.981 126.942  0.00  0.00    +0.000 A 
ATOM     25  C   UNL     1      -7.054  -2.277 126.961  0.00  0.00    +0.000 A 
ATOM     26  O   UNL     1      -6.576  -2.179 128.234  0.00  0.00    +0.000 OA
ENDBRANCH  18  22
BRANCH   1  28
ATOM     27  C   UNL     1      -3.439   6.444 135.736  0.00  0.00    +0.000 C 
ATOM     28  O   UNL     1      -4.570   6.249 136.591  0.00  0.00    +0.000 OA
ENDBRANCH   1  28
BRANCH   2  29
ATOM     29  O   UNL     1      -7.233   7.256 136.743  0.00  0.00    +0.000 OA
ATOM     30  C   UNL     1      -8.254   7.309 137.731  0.00  0.00    +0.000 C 
ENDBRANCH   2  29
TORSDOF 3
ENDMDL
MODEL 9
REMARK VINA RESULT:      -6.9      6.696     10.233
REMARK  Name = Prazosin
REMARK  5 active torsions:
REMARK  status: ('A' for Active; 'I' for Inactive)
REMARK    1  A    between atoms: C_1  and  O_2
REMARK    2  A    between atoms: O_2  and  C_3
REMARK    3  A    between atoms: C_4  and  O_5
REMARK    4  A    between atoms: O_5  and  C_6
REMARK    5  A    between atoms: C_22  and  C_24
REMARK                            x       y       z     vdW  Elec       q    Type
REMARK                         _______ _______ _______ _____ _____    ______ ____
ROOT
ATOM      1  C   UNL     1      -8.988  -1.175 124.701  0.00  0.00    +0.000 A 
ATOM      2  C   UNL     1      -9.317   0.119 125.108  0.00  0.00    +0.000 A 
ATOM      3  C   UNL     1      -8.910   0.513 126.380  0.00  0.00    +0.000 A 
ATOM      4  C   UNL     1      -8.189  -0.354 127.260  0.00  0.00    +0.000 A 
ATOM      5  C   UNL     1      -7.797  -0.005 128.555  0.00  0.00    +0.000 A 
ATOM      6  N   UNL     1      -8.086   1.238 129.088  0.00  0.00    +0.000 N 
ATOM      7  N   UNL     1      -7.137  -0.837 129.384  0.00  0.00    +0.000 NA
ATOM      8  C   UNL     1      -6.773  -2.045 128.930  0.00  0.00    +0.000 A 
ATOM      9  N   UNL     1      -7.099  -2.462 127.686  0.00  0.00    +0.000 NA
ATOM     10  C   UNL     1      -7.830  -1.642 126.869  0.00  0.00    +0.000 A 
ATOM     11  C   UNL     1      -8.273  -2.028 125.587  0.00  0.00    +0.000 A 
ATOM     12  N   UNL     1      -6.108  -2.872 129.812  0.00  0.00    +0.000 N 
ATOM     13  C   UNL     1      -4.800  -3.494 129.571  0.00  0.00    +0.000 C 
ATOM     14  C   UNL     1      -3.816  -3.171 130.748  0.00  0.00    +0.000 C 
ATOM     15  N   UNL     1      -4.418  -3.475 132.067  0.00  0.00    +0.000 N 
ATOM     16  C   UNL     1      -5.711  -2.800 132.260  0.00  0.00    +0.000 C 
ATOM     17  C   UNL     1      -6.694  -3.154 131.124  0.00  0.00    +0.000 C 
ATOM     18  C   UNL     1      -3.742  -4.244 133.030  0.00  0.00    +0.000 C 
ATOM     19  O   UNL     1      -2.601  -4.670 132.805  0.00  0.00    +0.000 OA
ATOM     20  H   UNL     1      -8.554   1.968 128.581  0.00  0.00    +0.000 HD
ATOM     21  H   UNL     1      -7.736   1.416 130.016  0.00  0.00    +0.000 HD
ENDROOT
BRANCH  18  22
ATOM     22  C   UNL     1      -4.441  -4.577 134.267  0.00  0.00    +0.000 A 
ATOM     23  C   UNL     1      -5.268  -5.643 134.586  0.00  0.00    +0.000 A 
ATOM     24  C   UNL     1      -5.685  -5.472 135.927  0.00  0.00    +0.000 A 
ATOM     25  C   UNL     1      -5.054  -4.337 136.377  0.00  0.00    +0.000 A 
ATOM     26  O   UNL     1      -4.285  -3.795 135.390  0.00  0.00    +0.000 OA
ENDBRANCH  18  22
BRANCH   1  28
ATOM     27  C   UNL     1      -9.443  -3.182 123.476  0.00  0.00    +0.000 C 
ATOM     28  O   UNL     1      -9.383  -1.753 123.515  0.00  0.00    +0.000 OA
ENDBRANCH   1  28
BRANCH   2  29
ATOM     29  O   UNL     1     -10.056   0.910 124.277  0.00  0.00    +0.000 OA
ATOM     30  C   UNL     1      -9.423   1.928 123.513  0.00  0.00    +0.000 C 
ENDBRANCH   2  29
TORSDOF 3
ENDMDL
