MODEL 1
REMARK VINA RESULT:      -8.2      0.000      0.000
REMARK  Name = Prednisone
REMARK  6 active torsions:
REMARK  status: ('A' for Active; 'I' for Inactive)
REMARK    1  A    between atoms: C_5  and  O_6
REMARK    2  A    between atoms: C_5  and  C_7
REMARK    3  A    between atoms: C_7  and  C_9
REMARK    4  A    between atoms: C_9  and  O_10
REMARK    5  A    between atoms: C_11  and  C_12
REMARK    6  A    between atoms: C_28  and  C_29
REMARK                            x       y       z     vdW  Elec       q    Type
REMARK                         _______ _______ _______ _____ _____    ______ ____
ROOT
ATOM      1  C   UNL     1      -7.093  -3.209 130.443  0.00  0.00    +0.000 C 
ATOM      2  C   UNL     1      -6.276  -4.364 130.345  0.00  0.00    +0.000 C 
ATOM      3  C   UNL     1      -5.699  -3.090 129.793  0.00  0.00    +0.000 C 
ATOM      4  C   UNL     1      -6.554  -1.295 130.384  0.00  0.00    +0.000 C 
ATOM      5  C   UNL     1      -5.632  -2.105 130.968  0.00  0.00    +0.000 C 
ATOM      6  C   UNL     1      -5.264  -2.320 132.392  0.00  0.00    +0.000 C 
ATOM      7  C   UNL     1      -4.557  -1.330 129.639  0.00  0.00    +0.000 C 
ATOM      8  C   UNL     1      -5.468  -1.052 128.226  0.00  0.00    +0.000 C 
ATOM      9  O   UNL     1      -5.361   0.054 127.691  0.00  0.00    +0.000 OA
ATOM     10  C   UNL     1      -6.553  -2.192 127.649  0.00  0.00    +0.000 C 
ATOM     11  C   UNL     1      -7.712  -2.710 128.809  0.00  0.00    +0.000 C 
ATOM     12  C   UNL     1      -8.501  -3.891 128.286  0.00  0.00    +0.000 C 
ATOM     13  C   UNL     1      -9.093  -3.617 126.923  0.00  0.00    +0.000 C 
ATOM     14  C   UNL     1      -8.146  -3.078 125.885  0.00  0.00    +0.000 C 
ATOM     15  C   UNL     1      -8.138  -3.511 124.610  0.00  0.00    +0.000 C 
ATOM     16  C   UNL     1      -7.240  -2.723 123.729  0.00  0.00    +0.000 C 
ATOM     17  O   UNL     1      -7.560  -1.899 122.884  0.00  0.00    +0.000 OA
ATOM     18  C   UNL     1      -5.794  -2.919 124.100  0.00  0.00    +0.000 C 
ATOM     19  C   UNL     1      -5.954  -2.075 125.155  0.00  0.00    +0.000 C 
ATOM     20  C   UNL     1      -7.168  -1.945 126.250  0.00  0.00    +0.000 C 
ATOM     21  C   UNL     1      -8.028  -0.684 126.454  0.00  0.00    +0.000 C 
ENDROOT
BRANCH   4  22
ATOM     22  O   UNL     1      -7.735  -1.328 131.333  0.00  0.00    +0.000 OA
ATOM     23  H   UNL     1      -8.387  -2.016 131.142  0.00  0.00    +0.000 HD
ENDBRANCH   4  22
BRANCH   4  24
ATOM     24  C   UNL     1      -5.967   0.249 131.192  0.00  0.00    +0.000 C 
ATOM     25  O   UNL     1      -5.883   0.375 132.428  0.00  0.00    +0.000 OA
BRANCH  24  26
ATOM     26  C   UNL     1      -5.674   1.645 130.451  0.00  0.00    +0.000 C 
BRANCH  26  27
ATOM     27  O   UNL     1      -6.745   2.001 129.528  0.00  0.00    +0.000 OA
ATOM     28  H   UNL     1      -7.303   1.212 129.378  0.00  0.00    +0.000 HD
ENDBRANCH  26  27
ENDBRANCH  24  26
ENDBRANCH   4  24
TORSDOF 4
ENDMDL
MODEL 2
REMARK VINA RESULT:      -8.0      2.412      6.454
REMARK  Name = Prednisone
REMARK  6 active torsions:
REMARK  status: ('A' for Active; 'I' for Inactive)
REMARK    1  A    between atoms: C_5  and  O_6
REMARK    2  A    between atoms: C_5  and  C_7
REMARK    3  A    between atoms: C_7  and  C_9
REMARK    4  A    between atoms: C_9  and  O_10
REMARK    5  A    between atoms: C_11  and  C_12
REMARK    6  A    between atoms: C_28  and  C_29
REMARK                            x       y       z     vdW  Elec       q    Type
REMARK                         _______ _______ _______ _____ _____    ______ ____
ROOT
ATOM      1  C   UNL     1      -8.272   1.398 125.957  0.00  0.00    +0.000 C 
ATOM      2  C   UNL     1      -7.106   2.206 125.947  0.00  0.00    +0.000 C 
ATOM      3  C   UNL     1      -6.959   0.816 125.395  0.00  0.00    +0.000 C 
ATOM      4  C   UNL     1      -8.681  -0.210 124.860  0.00  0.00    +0.000 C 
ATOM      5  C   UNL     1      -7.932   0.719 124.211  0.00  0.00    +0.000 C 
ATOM      6  C   UNL     1      -8.278   1.711 123.159  0.00  0.00    +0.000 C 
ATOM      7  C   UNL     1      -6.804  -0.769 124.019  0.00  0.00    +0.000 C 
ATOM      8  C   UNL     1      -6.896  -1.764 125.399  0.00  0.00    +0.000 C 
ATOM      9  O   UNL     1      -7.033  -2.977 125.215  0.00  0.00    +0.000 OA
ATOM     10  C   UNL     1      -6.914  -1.115 126.944  0.00  0.00    +0.000 C 
ATOM     11  C   UNL     1      -8.132   0.072 127.193  0.00  0.00    +0.000 C 
ATOM     12  C   UNL     1      -7.939   0.766 128.525  0.00  0.00    +0.000 C 
ATOM     13  C   UNL     1      -7.816  -0.220 129.663  0.00  0.00    +0.000 C 
ATOM     14  C   UNL     1      -6.826  -1.337 129.470  0.00  0.00    +0.000 C 
ATOM     15  C   UNL     1      -5.990  -1.748 130.442  0.00  0.00    +0.000 C 
ATOM     16  C   UNL     1      -5.225  -2.968 130.081  0.00  0.00    +0.000 C 
ATOM     17  O   UNL     1      -5.402  -4.106 130.490  0.00  0.00    +0.000 OA
ATOM     18  C   UNL     1      -4.248  -2.695 128.968  0.00  0.00    +0.000 C 
ATOM     19  C   UNL     1      -5.267  -2.733 128.068  0.00  0.00    +0.000 C 
ATOM     20  C   UNL     1      -6.779  -2.099 128.132  0.00  0.00    +0.000 C 
ATOM     21  C   UNL     1      -8.076  -2.926 128.062  0.00  0.00    +0.000 C 
ENDROOT
BRANCH   4  22
ATOM     22  O   UNL     1     -10.023   0.466 125.060  0.00  0.00    +0.000 OA
ATOM     23  H   UNL     1      -9.992   1.432 125.060  0.00  0.00    +0.000 HD
ENDBRANCH   4  22
BRANCH   4  24
ATOM     24  C   UNL     1      -9.328  -1.010 123.336  0.00  0.00    +0.000 C 
ATOM     25  O   UNL     1     -10.074  -0.424 122.530  0.00  0.00    +0.000 OA
BRANCH  24  26
ATOM     26  C   UNL     1      -9.174  -2.563 122.952  0.00  0.00    +0.000 C 
BRANCH  26  27
ATOM     27  O   UNL     1      -9.935  -3.420 123.854  0.00  0.00    +0.000 OA
ATOM     28  H   UNL     1      -9.812  -3.097 124.769  0.00  0.00    +0.000 HD
ENDBRANCH  26  27
ENDBRANCH  24  26
ENDBRANCH   4  24
TORSDOF 4
ENDMDL
MODEL 3
REMARK VINA RESULT:      -7.6      2.536      6.386
REMARK  Name = Prednisone
REMARK  6 active torsions:
REMARK  status: ('A' for Active; 'I' for Inactive)
REMARK    1  A    between atoms: C_5  and  O_6
REMARK    2  A    between atoms: C_5  and  C_7
REMARK    3  A    between atoms: C_7  and  C_9
REMARK    4  A    between atoms: C_9  and  O_10
REMARK    5  A    between atoms: C_11  and  C_12
REMARK    6  A    between atoms: C_28  and  C_29
REMARK                            x       y       z     vdW  Elec       q    Type
REMARK                         _______ _______ _______ _____ _____    ______ ____
ROOT
ATOM      1  C   UNL     1      -7.799  -1.348 123.918  0.00  0.00    +0.000 C 
ATOM      2  C   UNL     1      -8.758  -2.381 124.076  0.00  0.00    +0.000 C 
ATOM      3  C   UNL     1      -9.000  -1.121 124.858  0.00  0.00    +0.000 C 
ATOM      4  C   UNL     1      -7.997   0.599 124.275  0.00  0.00    +0.000 C 
ATOM      5  C   UNL     1      -9.134   0.007 123.826  0.00  0.00    +0.000 C 
ATOM      6  C   UNL     1      -9.803   0.029 122.498  0.00  0.00    +0.000 C 
ATOM      7  C   UNL     1      -9.788   0.747 125.421  0.00  0.00    +0.000 C 
ATOM      8  C   UNL     1      -8.586   0.712 126.628  0.00  0.00    +0.000 C 
ATOM      9  O   UNL     1      -8.405   1.745 127.279  0.00  0.00    +0.000 OA
ATOM     10  C   UNL     1      -7.610  -0.633 126.848  0.00  0.00    +0.000 C 
ATOM     11  C   UNL     1      -6.800  -1.154 125.424  0.00  0.00    +0.000 C 
ATOM     12  C   UNL     1      -6.127  -2.491 125.650  0.00  0.00    +0.000 C 
ATOM     13  C   UNL     1      -5.244  -2.479 126.876  0.00  0.00    +0.000 C 
ATOM     14  C   UNL     1      -5.868  -1.951 128.139  0.00  0.00    +0.000 C 
ATOM     15  C   UNL     1      -5.698  -2.538 129.338  0.00  0.00    +0.000 C 
ATOM     16  C   UNL     1      -6.265  -1.752 130.463  0.00  0.00    +0.000 C 
ATOM     17  O   UNL     1      -5.657  -1.096 131.295  0.00  0.00    +0.000 OA
ATOM     18  C   UNL     1      -7.768  -1.695 130.390  0.00  0.00    +0.000 C 
ATOM     19  C   UNL     1      -7.682  -0.754 129.412  0.00  0.00    +0.000 C 
ATOM     20  C   UNL     1      -6.701  -0.655 128.101  0.00  0.00    +0.000 C 
ATOM     21  C   UNL     1      -5.703   0.489 127.842  0.00  0.00    +0.000 C 
ENDROOT
BRANCH   4  22
ATOM     22  O   UNL     1      -7.046   0.523 123.098  0.00  0.00    +0.000 OA
ATOM     23  H   UNL     1      -7.112   1.260 122.477  0.00  0.00    +0.000 HD
ENDBRANCH   4  22
BRANCH   4  24
ATOM     24  C   UNL     1      -8.471   2.300 123.763  0.00  0.00    +0.000 C 
ATOM     25  O   UNL     1      -9.083   2.541 122.707  0.00  0.00    +0.000 OA
BRANCH  24  26
ATOM     26  C   UNL     1      -8.014   3.661 124.487  0.00  0.00    +0.000 C 
BRANCH  26  27
ATOM     27  O   UNL     1      -9.033   4.153 125.407  0.00  0.00    +0.000 OA
ATOM     28  H   UNL     1      -9.905   4.094 124.966  0.00  0.00    +0.000 HD
ENDBRANCH  26  27
ENDBRANCH  24  26
ENDBRANCH   4  24
TORSDOF 4
ENDMDL
MODEL 4
REMARK VINA RESULT:      -7.4      5.097      9.045
REMARK  Name = Prednisone
REMARK  6 active torsions:
REMARK  status: ('A' for Active; 'I' for Inactive)
REMARK    1  A    between atoms: C_5  and  O_6
REMARK    2  A    between atoms: C_5  and  C_7
REMARK    3  A    between atoms: C_7  and  C_9
REMARK    4  A    between atoms: C_9  and  O_10
REMARK    5  A    between atoms: C_11  and  C_12
REMARK    6  A    between atoms: C_28  and  C_29
REMARK                            x       y       z     vdW  Elec       q    Type
REMARK                         _______ _______ _______ _____ _____    ______ ____
ROOT
ATOM      1  C   UNL     1      -3.834   4.212 126.706  0.00  0.00    +0.000 C 
ATOM      2  C   UNL     1      -2.845   3.203 126.598  0.00  0.00    +0.000 C 
ATOM      3  C   UNL     1      -3.926   2.970 127.615  0.00  0.00    +0.000 C 
ATOM      4  C   UNL     1      -5.672   4.079 127.455  0.00  0.00    +0.000 C 
ATOM      5  C   UNL     1      -5.250   2.945 126.838  0.00  0.00    +0.000 C 
ATOM      6  C   UNL     1      -5.584   2.355 125.515  0.00  0.00    +0.000 C 
ATOM      7  C   UNL     1      -5.676   2.232 128.521  0.00  0.00    +0.000 C 
ATOM      8  C   UNL     1      -5.326   3.360 129.749  0.00  0.00    +0.000 C 
ATOM      9  O   UNL     1      -6.189   3.548 130.610  0.00  0.00    +0.000 OA
ATOM     10  C   UNL     1      -3.913   4.263 129.727  0.00  0.00    +0.000 C 
ATOM     11  C   UNL     1      -3.656   5.131 128.265  0.00  0.00    +0.000 C 
ATOM     12  C   UNL     1      -2.267   5.731 128.236  0.00  0.00    +0.000 C 
ATOM     13  C   UNL     1      -1.976   6.542 129.477  0.00  0.00    +0.000 C 
ATOM     14  C   UNL     1      -2.262   5.868 130.792  0.00  0.00    +0.000 C 
ATOM     15  C   UNL     1      -1.430   5.944 131.848  0.00  0.00    +0.000 C 
ATOM     16  C   UNL     1      -1.995   5.347 133.084  0.00  0.00    +0.000 C 
ATOM     17  O   UNL     1      -2.429   5.934 134.064  0.00  0.00    +0.000 OA
ATOM     18  C   UNL     1      -2.148   3.854 132.954  0.00  0.00    +0.000 C 
ATOM     19  C   UNL     1      -3.265   4.037 132.201  0.00  0.00    +0.000 C 
ATOM     20  C   UNL     1      -3.581   5.096 130.989  0.00  0.00    +0.000 C 
ATOM     21  C   UNL     1      -4.698   6.155 131.024  0.00  0.00    +0.000 C 
ENDROOT
BRANCH   4  22
ATOM     22  O   UNL     1      -5.791   5.092 126.335  0.00  0.00    +0.000 OA
ATOM     23  H   UNL     1      -5.703   4.724 125.446  0.00  0.00    +0.000 HD
ENDBRANCH   4  22
BRANCH   4  24
ATOM     24  C   UNL     1      -7.466   3.709 127.292  0.00  0.00    +0.000 C 
ATOM     25  O   UNL     1      -8.249   4.434 126.650  0.00  0.00    +0.000 OA
BRANCH  24  26
ATOM     26  C   UNL     1      -8.263   2.554 128.076  0.00  0.00    +0.000 C 
BRANCH  26  27
ATOM     27  O   UNL     1      -9.013   3.088 129.208  0.00  0.00    +0.000 OA
ATOM     28  H   UNL     1      -8.592   2.777 130.034  0.00  0.00    +0.000 HD
ENDBRANCH  26  27
ENDBRANCH  24  26
ENDBRANCH   4  24
TORSDOF 4
ENDMDL
MODEL 5
REMARK VINA RESULT:      -7.3      2.668      6.567
REMARK  Name = Prednisone
REMARK  6 active torsions:
REMARK  status: ('A' for Active; 'I' for Inactive)
REMARK    1  A    between atoms: C_5  and  O_6
REMARK    2  A    between atoms: C_5  and  C_7
REMARK    3  A    between atoms: C_7  and  C_9
REMARK    4  A    between atoms: C_9  and  O_10
REMARK    5  A    between atoms: C_11  and  C_12
REMARK    6  A    between atoms: C_28  and  C_29
REMARK                            x       y       z     vdW  Elec       q    Type
REMARK                         _______ _______ _______ _____ _____    ______ ____
ROOT
ATOM      1  C   UNL     1      -6.573  -2.757 129.330  0.00  0.00    +0.000 C 
ATOM      2  C   UNL     1      -7.738  -3.484 128.979  0.00  0.00    +0.000 C 
ATOM      3  C   UNL     1      -7.910  -2.406 130.012  0.00  0.00    +0.000 C 
ATOM      4  C   UNL     1      -6.433  -0.958 130.169  0.00  0.00    +0.000 C 
ATOM      5  C   UNL     1      -7.497  -1.092 129.336  0.00  0.00    +0.000 C 
ATOM      6  C   UNL     1      -7.743  -0.595 127.956  0.00  0.00    +0.000 C 
ATOM      7  C   UNL     1      -8.397  -0.558 130.894  0.00  0.00    +0.000 C 
ATOM      8  C   UNL     1      -7.622  -1.192 132.272  0.00  0.00    +0.000 C 
ATOM      9  O   UNL     1      -7.411  -0.420 133.210  0.00  0.00    +0.000 OA
ATOM     10  C   UNL     1      -7.066  -2.774 132.311  0.00  0.00    +0.000 C 
ATOM     11  C   UNL     1      -6.022  -3.183 131.009  0.00  0.00    +0.000 C 
ATOM     12  C   UNL     1      -5.749  -4.673 130.990  0.00  0.00    +0.000 C 
ATOM     13  C   UNL     1      -5.268  -5.176 132.330  0.00  0.00    +0.000 C 
ATOM     14  C   UNL     1      -6.092  -4.778 133.524  0.00  0.00    +0.000 C 
ATOM     15  C   UNL     1      -6.400  -5.634 134.516  0.00  0.00    +0.000 C 
ATOM     16  C   UNL     1      -7.075  -4.980 135.666  0.00  0.00    +0.000 C 
ATOM     17  O   UNL     1      -6.599  -4.720 136.761  0.00  0.00    +0.000 OA
ATOM     18  C   UNL     1      -8.446  -4.485 135.289  0.00  0.00    +0.000 C 
ATOM     19  C   UNL     1      -7.884  -3.419 134.658  0.00  0.00    +0.000 C 
ATOM     20  C   UNL     1      -6.576  -3.323 133.673  0.00  0.00    +0.000 C 
ATOM     21  C   UNL     1      -5.321  -2.481 133.969  0.00  0.00    +0.000 C 
ENDROOT
BRANCH   4  22
ATOM     22  O   UNL     1      -5.228  -1.046 129.253  0.00  0.00    +0.000 OA
ATOM     23  H   UNL     1      -4.502  -0.451 129.483  0.00  0.00    +0.000 HD
ENDBRANCH   4  22
BRANCH   4  24
ATOM     24  C   UNL     1      -6.359   0.876 130.067  0.00  0.00    +0.000 C 
ATOM     25  O   UNL     1      -6.546   1.501 129.007  0.00  0.00    +0.000 OA
BRANCH  24  26
ATOM     26  C   UNL     1      -5.879   1.864 131.241  0.00  0.00    +0.000 C 
BRANCH  26  27
ATOM     27  O   UNL     1      -7.002   2.337 132.042  0.00  0.00    +0.000 OA
ATOM     28  H   UNL     1      -7.350   3.157 131.638  0.00  0.00    +0.000 HD
ENDBRANCH  26  27
ENDBRANCH  24  26
ENDBRANCH   4  24
TORSDOF 4
ENDMDL
MODEL 6
REMARK VINA RESULT:      -7.1      1.943      3.306
REMARK  Name = Prednisone
REMARK  6 active torsions:
REMARK  status: ('A' for Active; 'I' for Inactive)
REMARK    1  A    between atoms: C_5  and  O_6
REMARK    2  A    between atoms: C_5  and  C_7
REMARK    3  A    between atoms: C_7  and  C_9
REMARK    4  A    between atoms: C_9  and  O_10
REMARK    5  A    between atoms: C_11  and  C_12
REMARK    6  A    between atoms: C_28  and  C_29
REMARK                            x       y       z     vdW  Elec       q    Type
REMARK                         _______ _______ _______ _____ _____    ______ ____
ROOT
ATOM      1  C   UNL     1      -7.585   0.497 131.155  0.00  0.00    +0.000 C 
ATOM      2  C   UNL     1      -8.902   0.159 131.559  0.00  0.00    +0.000 C 
ATOM      3  C   UNL     1      -8.034  -0.977 131.093  0.00  0.00    +0.000 C 
ATOM      4  C   UNL     1      -5.983  -0.675 131.026  0.00  0.00    +0.000 C 
ATOM      5  C   UNL     1      -6.825  -1.010 132.038  0.00  0.00    +0.000 C 
ATOM      6  C   UNL     1      -6.739  -0.799 133.508  0.00  0.00    +0.000 C 
ATOM      7  C   UNL     1      -6.765  -2.655 131.138  0.00  0.00    +0.000 C 
ATOM      8  C   UNL     1      -6.641  -2.407 129.457  0.00  0.00    +0.000 C 
ATOM      9  O   UNL     1      -5.794  -3.065 128.847  0.00  0.00    +0.000 OA
ATOM     10  C   UNL     1      -7.551  -1.234 128.678  0.00  0.00    +0.000 C 
ATOM     11  C   UNL     1      -7.397   0.339 129.354  0.00  0.00    +0.000 C 
ATOM     12  C   UNL     1      -8.412   1.284 128.747  0.00  0.00    +0.000 C 
ATOM     13  C   UNL     1      -8.366   1.269 127.237  0.00  0.00    +0.000 C 
ATOM     14  C   UNL     1      -8.409  -0.086 126.585  0.00  0.00    +0.000 C 
ATOM     15  C   UNL     1      -9.156  -0.348 125.496  0.00  0.00    +0.000 C 
ATOM     16  C   UNL     1      -8.914  -1.699 124.930  0.00  0.00    +0.000 C 
ATOM     17  O   UNL     1      -8.295  -1.981 123.914  0.00  0.00    +0.000 OA
ATOM     18  C   UNL     1      -9.390  -2.780 125.863  0.00  0.00    +0.000 C 
ATOM     19  C   UNL     1      -8.283  -2.601 126.631  0.00  0.00    +0.000 C 
ATOM     20  C   UNL     1      -7.533  -1.230 127.130  0.00  0.00    +0.000 C 
ATOM     21  C   UNL     1      -6.079  -0.857 126.789  0.00  0.00    +0.000 C 
ENDROOT
BRANCH   4  22
ATOM     22  O   UNL     1      -5.433   0.678 131.430  0.00  0.00    +0.000 OA
ATOM     23  H   UNL     1      -5.360   1.316 130.707  0.00  0.00    +0.000 HD
ENDBRANCH   4  22
BRANCH   4  24
ATOM     24  C   UNL     1      -4.500  -1.479 131.759  0.00  0.00    +0.000 C 
ATOM     25  O   UNL     1      -4.057  -1.181 132.883  0.00  0.00    +0.000 OA
BRANCH  24  26
ATOM     26  C   UNL     1      -3.513  -2.497 131.001  0.00  0.00    +0.000 C 
BRANCH  26  27
ATOM     27  O   UNL     1      -3.093  -1.978 129.705  0.00  0.00    +0.000 OA
ATOM     28  H   UNL     1      -3.688  -1.243 129.456  0.00  0.00    +0.000 HD
ENDBRANCH  26  27
ENDBRANCH  24  26
ENDBRANCH   4  24
TORSDOF 4
ENDMDL
MODEL 7
REMARK VINA RESULT:      -7.0      2.381      5.834
REMARK  Name = Prednisone
REMARK  6 active torsions:
REMARK  status: ('A' for Active; 'I' for Inactive)
REMARK    1  A    between atoms: C_5  and  O_6
REMARK    2  A    between atoms: C_5  and  C_7
REMARK    3  A    between atoms: C_7  and  C_9
REMARK    4  A    between atoms: C_9  and  O_10
REMARK    5  A    between atoms: C_11  and  C_12
REMARK    6  A    between atoms: C_28  and  C_29
REMARK                            x       y       z     vdW  Elec       q    Type
REMARK                         _______ _______ _______ _____ _____    ______ ____
ROOT
ATOM      1  C   UNL     1      -7.662   1.478 127.790  0.00  0.00    +0.000 C 
ATOM      2  C   UNL     1      -6.524   2.185 128.255  0.00  0.00    +0.000 C 
ATOM      3  C   UNL     1      -6.260   1.027 127.333  0.00  0.00    +0.000 C 
ATOM      4  C   UNL     1      -7.834   0.311 126.188  0.00  0.00    +0.000 C 
ATOM      5  C   UNL     1      -6.979   1.353 126.017  0.00  0.00    +0.000 C 
ATOM      6  C   UNL     1      -7.119   2.638 125.283  0.00  0.00    +0.000 C 
ATOM      7  C   UNL     1      -5.823  -0.062 125.587  0.00  0.00    +0.000 C 
ATOM      8  C   UNL     1      -6.177  -1.428 126.541  0.00  0.00    +0.000 C 
ATOM      9  O   UNL     1      -6.266  -2.515 125.965  0.00  0.00    +0.000 OA
ATOM     10  C   UNL     1      -6.505  -1.287 128.179  0.00  0.00    +0.000 C 
ATOM     11  C   UNL     1      -7.758  -0.170 128.552  0.00  0.00    +0.000 C 
ATOM     12  C   UNL     1      -7.837   0.067 130.045  0.00  0.00    +0.000 C 
ATOM     13  C   UNL     1      -7.933  -1.227 130.818  0.00  0.00    +0.000 C 
ATOM     14  C   UNL     1      -6.915  -2.282 130.477  0.00  0.00    +0.000 C 
ATOM     15  C   UNL     1      -6.285  -3.017 131.411  0.00  0.00    +0.000 C 
ATOM     16  C   UNL     1      -5.453  -4.106 130.839  0.00  0.00    +0.000 C 
ATOM     17  O   UNL     1      -5.698  -5.303 130.829  0.00  0.00    +0.000 OA
ATOM     18  C   UNL     1      -4.278  -3.557 130.074  0.00  0.00    +0.000 C 
ATOM     19  C   UNL     1      -5.100  -3.260 129.031  0.00  0.00    +0.000 C 
ATOM     20  C   UNL     1      -6.599  -2.595 129.002  0.00  0.00    +0.000 C 
ATOM     21  C   UNL     1      -7.850  -3.289 128.432  0.00  0.00    +0.000 C 
ENDROOT
BRANCH   4  22
ATOM     22  O   UNL     1      -9.194   0.964 126.331  0.00  0.00    +0.000 OA
ATOM     23  H   UNL     1      -9.337   1.420 127.171  0.00  0.00    +0.000 HD
ENDBRANCH   4  22
BRANCH   4  24
ATOM     24  C   UNL     1      -8.161   0.057 124.396  0.00  0.00    +0.000 C 
ATOM     25  O   UNL     1      -8.371   0.997 123.608  0.00  0.00    +0.000 OA
BRANCH  24  26
ATOM     26  C   UNL     1      -8.395  -1.361 123.676  0.00  0.00    +0.000 C 
BRANCH  26  27
ATOM     27  O   UNL     1      -9.492  -2.103 124.287  0.00  0.00    +0.000 OA
ATOM     28  H   UNL     1     -10.336  -1.685 124.023  0.00  0.00    +0.000 HD
ENDBRANCH  26  27
ENDBRANCH  24  26
ENDBRANCH   4  24
TORSDOF 4
ENDMDL
MODEL 8
REMARK VINA RESULT:      -6.8      5.644      8.290
REMARK  Name = Prednisone
REMARK  6 active torsions:
REMARK  status: ('A' for Active; 'I' for Inactive)
REMARK    1  A    between atoms: C_5  and  O_6
REMARK    2  A    between atoms: C_5  and  C_7
REMARK    3  A    between atoms: C_7  and  C_9
REMARK    4  A    between atoms: C_9  and  O_10
REMARK    5  A    between atoms: C_11  and  C_12
REMARK    6  A    between atoms: C_28  and  C_29
REMARK                            x       y       z     vdW  Elec       q    Type
REMARK                         _______ _______ _______ _____ _____    ______ ____
ROOT
ATOM      1  C   UNL     1      -7.102   2.623 130.223  0.00  0.00    +0.000 C 
ATOM      2  C   UNL     1      -7.010   2.550 128.811  0.00  0.00    +0.000 C 
ATOM      3  C   UNL     1      -6.640   3.866 129.436  0.00  0.00    +0.000 C 
ATOM      4  C   UNL     1      -6.209   3.896 131.465  0.00  0.00    +0.000 C 
ATOM      5  C   UNL     1      -5.462   3.579 130.376  0.00  0.00    +0.000 C 
ATOM      6  C   UNL     1      -4.287   2.683 130.210  0.00  0.00    +0.000 C 
ATOM      7  C   UNL     1      -5.479   5.447 130.198  0.00  0.00    +0.000 C 
ATOM      8  C   UNL     1      -6.972   6.079 130.723  0.00  0.00    +0.000 C 
ATOM      9  O   UNL     1      -6.941   7.053 131.480  0.00  0.00    +0.000 OA
ATOM     10  C   UNL     1      -8.422   5.340 130.322  0.00  0.00    +0.000 C 
ATOM     11  C   UNL     1      -8.498   3.672 130.730  0.00  0.00    +0.000 C 
ATOM     12  C   UNL     1      -9.734   3.031 130.137  0.00  0.00    +0.000 C 
ATOM     13  C   UNL     1     -10.990   3.795 130.487  0.00  0.00    +0.000 C 
ATOM     14  C   UNL     1     -10.957   5.278 130.233  0.00  0.00    +0.000 C 
ATOM     15  C   UNL     1     -11.987   5.948 129.684  0.00  0.00    +0.000 C 
ATOM     16  C   UNL     1     -11.797   7.420 129.684  0.00  0.00    +0.000 C 
ATOM     17  O   UNL     1     -12.343   8.242 130.405  0.00  0.00    +0.000 OA
ATOM     18  C   UNL     1     -10.676   7.830 128.766  0.00  0.00    +0.000 C 
ATOM     19  C   UNL     1      -9.771   7.435 129.701  0.00  0.00    +0.000 C 
ATOM     20  C   UNL     1      -9.727   6.103 130.657  0.00  0.00    +0.000 C 
ATOM     21  C   UNL     1      -9.739   6.133 132.197  0.00  0.00    +0.000 C 
ENDROOT
BRANCH   4  22
ATOM     22  O   UNL     1      -6.299   2.602 132.247  0.00  0.00    +0.000 OA
ATOM     23  H   UNL     1      -7.176   2.196 132.258  0.00  0.00    +0.000 HD
ENDBRANCH   4  22
BRANCH   4  24
ATOM     24  C   UNL     1      -4.787   4.413 132.510  0.00  0.00    +0.000 C 
ATOM     25  O   UNL     1      -3.744   3.742 132.609  0.00  0.00    +0.000 OA
BRANCH  24  26
ATOM     26  C   UNL     1      -4.776   5.651 133.536  0.00  0.00    +0.000 C 
BRANCH  26  27
ATOM     27  O   UNL     1      -3.913   6.730 133.070  0.00  0.00    +0.000 OA
ATOM     28  H   UNL     1      -3.028   6.617 133.470  0.00  0.00    +0.000 HD
ENDBRANCH  26  27
ENDBRANCH  24  26
ENDBRANCH   4  24
TORSDOF 4
ENDMDL
MODEL 9
REMARK VINA RESULT:      -6.8      3.228      4.650
REMARK  Name = Prednisone
REMARK  6 active torsions:
REMARK  status: ('A' for Active; 'I' for Inactive)
REMARK    1  A    between atoms: C_5  and  O_6
REMARK    2  A    between atoms: C_5  and  C_7
REMARK    3  A    between atoms: C_7  and  C_9
REMARK    4  A    between atoms: C_9  and  O_10
REMARK    5  A    between atoms: C_11  and  C_12
REMARK    6  A    between atoms: C_28  and  C_29
REMARK                            x       y       z     vdW  Elec       q    Type
REMARK                         _______ _______ _______ _____ _____    ______ ____
ROOT
ATOM      1  C   UNL     1      -4.855   1.903 127.047  0.00  0.00    +0.000 C 
ATOM      2  C   UNL     1      -4.483   2.660 125.907  0.00  0.00    +0.000 C 
ATOM      3  C   UNL     1      -5.935   2.707 126.295  0.00  0.00    +0.000 C 
ATOM      4  C   UNL     1      -6.452   2.111 128.213  0.00  0.00    +0.000 C 
ATOM      5  C   UNL     1      -5.982   3.284 127.717  0.00  0.00    +0.000 C 
ATOM      6  C   UNL     1      -5.195   4.379 128.343  0.00  0.00    +0.000 C 
ATOM      7  C   UNL     1      -7.754   3.386 127.107  0.00  0.00    +0.000 C 
ATOM      8  C   UNL     1      -8.330   1.836 126.700  0.00  0.00    +0.000 C 
ATOM      9  O   UNL     1      -9.445   1.516 127.122  0.00  0.00    +0.000 OA
ATOM     10  C   UNL     1      -7.379   0.744 125.856  0.00  0.00    +0.000 C 
ATOM     11  C   UNL     1      -5.842   0.453 126.569  0.00  0.00    +0.000 C 
ATOM     12  C   UNL     1      -4.965  -0.358 125.639  0.00  0.00    +0.000 C 
ATOM     13  C   UNL     1      -5.656  -1.614 125.162  0.00  0.00    +0.000 C 
ATOM     14  C   UNL     1      -7.043  -1.438 124.605  0.00  0.00    +0.000 C 
ATOM     15  C   UNL     1      -7.467  -2.067 123.493  0.00  0.00    +0.000 C 
ATOM     16  C   UNL     1      -8.916  -1.875 123.228  0.00  0.00    +0.000 C 
ATOM     17  O   UNL     1      -9.816  -2.686 123.386  0.00  0.00    +0.000 OA
ATOM     18  C   UNL     1      -9.226  -0.444 122.876  0.00  0.00    +0.000 C 
ATOM     19  C   UNL     1      -9.139  -0.105 124.190  0.00  0.00    +0.000 C 
ATOM     20  C   UNL     1      -8.060  -0.549 125.344  0.00  0.00    +0.000 C 
ATOM     21  C   UNL     1      -8.426  -1.298 126.638  0.00  0.00    +0.000 C 
ENDROOT
BRANCH   4  22
ATOM     22  O   UNL     1      -5.359   1.635 129.148  0.00  0.00    +0.000 OA
ATOM     23  H   UNL     1      -5.568   0.828 129.637  0.00  0.00    +0.000 HD
ENDBRANCH   4  22
BRANCH   4  24
ATOM     24  C   UNL     1      -7.327   2.865 129.645  0.00  0.00    +0.000 C 
ATOM     25  O   UNL     1      -6.811   3.736 130.368  0.00  0.00    +0.000 OA
BRANCH  24  26
ATOM     26  C   UNL     1      -8.741   2.386 130.240  0.00  0.00    +0.000 C 
BRANCH  26  27
ATOM     27  O   UNL     1      -9.852   3.135 129.661  0.00  0.00    +0.000 OA
ATOM     28  H   UNL     1     -10.690   2.749 129.986  0.00  0.00    +0.000 HD
ENDBRANCH  26  27
ENDBRANCH  24  26
ENDBRANCH   4  24
TORSDOF 4
ENDMDL
