MODEL 1
REMARK VINA RESULT:      -8.8      0.000      0.000
REMARK  Name = Prednicarbate
REMARK  14 active torsions:
REMARK  status: ('A' for Active; 'I' for Inactive)
REMARK    1  A    between atoms: C_5  and  O_6
REMARK    2  A    between atoms: C_5  and  C_12
REMARK    3  A    between atoms: O_6  and  C_7
REMARK    4  A    between atoms: C_7  and  O_9
REMARK    5  A    between atoms: O_9  and  C_10
REMARK    6  A    between atoms: C_10  and  C_11
REMARK    7  A    between atoms: C_12  and  C_14
REMARK    8  A    between atoms: C_14  and  O_15
REMARK    9  A    between atoms: O_15  and  C_16
REMARK   10  A    between atoms: C_16  and  C_18
REMARK   11  A    between atoms: C_18  and  C_19
REMARK   12  A    between atoms: C_20  and  C_21
REMARK   13  A    between atoms: C_23  and  O_24
REMARK   14  A    between atoms: C_37  and  C_38
REMARK                            x       y       z     vdW  Elec       q    Type
REMARK                         _______ _______ _______ _____ _____    ______ ____
ROOT
ATOM      1  C   UNL     1      -7.179   3.261 130.185  0.00  0.00    +0.000 C 
ATOM      2  C   UNL     1      -7.054   2.365 131.278  0.00  0.00    +0.000 C 
ATOM      3  C   UNL     1      -7.398   3.792 131.540  0.00  0.00    +0.000 C 
ATOM      4  C   UNL     1      -8.103   4.919 129.943  0.00  0.00    +0.000 C 
ATOM      5  C   UNL     1      -8.734   4.112 130.840  0.00  0.00    +0.000 C 
ATOM      6  C   UNL     1      -9.954   3.285 130.634  0.00  0.00    +0.000 C 
ATOM      7  C   UNL     1      -8.499   5.544 132.021  0.00  0.00    +0.000 C 
ATOM      8  C   UNL     1      -7.049   6.382 131.687  0.00  0.00    +0.000 C 
ATOM      9  C   UNL     1      -5.626   5.565 131.404  0.00  0.00    +0.000 C 
ATOM     10  C   UNL     1      -5.752   4.450 130.152  0.00  0.00    +0.000 C 
ATOM     11  C   UNL     1      -4.500   3.612 129.992  0.00  0.00    +0.000 C 
ATOM     12  C   UNL     1      -3.256   4.461 129.909  0.00  0.00    +0.000 C 
ATOM     13  C   UNL     1      -3.108   5.492 130.991  0.00  0.00    +0.000 C 
ATOM     14  C   UNL     1      -1.949   5.710 131.637  0.00  0.00    +0.000 C 
ATOM     15  C   UNL     1      -2.002   6.882 132.547  0.00  0.00    +0.000 C 
ATOM     16  O   UNL     1      -1.499   7.983 132.377  0.00  0.00    +0.000 OA
ATOM     17  C   UNL     1      -2.938   6.639 133.702  0.00  0.00    +0.000 C 
ATOM     18  C   UNL     1      -3.999   6.879 132.887  0.00  0.00    +0.000 C 
ATOM     19  C   UNL     1      -4.301   6.387 131.356  0.00  0.00    +0.000 C 
ATOM     20  C   UNL     1      -4.468   7.358 130.175  0.00  0.00    +0.000 C 
ENDROOT
BRANCH   4  21
ATOM     21  C   UNL     1      -9.614   6.015 129.670  0.00  0.00    +0.000 C 
ATOM     22  O   UNL     1      -9.517   7.120 129.097  0.00  0.00    +0.000 OA
BRANCH  21  23
ATOM     23  C   UNL     1     -11.172   5.787 130.175  0.00  0.00    +0.000 C 
BRANCH  23  24
ATOM     24  O   UNL     1     -12.163   5.889 128.963  0.00  0.00    +0.000 OA
BRANCH  24  25
ATOM     25  C   UNL     1     -13.018   6.962 128.794  0.00  0.00    +0.000 C 
ATOM     26  O   UNL     1     -13.885   6.984 127.925  0.00  0.00    +0.000 OA
BRANCH  25  27
ATOM     27  C   UNL     1     -12.810   8.157 129.776  0.00  0.00    +0.000 C 
ATOM     28  C   UNL     1     -13.068   9.528 129.105  0.00  0.00    +0.000 C 
ENDBRANCH  25  27
ENDBRANCH  24  25
ENDBRANCH  23  24
ENDBRANCH  21  23
ENDBRANCH   4  21
BRANCH   8  29
ATOM     29  O   UNL     1      -7.366   7.252 130.582  0.00  0.00    +0.000 OA
ATOM     30  H   UNL     1      -7.843   6.776 129.879  0.00  0.00    +0.000 HD
ENDBRANCH   8  29
BRANCH   4  31
ATOM     31  O   UNL     1      -8.365   4.229 128.460  0.00  0.00    +0.000 OA
BRANCH  31  32
ATOM     32  C   UNL     1      -7.947   4.704 127.220  0.00  0.00    +0.000 C 
ATOM     33  O   UNL     1      -8.654   5.290 126.420  0.00  0.00    +0.000 OA
BRANCH  32  34
ATOM     34  O   UNL     1      -6.580   4.674 127.052  0.00  0.00    +0.000 OA
BRANCH  34  35
ATOM     35  C   UNL     1      -6.226   3.589 126.146  0.00  0.00    +0.000 C 
ATOM     36  C   UNL     1      -4.799   3.093 126.281  0.00  0.00    +0.000 C 
ENDBRANCH  34  35
ENDBRANCH  32  34
ENDBRANCH  31  32
ENDBRANCH   4  31
TORSDOF 10
ENDMDL
MODEL 2
REMARK VINA RESULT:      -8.4      4.813      8.145
REMARK  Name = Prednicarbate
REMARK  14 active torsions:
REMARK  status: ('A' for Active; 'I' for Inactive)
REMARK    1  A    between atoms: C_5  and  O_6
REMARK    2  A    between atoms: C_5  and  C_12
REMARK    3  A    between atoms: O_6  and  C_7
REMARK    4  A    between atoms: C_7  and  O_9
REMARK    5  A    between atoms: O_9  and  C_10
REMARK    6  A    between atoms: C_10  and  C_11
REMARK    7  A    between atoms: C_12  and  C_14
REMARK    8  A    between atoms: C_14  and  O_15
REMARK    9  A    between atoms: O_15  and  C_16
REMARK   10  A    between atoms: C_16  and  C_18
REMARK   11  A    between atoms: C_18  and  C_19
REMARK   12  A    between atoms: C_20  and  C_21
REMARK   13  A    between atoms: C_23  and  O_24
REMARK   14  A    between atoms: C_37  and  C_38
REMARK                            x       y       z     vdW  Elec       q    Type
REMARK                         _______ _______ _______ _____ _____    ______ ____
ROOT
ATOM      1  C   UNL     1      -5.421   2.172 126.948  0.00  0.00    +0.000 C 
ATOM      2  C   UNL     1      -4.124   2.190 126.375  0.00  0.00    +0.000 C 
ATOM      3  C   UNL     1      -5.009   1.013 126.142  0.00  0.00    +0.000 C 
ATOM      4  C   UNL     1      -7.040   1.250 126.511  0.00  0.00    +0.000 C 
ATOM      5  C   UNL     1      -6.279   1.491 125.408  0.00  0.00    +0.000 C 
ATOM      6  C   UNL     1      -6.473   2.535 124.367  0.00  0.00    +0.000 C 
ATOM      7  C   UNL     1      -6.318  -0.368 125.198  0.00  0.00    +0.000 C 
ATOM      8  C   UNL     1      -6.359  -1.156 126.712  0.00  0.00    +0.000 C 
ATOM      9  C   UNL     1      -5.353  -0.689 127.955  0.00  0.00    +0.000 C 
ATOM     10  C   UNL     1      -5.503   0.941 128.337  0.00  0.00    +0.000 C 
ATOM     11  C   UNL     1      -4.488   1.391 129.368  0.00  0.00    +0.000 C 
ATOM     12  C   UNL     1      -4.476   0.495 130.582  0.00  0.00    +0.000 C 
ATOM     13  C   UNL     1      -4.370  -0.975 130.293  0.00  0.00    +0.000 C 
ATOM     14  C   UNL     1      -3.552  -1.795 130.976  0.00  0.00    +0.000 C 
ATOM     15  C   UNL     1      -3.737  -3.226 130.624  0.00  0.00    +0.000 C 
ATOM     16  O   UNL     1      -4.288  -4.093 131.287  0.00  0.00    +0.000 OA
ATOM     17  C   UNL     1      -3.309  -3.502 129.207  0.00  0.00    +0.000 C 
ATOM     18  C   UNL     1      -4.471  -2.959 128.755  0.00  0.00    +0.000 C 
ATOM     19  C   UNL     1      -5.264  -1.605 129.215  0.00  0.00    +0.000 C 
ATOM     20  C   UNL     1      -6.684  -1.618 129.808  0.00  0.00    +0.000 C 
ENDROOT
BRANCH   4  21
ATOM     21  C   UNL     1      -8.608   0.916 125.517  0.00  0.00    +0.000 C 
ATOM     22  O   UNL     1      -9.733   0.925 126.058  0.00  0.00    +0.000 OA
BRANCH  21  23
ATOM     23  C   UNL     1      -8.762   0.495 123.924  0.00  0.00    +0.000 C 
BRANCH  23  24
ATOM     24  O   UNL     1      -9.541  -0.860 123.787  0.00  0.00    +0.000 OA
BRANCH  24  25
ATOM     25  C   UNL     1      -8.970  -1.990 123.233  0.00  0.00    +0.000 C 
ATOM     26  O   UNL     1      -8.206  -1.941 122.275  0.00  0.00    +0.000 OA
BRANCH  25  27
ATOM     27  C   UNL     1      -9.363  -3.346 123.900  0.00  0.00    +0.000 C 
ATOM     28  C   UNL     1      -8.252  -3.896 124.825  0.00  0.00    +0.000 C 
ENDBRANCH  25  27
ENDBRANCH  24  25
ENDBRANCH  23  24
ENDBRANCH  21  23
ENDBRANCH   4  21
BRANCH   8  29
ATOM     29  O   UNL     1      -7.739  -1.102 127.126  0.00  0.00    +0.000 OA
ATOM     30  H   UNL     1      -7.898  -0.363 127.741  0.00  0.00    +0.000 HD
ENDBRANCH   8  29
BRANCH   4  31
ATOM     31  O   UNL     1      -7.662   2.719 126.954  0.00  0.00    +0.000 OA
BRANCH  31  32
ATOM     32  C   UNL     1      -8.028   3.134 128.231  0.00  0.00    +0.000 C 
ATOM     33  O   UNL     1      -7.635   4.150 128.777  0.00  0.00    +0.000 OA
BRANCH  32  34
ATOM     34  O   UNL     1      -9.078   2.418 128.762  0.00  0.00    +0.000 OA
BRANCH  34  35
ATOM     35  C   UNL     1      -9.041   2.506 130.216  0.00  0.00    +0.000 C 
ATOM     36  C   UNL     1      -8.647   1.221 130.917  0.00  0.00    +0.000 C 
ENDBRANCH  34  35
ENDBRANCH  32  34
ENDBRANCH  31  32
ENDBRANCH   4  31
TORSDOF 10
ENDMDL
MODEL 3
REMARK VINA RESULT:      -8.3      5.401      9.589
REMARK  Name = Prednicarbate
REMARK  14 active torsions:
REMARK  status: ('A' for Active; 'I' for Inactive)
REMARK    1  A    between atoms: C_5  and  O_6
REMARK    2  A    between atoms: C_5  and  C_12
REMARK    3  A    between atoms: O_6  and  C_7
REMARK    4  A    between atoms: C_7  and  O_9
REMARK    5  A    between atoms: O_9  and  C_10
REMARK    6  A    between atoms: C_10  and  C_11
REMARK    7  A    between atoms: C_12  and  C_14
REMARK    8  A    between atoms: C_14  and  O_15
REMARK    9  A    between atoms: O_15  and  C_16
REMARK   10  A    between atoms: C_16  and  C_18
REMARK   11  A    between atoms: C_18  and  C_19
REMARK   12  A    between atoms: C_20  and  C_21
REMARK   13  A    between atoms: C_23  and  O_24
REMARK   14  A    between atoms: C_37  and  C_38
REMARK                            x       y       z     vdW  Elec       q    Type
REMARK                         _______ _______ _______ _____ _____    ______ ____
ROOT
ATOM      1  C   UNL     1      -6.578  -3.146 130.644  0.00  0.00    +0.000 C 
ATOM      2  C   UNL     1      -5.916  -4.397 130.549  0.00  0.00    +0.000 C 
ATOM      3  C   UNL     1      -5.346  -3.213 129.843  0.00  0.00    +0.000 C 
ATOM      4  C   UNL     1      -6.002  -1.333 130.438  0.00  0.00    +0.000 C 
ATOM      5  C   UNL     1      -5.000  -2.137 130.891  0.00  0.00    +0.000 C 
ATOM      6  C   UNL     1      -4.471  -2.253 132.277  0.00  0.00    +0.000 C 
ATOM      7  C   UNL     1      -4.093  -1.568 129.357  0.00  0.00    +0.000 C 
ATOM      8  C   UNL     1      -5.180  -1.298 128.067  0.00  0.00    +0.000 C 
ATOM      9  C   UNL     1      -6.386  -2.390 127.712  0.00  0.00    +0.000 C 
ATOM     10  C   UNL     1      -7.383  -2.710 129.028  0.00  0.00    +0.000 C 
ATOM     11  C   UNL     1      -8.388  -3.807 128.741  0.00  0.00    +0.000 C 
ATOM     12  C   UNL     1      -9.152  -3.557 127.464  0.00  0.00    +0.000 C 
ATOM     13  C   UNL     1      -8.308  -3.239 126.263  0.00  0.00    +0.000 C 
ATOM     14  C   UNL     1      -8.526  -3.786 125.053  0.00  0.00    +0.000 C 
ATOM     15  C   UNL     1      -7.671  -3.202 123.989  0.00  0.00    +0.000 C 
ATOM     16  O   UNL     1      -8.004  -2.423 123.107  0.00  0.00    +0.000 OA
ATOM     17  C   UNL     1      -6.219  -3.539 124.204  0.00  0.00    +0.000 C 
ATOM     18  C   UNL     1      -6.144  -2.583 125.168  0.00  0.00    +0.000 C 
ATOM     19  C   UNL     1      -7.177  -2.208 126.379  0.00  0.00    +0.000 C 
ATOM     20  C   UNL     1      -7.872  -0.841 126.504  0.00  0.00    +0.000 C 
ENDROOT
BRANCH   4  21
ATOM     21  C   UNL     1      -5.136   0.260 130.957  0.00  0.00    +0.000 C 
ATOM     22  O   UNL     1      -4.453   0.315 132.001  0.00  0.00    +0.000 OA
BRANCH  21  23
ATOM     23  C   UNL     1      -5.193   1.755 130.252  0.00  0.00    +0.000 C 
BRANCH  23  24
ATOM     24  O   UNL     1      -3.871   2.040 129.458  0.00  0.00    +0.000 OA
BRANCH  24  25
ATOM     25  C   UNL     1      -3.869   2.652 128.219  0.00  0.00    +0.000 C 
ATOM     26  O   UNL     1      -4.779   2.505 127.408  0.00  0.00    +0.000 OA
BRANCH  25  27
ATOM     27  C   UNL     1      -2.627   3.544 127.904  0.00  0.00    +0.000 C 
ATOM     28  C   UNL     1      -1.835   3.044 126.672  0.00  0.00    +0.000 C 
ENDBRANCH  25  27
ENDBRANCH  24  25
ENDBRANCH  23  24
ENDBRANCH  21  23
ENDBRANCH   4  21
BRANCH   8  29
ATOM     29  O   UNL     1      -5.733   0.011 128.312  0.00  0.00    +0.000 OA
ATOM     30  H   UNL     1      -6.677   0.050 128.073  0.00  0.00    +0.000 HD
ENDBRANCH   8  29
BRANCH   4  31
ATOM     31  O   UNL     1      -7.044  -1.156 131.712  0.00  0.00    +0.000 OA
BRANCH  31  32
ATOM     32  C   UNL     1      -8.086  -0.241 131.832  0.00  0.00    +0.000 C 
ATOM     33  O   UNL     1      -9.138  -0.294 131.221  0.00  0.00    +0.000 OA
BRANCH  32  34
ATOM     34  O   UNL     1      -7.940   0.623 132.895  0.00  0.00    +0.000 OA
BRANCH  34  35
ATOM     35  C   UNL     1      -8.141   1.992 132.441  0.00  0.00    +0.000 C 
ATOM     36  C   UNL     1      -9.069   2.817 133.310  0.00  0.00    +0.000 C 
ENDBRANCH  34  35
ENDBRANCH  32  34
ENDBRANCH  31  32
ENDBRANCH   4  31
TORSDOF 10
ENDMDL
MODEL 4
REMARK VINA RESULT:      -8.2      4.421      8.788
REMARK  Name = Prednicarbate
REMARK  14 active torsions:
REMARK  status: ('A' for Active; 'I' for Inactive)
REMARK    1  A    between atoms: C_5  and  O_6
REMARK    2  A    between atoms: C_5  and  C_12
REMARK    3  A    between atoms: O_6  and  C_7
REMARK    4  A    between atoms: C_7  and  O_9
REMARK    5  A    between atoms: O_9  and  C_10
REMARK    6  A    between atoms: C_10  and  C_11
REMARK    7  A    between atoms: C_12  and  C_14
REMARK    8  A    between atoms: C_14  and  O_15
REMARK    9  A    between atoms: O_15  and  C_16
REMARK   10  A    between atoms: C_16  and  C_18
REMARK   11  A    between atoms: C_18  and  C_19
REMARK   12  A    between atoms: C_20  and  C_21
REMARK   13  A    between atoms: C_23  and  O_24
REMARK   14  A    between atoms: C_37  and  C_38
REMARK                            x       y       z     vdW  Elec       q    Type
REMARK                         _______ _______ _______ _____ _____    ______ ____
ROOT
ATOM      1  C   UNL     1      -6.026  -0.574 129.512  0.00  0.00    +0.000 C 
ATOM      2  C   UNL     1      -4.818  -1.273 129.258  0.00  0.00    +0.000 C 
ATOM      3  C   UNL     1      -5.272  -0.225 128.299  0.00  0.00    +0.000 C 
ATOM      4  C   UNL     1      -6.703   1.129 128.961  0.00  0.00    +0.000 C 
ATOM      5  C   UNL     1      -5.344   1.124 129.043  0.00  0.00    +0.000 C 
ATOM      6  C   UNL     1      -4.486   1.698 130.114  0.00  0.00    +0.000 C 
ATOM      7  C   UNL     1      -5.412   1.610 127.238  0.00  0.00    +0.000 C 
ATOM      8  C   UNL     1      -6.759   0.901 126.462  0.00  0.00    +0.000 C 
ATOM      9  C   UNL     1      -7.140  -0.704 126.693  0.00  0.00    +0.000 C 
ATOM     10  C   UNL     1      -7.346  -1.099 128.314  0.00  0.00    +0.000 C 
ATOM     11  C   UNL     1      -7.552  -2.584 128.528  0.00  0.00    +0.000 C 
ATOM     12  C   UNL     1      -8.636  -3.141 127.639  0.00  0.00    +0.000 C 
ATOM     13  C   UNL     1      -8.514  -2.794 126.183  0.00  0.00    +0.000 C 
ATOM     14  C   UNL     1      -8.698  -3.694 125.201  0.00  0.00    +0.000 C 
ATOM     15  C   UNL     1      -8.684  -3.087 123.846  0.00  0.00    +0.000 C 
ATOM     16  O   UNL     1      -9.639  -2.882 123.110  0.00  0.00    +0.000 OA
ATOM     17  C   UNL     1      -7.321  -2.552 123.497  0.00  0.00    +0.000 C 
ATOM     18  C   UNL     1      -7.553  -1.464 124.280  0.00  0.00    +0.000 C 
ATOM     19  C   UNL     1      -8.221  -1.345 125.768  0.00  0.00    +0.000 C 
ATOM     20  C   UNL     1      -9.515  -0.562 126.053  0.00  0.00    +0.000 C 
ENDROOT
BRANCH   4  21
ATOM     21  C   UNL     1      -6.828   3.010 128.977  0.00  0.00    +0.000 C 
ATOM     22  O   UNL     1      -7.846   3.596 128.555  0.00  0.00    +0.000 OA
BRANCH  21  23
ATOM     23  C   UNL     1      -5.690   4.127 129.418  0.00  0.00    +0.000 C 
BRANCH  23  24
ATOM     24  O   UNL     1      -5.318   5.044 128.201  0.00  0.00    +0.000 OA
BRANCH  24  25
ATOM     25  C   UNL     1      -4.061   5.597 128.046  0.00  0.00    +0.000 C 
ATOM     26  O   UNL     1      -3.891   6.761 127.697  0.00  0.00    +0.000 OA
BRANCH  25  27
ATOM     27  C   UNL     1      -2.859   4.645 128.338  0.00  0.00    +0.000 C 
ATOM     28  C   UNL     1      -2.407   3.859 127.084  0.00  0.00    +0.000 C 
ENDBRANCH  25  27
ENDBRANCH  24  25
ENDBRANCH  23  24
ENDBRANCH  21  23
ENDBRANCH   4  21
BRANCH   8  29
ATOM     29  O   UNL     1      -7.876   1.744 126.806  0.00  0.00    +0.000 OA
ATOM     30  H   UNL     1      -7.640   2.688 126.757  0.00  0.00    +0.000 HD
ENDBRANCH   8  29
BRANCH   4  31
ATOM     31  O   UNL     1      -7.246   1.101 130.524  0.00  0.00    +0.000 OA
BRANCH  31  32
ATOM     32  C   UNL     1      -8.555   0.929 130.964  0.00  0.00    +0.000 C 
ATOM     33  O   UNL     1      -9.027  -0.120 131.365  0.00  0.00    +0.000 OA
BRANCH  32  34
ATOM     34  O   UNL     1      -9.236   2.113 131.141  0.00  0.00    +0.000 OA
BRANCH  34  35
ATOM     35  C   UNL     1      -9.526   2.300 132.557  0.00  0.00    +0.000 C 
ATOM     36  C   UNL     1      -8.374   2.857 133.369  0.00  0.00    +0.000 C 
ENDBRANCH  34  35
ENDBRANCH  32  34
ENDBRANCH  31  32
ENDBRANCH   4  31
TORSDOF 10
ENDMDL
MODEL 5
REMARK VINA RESULT:      -8.1      1.923      2.835
REMARK  Name = Prednicarbate
REMARK  14 active torsions:
REMARK  status: ('A' for Active; 'I' for Inactive)
REMARK    1  A    between atoms: C_5  and  O_6
REMARK    2  A    between atoms: C_5  and  C_12
REMARK    3  A    between atoms: O_6  and  C_7
REMARK    4  A    between atoms: C_7  and  O_9
REMARK    5  A    between atoms: O_9  and  C_10
REMARK    6  A    between atoms: C_10  and  C_11
REMARK    7  A    between atoms: C_12  and  C_14
REMARK    8  A    between atoms: C_14  and  O_15
REMARK    9  A    between atoms: O_15  and  C_16
REMARK   10  A    between atoms: C_16  and  C_18
REMARK   11  A    between atoms: C_18  and  C_19
REMARK   12  A    between atoms: C_20  and  C_21
REMARK   13  A    between atoms: C_23  and  O_24
REMARK   14  A    between atoms: C_37  and  C_38
REMARK                            x       y       z     vdW  Elec       q    Type
REMARK                         _______ _______ _______ _____ _____    ______ ____
ROOT
ATOM      1  C   UNL     1      -7.581   4.547 133.116  0.00  0.00    +0.000 C 
ATOM      2  C   UNL     1      -7.751   5.353 134.271  0.00  0.00    +0.000 C 
ATOM      3  C   UNL     1      -7.454   6.005 132.963  0.00  0.00    +0.000 C 
ATOM      4  C   UNL     1      -7.757   4.883 131.240  0.00  0.00    +0.000 C 
ATOM      5  C   UNL     1      -8.591   5.667 131.977  0.00  0.00    +0.000 C 
ATOM      6  C   UNL     1     -10.055   5.508 132.188  0.00  0.00    +0.000 C 
ATOM      7  C   UNL     1      -7.694   7.086 131.150  0.00  0.00    +0.000 C 
ATOM      8  C   UNL     1      -6.059   6.690 130.857  0.00  0.00    +0.000 C 
ATOM      9  C   UNL     1      -5.126   5.957 132.025  0.00  0.00    +0.000 C 
ATOM     10  C   UNL     1      -5.799   4.525 132.593  0.00  0.00    +0.000 C 
ATOM     11  C   UNL     1      -5.020   3.937 133.752  0.00  0.00    +0.000 C 
ATOM     12  C   UNL     1      -3.548   3.821 133.447  0.00  0.00    +0.000 C 
ATOM     13  C   UNL     1      -2.903   5.067 132.911  0.00  0.00    +0.000 C 
ATOM     14  C   UNL     1      -1.710   5.514 133.341  0.00  0.00    +0.000 C 
ATOM     15  C   UNL     1      -1.204   6.668 132.555  0.00  0.00    +0.000 C 
ATOM     16  O   UNL     1      -0.306   6.669 131.725  0.00  0.00    +0.000 OA
ATOM     17  C   UNL     1      -2.062   7.889 132.758  0.00  0.00    +0.000 C 
ATOM     18  C   UNL     1      -2.991   7.370 131.911  0.00  0.00    +0.000 C 
ATOM     19  C   UNL     1      -3.588   5.853 131.783  0.00  0.00    +0.000 C 
ATOM     20  C   UNL     1      -3.434   4.988 130.521  0.00  0.00    +0.000 C 
ENDROOT
BRANCH   4  21
ATOM     21  C   UNL     1      -8.698   5.169 129.631  0.00  0.00    +0.000 C 
ATOM     22  O   UNL     1      -8.240   4.782 128.535  0.00  0.00    +0.000 OA
BRANCH  21  23
ATOM     23  C   UNL     1     -10.112   5.989 129.382  0.00  0.00    +0.000 C 
BRANCH  23  24
ATOM     24  O   UNL     1      -9.928   7.078 128.268  0.00  0.00    +0.000 OA
BRANCH  24  25
ATOM     25  C   UNL     1     -10.896   7.332 127.314  0.00  0.00    +0.000 C 
ATOM     26  O   UNL     1     -10.668   7.267 126.110  0.00  0.00    +0.000 OA
BRANCH  25  27
ATOM     27  C   UNL     1     -12.305   7.719 127.862  0.00  0.00    +0.000 C 
ATOM     28  C   UNL     1     -12.257   8.935 128.817  0.00  0.00    +0.000 C 
ENDBRANCH  25  27
ENDBRANCH  24  25
ENDBRANCH  23  24
ENDBRANCH  21  23
ENDBRANCH   4  21
BRANCH   8  29
ATOM     29  O   UNL     1      -6.075   5.902 129.649  0.00  0.00    +0.000 OA
ATOM     30  H   UNL     1      -5.272   6.047 129.118  0.00  0.00    +0.000 HD
ENDBRANCH   8  29
BRANCH   4  31
ATOM     31  O   UNL     1      -8.396   3.357 131.316  0.00  0.00    +0.000 OA
BRANCH  31  32
ATOM     32  C   UNL     1      -7.871   2.191 130.765  0.00  0.00    +0.000 C 
ATOM     33  O   UNL     1      -6.928   1.567 131.216  0.00  0.00    +0.000 OA
BRANCH  32  34
ATOM     34  O   UNL     1      -8.663   1.645 129.779  0.00  0.00    +0.000 OA
BRANCH  34  35
ATOM     35  C   UNL     1      -7.848   1.353 128.607  0.00  0.00    +0.000 C 
ATOM     36  C   UNL     1      -8.604   1.357 127.294  0.00  0.00    +0.000 C 
ENDBRANCH  34  35
ENDBRANCH  32  34
ENDBRANCH  31  32
ENDBRANCH   4  31
TORSDOF 10
ENDMDL
MODEL 6
REMARK VINA RESULT:      -8.1      5.700      9.839
REMARK  Name = Prednicarbate
REMARK  14 active torsions:
REMARK  status: ('A' for Active; 'I' for Inactive)
REMARK    1  A    between atoms: C_5  and  O_6
REMARK    2  A    between atoms: C_5  and  C_12
REMARK    3  A    between atoms: O_6  and  C_7
REMARK    4  A    between atoms: C_7  and  O_9
REMARK    5  A    between atoms: O_9  and  C_10
REMARK    6  A    between atoms: C_10  and  C_11
REMARK    7  A    between atoms: C_12  and  C_14
REMARK    8  A    between atoms: C_14  and  O_15
REMARK    9  A    between atoms: O_15  and  C_16
REMARK   10  A    between atoms: C_16  and  C_18
REMARK   11  A    between atoms: C_18  and  C_19
REMARK   12  A    between atoms: C_20  and  C_21
REMARK   13  A    between atoms: C_23  and  O_24
REMARK   14  A    between atoms: C_37  and  C_38
REMARK                            x       y       z     vdW  Elec       q    Type
REMARK                         _______ _______ _______ _____ _____    ______ ____
ROOT
ATOM      1  C   UNL     1      -6.565  -3.376 130.672  0.00  0.00    +0.000 C 
ATOM      2  C   UNL     1      -5.982  -4.661 130.525  0.00  0.00    +0.000 C 
ATOM      3  C   UNL     1      -5.303  -3.477 129.923  0.00  0.00    +0.000 C 
ATOM      4  C   UNL     1      -5.863  -1.597 130.609  0.00  0.00    +0.000 C 
ATOM      5  C   UNL     1      -4.939  -2.493 131.053  0.00  0.00    +0.000 C 
ATOM      6  C   UNL     1      -4.485  -2.731 132.450  0.00  0.00    +0.000 C 
ATOM      7  C   UNL     1      -3.925  -1.894 129.599  0.00  0.00    +0.000 C 
ATOM      8  C   UNL     1      -4.929  -1.472 128.284  0.00  0.00    +0.000 C 
ATOM      9  C   UNL     1      -6.185  -2.455 127.807  0.00  0.00    +0.000 C 
ATOM     10  C   UNL     1      -7.262  -2.788 129.054  0.00  0.00    +0.000 C 
ATOM     11  C   UNL     1      -8.321  -3.794 128.653  0.00  0.00    +0.000 C 
ATOM     12  C   UNL     1      -9.006  -3.415 127.363  0.00  0.00    +0.000 C 
ATOM     13  C   UNL     1      -8.086  -3.082 126.223  0.00  0.00    +0.000 C 
ATOM     14  C   UNL     1      -8.281  -3.537 124.972  0.00  0.00    +0.000 C 
ATOM     15  C   UNL     1      -7.340  -2.947 123.987  0.00  0.00    +0.000 C 
ATOM     16  O   UNL     1      -7.580  -2.095 123.143  0.00  0.00    +0.000 OA
ATOM     17  C   UNL     1      -5.925  -3.395 124.242  0.00  0.00    +0.000 C 
ATOM     18  C   UNL     1      -5.835  -2.507 125.268  0.00  0.00    +0.000 C 
ATOM     19  C   UNL     1      -6.897  -2.138 126.455  0.00  0.00    +0.000 C 
ATOM     20  C   UNL     1      -7.508  -0.738 126.637  0.00  0.00    +0.000 C 
ENDROOT
BRANCH   4  21
ATOM     21  C   UNL     1      -4.922  -0.102 131.268  0.00  0.00    +0.000 C 
ATOM     22  O   UNL     1      -5.051   1.026 130.747  0.00  0.00    +0.000 OA
BRANCH  21  23
ATOM     23  C   UNL     1      -3.790  -0.030 132.472  0.00  0.00    +0.000 C 
BRANCH  23  24
ATOM     24  O   UNL     1      -4.231   0.987 133.581  0.00  0.00    +0.000 OA
BRANCH  24  25
ATOM     25  C   UNL     1      -3.515   2.136 133.860  0.00  0.00    +0.000 C 
ATOM     26  O   UNL     1      -2.646   2.570 133.111  0.00  0.00    +0.000 OA
BRANCH  25  27
ATOM     27  C   UNL     1      -3.875   2.853 135.200  0.00  0.00    +0.000 C 
ATOM     28  C   UNL     1      -4.486   1.888 136.243  0.00  0.00    +0.000 C 
ENDBRANCH  25  27
ENDBRANCH  24  25
ENDBRANCH  23  24
ENDBRANCH  21  23
ENDBRANCH   4  21
BRANCH   8  29
ATOM     29  O   UNL     1      -5.407  -0.146 128.589  0.00  0.00    +0.000 OA
ATOM     30  H   UNL     1      -4.707   0.405 128.982  0.00  0.00    +0.000 HD
ENDBRANCH   8  29
BRANCH   4  31
ATOM     31  O   UNL     1      -6.951  -1.429 131.845  0.00  0.00    +0.000 OA
BRANCH  31  32
ATOM     32  C   UNL     1      -7.919  -0.439 131.993  0.00  0.00    +0.000 C 
ATOM     33  O   UNL     1      -8.956  -0.373 131.358  0.00  0.00    +0.000 OA
BRANCH  32  34
ATOM     34  O   UNL     1      -7.729   0.355 133.103  0.00  0.00    +0.000 OA
BRANCH  34  35
ATOM     35  C   UNL     1      -7.814   1.757 132.719  0.00  0.00    +0.000 C 
ATOM     36  C   UNL     1      -7.386   2.735 133.795  0.00  0.00    +0.000 C 
ENDBRANCH  34  35
ENDBRANCH  32  34
ENDBRANCH  31  32
ENDBRANCH   4  31
TORSDOF 10
ENDMDL
MODEL 7
REMARK VINA RESULT:      -8.1      3.275      5.609
REMARK  Name = Prednicarbate
REMARK  14 active torsions:
REMARK  status: ('A' for Active; 'I' for Inactive)
REMARK    1  A    between atoms: C_5  and  O_6
REMARK    2  A    between atoms: C_5  and  C_12
REMARK    3  A    between atoms: O_6  and  C_7
REMARK    4  A    between atoms: C_7  and  O_9
REMARK    5  A    between atoms: O_9  and  C_10
REMARK    6  A    between atoms: C_10  and  C_11
REMARK    7  A    between atoms: C_12  and  C_14
REMARK    8  A    between atoms: C_14  and  O_15
REMARK    9  A    between atoms: O_15  and  C_16
REMARK   10  A    between atoms: C_16  and  C_18
REMARK   11  A    between atoms: C_18  and  C_19
REMARK   12  A    between atoms: C_20  and  C_21
REMARK   13  A    between atoms: C_23  and  O_24
REMARK   14  A    between atoms: C_37  and  C_38
REMARK                            x       y       z     vdW  Elec       q    Type
REMARK                         _______ _______ _______ _____ _____    ______ ____
ROOT
ATOM      1  C   UNL     1      -4.508   3.581 126.675  0.00  0.00    +0.000 C 
ATOM      2  C   UNL     1      -3.178   3.218 126.344  0.00  0.00    +0.000 C 
ATOM      3  C   UNL     1      -3.818   2.624 127.554  0.00  0.00    +0.000 C 
ATOM      4  C   UNL     1      -5.887   2.736 127.698  0.00  0.00    +0.000 C 
ATOM      5  C   UNL     1      -5.061   1.827 127.110  0.00  0.00    +0.000 C 
ATOM      6  C   UNL     1      -5.315   1.003 125.898  0.00  0.00    +0.000 C 
ATOM      7  C   UNL     1      -4.759   1.240 128.860  0.00  0.00    +0.000 C 
ATOM      8  C   UNL     1      -4.831   2.540 129.965  0.00  0.00    +0.000 C 
ATOM      9  C   UNL     1      -4.063   3.984 129.649  0.00  0.00    +0.000 C 
ATOM     10  C   UNL     1      -4.531   4.664 128.184  0.00  0.00    +0.000 C 
ATOM     11  C   UNL     1      -3.729   5.901 127.836  0.00  0.00    +0.000 C 
ATOM     12  C   UNL     1      -3.698   6.896 128.969  0.00  0.00    +0.000 C 
ATOM     13  C   UNL     1      -3.311   6.333 130.307  0.00  0.00    +0.000 C 
ATOM     14  C   UNL     1      -2.445   6.946 131.134  0.00  0.00    +0.000 C 
ATOM     15  C   UNL     1      -2.343   6.287 132.461  0.00  0.00    +0.000 C 
ATOM     16  O   UNL     1      -2.807   6.674 133.524  0.00  0.00    +0.000 OA
ATOM     17  C   UNL     1      -1.720   4.921 132.349  0.00  0.00    +0.000 C 
ATOM     18  C   UNL     1      -2.900   4.425 131.890  0.00  0.00    +0.000 C 
ATOM     19  C   UNL     1      -3.959   5.031 130.801  0.00  0.00    +0.000 C 
ATOM     20  C   UNL     1      -5.413   5.397 131.149  0.00  0.00    +0.000 C 
ENDROOT
BRANCH   4  21
ATOM     21  C   UNL     1      -7.255   1.478 128.022  0.00  0.00    +0.000 C 
ATOM     22  O   UNL     1      -8.257   1.772 128.706  0.00  0.00    +0.000 OA
BRANCH  21  23
ATOM     23  C   UNL     1      -7.329  -0.116 127.587  0.00  0.00    +0.000 C 
BRANCH  23  24
ATOM     24  O   UNL     1      -8.533  -0.366 126.613  0.00  0.00    +0.000 OA
BRANCH  24  25
ATOM     25  C   UNL     1      -8.830  -1.618 126.108  0.00  0.00    +0.000 C 
ATOM     26  O   UNL     1      -9.694  -1.798 125.257  0.00  0.00    +0.000 OA
BRANCH  25  27
ATOM     27  C   UNL     1      -7.999  -2.802 126.697  0.00  0.00    +0.000 C 
ATOM     28  C   UNL     1      -8.816  -3.664 127.689  0.00  0.00    +0.000 C 
ENDBRANCH  25  27
ENDBRANCH  24  25
ENDBRANCH  23  24
ENDBRANCH  21  23
ENDBRANCH   4  21
BRANCH   8  29
ATOM     29  O   UNL     1      -6.237   2.752 130.202  0.00  0.00    +0.000 OA
ATOM     30  H   UNL     1      -6.744   1.925 130.110  0.00  0.00    +0.000 HD
ENDBRANCH   8  29
BRANCH   4  31
ATOM     31  O   UNL     1      -6.796   3.373 126.469  0.00  0.00    +0.000 OA
BRANCH  31  32
ATOM     32  C   UNL     1      -7.936   4.165 126.581  0.00  0.00    +0.000 C 
ATOM     33  O   UNL     1      -8.158   4.948 127.487  0.00  0.00    +0.000 OA
BRANCH  32  34
ATOM     34  O   UNL     1      -8.712   4.176 125.443  0.00  0.00    +0.000 OA
BRANCH  34  35
ATOM     35  C   UNL     1      -8.609   2.887 124.771  0.00  0.00    +0.000 C 
ATOM     36  C   UNL     1      -8.307   2.969 123.288  0.00  0.00    +0.000 C 
ENDBRANCH  34  35
ENDBRANCH  32  34
ENDBRANCH  31  32
ENDBRANCH   4  31
TORSDOF 10
ENDMDL
MODEL 8
REMARK VINA RESULT:      -7.9      2.528      7.434
REMARK  Name = Prednicarbate
REMARK  14 active torsions:
REMARK  status: ('A' for Active; 'I' for Inactive)
REMARK    1  A    between atoms: C_5  and  O_6
REMARK    2  A    between atoms: C_5  and  C_12
REMARK    3  A    between atoms: O_6  and  C_7
REMARK    4  A    between atoms: C_7  and  O_9
REMARK    5  A    between atoms: O_9  and  C_10
REMARK    6  A    between atoms: C_10  and  C_11
REMARK    7  A    between atoms: C_12  and  C_14
REMARK    8  A    between atoms: C_14  and  O_15
REMARK    9  A    between atoms: O_15  and  C_16
REMARK   10  A    between atoms: C_16  and  C_18
REMARK   11  A    between atoms: C_18  and  C_19
REMARK   12  A    between atoms: C_20  and  C_21
REMARK   13  A    between atoms: C_23  and  O_24
REMARK   14  A    between atoms: C_37  and  C_38
REMARK                            x       y       z     vdW  Elec       q    Type
REMARK                         _______ _______ _______ _____ _____    ______ ____
ROOT
ATOM      1  C   UNL     1      -7.051   2.950 130.177  0.00  0.00    +0.000 C 
ATOM      2  C   UNL     1      -6.866   2.999 128.771  0.00  0.00    +0.000 C 
ATOM      3  C   UNL     1      -6.630   4.228 129.583  0.00  0.00    +0.000 C 
ATOM      4  C   UNL     1      -6.371   3.992 131.631  0.00  0.00    +0.000 C 
ATOM      5  C   UNL     1      -5.496   3.942 130.588  0.00  0.00    +0.000 C 
ATOM      6  C   UNL     1      -4.260   3.124 130.464  0.00  0.00    +0.000 C 
ATOM      7  C   UNL     1      -5.646   5.807 130.608  0.00  0.00    +0.000 C 
ATOM      8  C   UNL     1      -7.213   6.292 131.083  0.00  0.00    +0.000 C 
ATOM      9  C   UNL     1      -8.571   5.561 130.452  0.00  0.00    +0.000 C 
ATOM     10  C   UNL     1      -8.574   3.894 130.667  0.00  0.00    +0.000 C 
ATOM     11  C   UNL     1      -9.738   3.221 129.969  0.00  0.00    +0.000 C 
ATOM     12  C   UNL     1     -11.057   3.866 130.313  0.00  0.00    +0.000 C 
ATOM     13  C   UNL     1     -11.099   5.360 130.163  0.00  0.00    +0.000 C 
ATOM     14  C   UNL     1     -12.127   6.006 129.584  0.00  0.00    +0.000 C 
ATOM     15  C   UNL     1     -12.021   7.483 129.694  0.00  0.00    +0.000 C 
ATOM     16  O   UNL     1     -12.661   8.225 130.426  0.00  0.00    +0.000 OA
ATOM     17  C   UNL     1     -10.858   8.012 128.896  0.00  0.00    +0.000 C 
ATOM     18  C   UNL     1     -10.007   7.605 129.875  0.00  0.00    +0.000 C 
ATOM     19  C   UNL     1      -9.959   6.215 130.736  0.00  0.00    +0.000 C 
ATOM     20  C   UNL     1     -10.128   6.161 132.264  0.00  0.00    +0.000 C 
ENDROOT
BRANCH   4  21
ATOM     21  C   UNL     1      -5.066   4.564 132.867  0.00  0.00    +0.000 C 
ATOM     22  O   UNL     1      -5.381   4.927 134.019  0.00  0.00    +0.000 OA
BRANCH  21  23
ATOM     23  C   UNL     1      -3.439   4.763 132.648  0.00  0.00    +0.000 C 
BRANCH  23  24
ATOM     24  O   UNL     1      -3.021   6.245 132.948  0.00  0.00    +0.000 OA
BRANCH  24  25
ATOM     25  C   UNL     1      -2.508   7.081 131.974  0.00  0.00    +0.000 C 
ATOM     26  O   UNL     1      -2.785   8.275 131.916  0.00  0.00    +0.000 OA
BRANCH  25  27
ATOM     27  C   UNL     1      -1.552   6.410 130.938  0.00  0.00    +0.000 C 
ATOM     28  C   UNL     1      -2.140   6.402 129.507  0.00  0.00    +0.000 C 
ENDBRANCH  25  27
ENDBRANCH  24  25
ENDBRANCH  23  24
ENDBRANCH  21  23
ENDBRANCH   4  21
BRANCH   8  29
ATOM     29  O   UNL     1      -7.211   6.205 132.522  0.00  0.00    +0.000 OA
ATOM     30  H   UNL     1      -7.778   5.478 132.837  0.00  0.00    +0.000 HD
ENDBRANCH   8  29
BRANCH   4  31
ATOM     31  O   UNL     1      -6.332   2.487 132.319  0.00  0.00    +0.000 OA
BRANCH  31  32
ATOM     32  C   UNL     1      -7.144   2.001 133.339  0.00  0.00    +0.000 C 
ATOM     33  O   UNL     1      -8.295   1.627 133.200  0.00  0.00    +0.000 OA
BRANCH  32  34
ATOM     34  O   UNL     1      -6.463   1.742 134.509  0.00  0.00    +0.000 OA
BRANCH  34  35
ATOM     35  C   UNL     1      -5.747   0.480 134.385  0.00  0.00    +0.000 C 
ATOM     36  C   UNL     1      -5.603  -0.295 135.680  0.00  0.00    +0.000 C 
ENDBRANCH  34  35
ENDBRANCH  32  34
ENDBRANCH  31  32
ENDBRANCH   4  31
TORSDOF 10
ENDMDL
MODEL 9
REMARK VINA RESULT:      -7.9      3.610      8.311
REMARK  Name = Prednicarbate
REMARK  14 active torsions:
REMARK  status: ('A' for Active; 'I' for Inactive)
REMARK    1  A    between atoms: C_5  and  O_6
REMARK    2  A    between atoms: C_5  and  C_12
REMARK    3  A    between atoms: O_6  and  C_7
REMARK    4  A    between atoms: C_7  and  O_9
REMARK    5  A    between atoms: O_9  and  C_10
REMARK    6  A    between atoms: C_10  and  C_11
REMARK    7  A    between atoms: C_12  and  C_14
REMARK    8  A    between atoms: C_14  and  O_15
REMARK    9  A    between atoms: O_15  and  C_16
REMARK   10  A    between atoms: C_16  and  C_18
REMARK   11  A    between atoms: C_18  and  C_19
REMARK   12  A    between atoms: C_20  and  C_21
REMARK   13  A    between atoms: C_23  and  O_24
REMARK   14  A    between atoms: C_37  and  C_38
REMARK                            x       y       z     vdW  Elec       q    Type
REMARK                         _______ _______ _______ _____ _____    ______ ____
ROOT
ATOM      1  C   UNL     1      -5.984   1.368 128.935  0.00  0.00    +0.000 C 
ATOM      2  C   UNL     1      -5.060   0.392 129.389  0.00  0.00    +0.000 C 
ATOM      3  C   UNL     1      -4.847   1.039 128.062  0.00  0.00    +0.000 C 
ATOM      4  C   UNL     1      -5.868   2.809 127.682  0.00  0.00    +0.000 C 
ATOM      5  C   UNL     1      -4.670   2.556 128.278  0.00  0.00    +0.000 C 
ATOM      6  C   UNL     1      -4.007   3.318 129.370  0.00  0.00    +0.000 C 
ATOM      7  C   UNL     1      -4.061   2.284 126.530  0.00  0.00    +0.000 C 
ATOM      8  C   UNL     1      -5.291   1.620 125.549  0.00  0.00    +0.000 C 
ATOM      9  C   UNL     1      -6.236   0.358 126.086  0.00  0.00    +0.000 C 
ATOM     10  C   UNL     1      -7.009   0.695 127.540  0.00  0.00    +0.000 C 
ATOM     11  C   UNL     1      -7.752  -0.504 128.094  0.00  0.00    +0.000 C 
ATOM     12  C   UNL     1      -8.664  -1.130 127.068  0.00  0.00    +0.000 C 
ATOM     13  C   UNL     1      -8.028  -1.428 125.741  0.00  0.00    +0.000 C 
ATOM     14  C   UNL     1      -8.218  -2.585 125.083  0.00  0.00    +0.000 C 
ATOM     15  C   UNL     1      -7.622  -2.587 123.723  0.00  0.00    +0.000 C 
ATOM     16  O   UNL     1      -8.205  -2.499 122.652  0.00  0.00    +0.000 OA
ATOM     17  C   UNL     1      -6.118  -2.531 123.783  0.00  0.00    +0.000 C 
ATOM     18  C   UNL     1      -6.183  -1.199 124.050  0.00  0.00    +0.000 C 
ATOM     19  C   UNL     1      -7.163  -0.360 125.055  0.00  0.00    +0.000 C 
ATOM     20  C   UNL     1      -8.144   0.721 124.571  0.00  0.00    +0.000 C 
ENDROOT
BRANCH   4  21
ATOM     21  C   UNL     1      -5.355   4.522 127.083  0.00  0.00    +0.000 C 
ATOM     22  O   UNL     1      -6.085   5.186 126.317  0.00  0.00    +0.000 OA
BRANCH  21  23
ATOM     23  C   UNL     1      -3.943   5.341 127.351  0.00  0.00    +0.000 C 
BRANCH  23  24
ATOM     24  O   UNL     1      -4.238   6.775 127.916  0.00  0.00    +0.000 OA
BRANCH  24  25
ATOM     25  C   UNL     1      -3.474   7.349 128.915  0.00  0.00    +0.000 C 
ATOM     26  O   UNL     1      -3.814   8.373 129.499  0.00  0.00    +0.000 OA
BRANCH  25  27
ATOM     27  C   UNL     1      -2.138   6.616 129.254  0.00  0.00    +0.000 C 
ATOM     28  C   UNL     1      -1.996   6.310 130.764  0.00  0.00    +0.000 C 
ENDBRANCH  25  27
ENDBRANCH  24  25
ENDBRANCH  23  24
ENDBRANCH  21  23
ENDBRANCH   4  21
BRANCH   8  29
ATOM     29  O   UNL     1      -6.111   2.742 125.165  0.00  0.00    +0.000 OA
ATOM     30  H   UNL     1      -6.840   2.884 125.796  0.00  0.00    +0.000 HD
ENDBRANCH   8  29
BRANCH   4  31
ATOM     31  O   UNL     1      -6.805   3.521 128.846  0.00  0.00    +0.000 OA
BRANCH  31  32
ATOM     32  C   UNL     1      -8.152   3.859 128.759  0.00  0.00    +0.000 C 
ATOM     33  O   UNL     1      -9.080   3.106 128.995  0.00  0.00    +0.000 OA
BRANCH  32  34
ATOM     34  O   UNL     1      -8.372   5.211 128.612  0.00  0.00    +0.000 OA
BRANCH  34  35
ATOM     35  C   UNL     1      -9.319   5.663 129.622  0.00  0.00    +0.000 C 
ATOM     36  C   UNL     1      -8.710   6.494 130.733  0.00  0.00    +0.000 C 
ENDBRANCH  34  35
ENDBRANCH  32  34
ENDBRANCH  31  32
ENDBRANCH   4  31
TORSDOF 10
ENDMDL
