MODEL 1
REMARK VINA RESULT:      -8.6      0.000      0.000
REMARK  Name = Prednisone acetate
REMARK  8 active torsions:
REMARK  status: ('A' for Active; 'I' for Inactive)
REMARK    1  A    between atoms: C_5  and  O_6
REMARK    2  A    between atoms: C_5  and  C_7
REMARK    3  A    between atoms: C_7  and  C_9
REMARK    4  A    between atoms: C_9  and  O_10
REMARK    5  A    between atoms: O_10  and  C_11
REMARK    6  A    between atoms: C_11  and  C_12
REMARK    7  A    between atoms: C_14  and  C_15
REMARK    8  A    between atoms: C_31  and  C_32
REMARK                            x       y       z     vdW  Elec       q    Type
REMARK                         _______ _______ _______ _____ _____    ______ ____
ROOT
ATOM      1  C   UNL     1      -7.111  -3.257 130.472  0.00  0.00    +0.000 C 
ATOM      2  C   UNL     1      -6.186  -4.323 130.340  0.00  0.00    +0.000 C 
ATOM      3  C   UNL     1      -5.726  -2.974 129.862  0.00  0.00    +0.000 C 
ATOM      4  C   UNL     1      -6.760  -1.294 130.512  0.00  0.00    +0.000 C 
ATOM      5  C   UNL     1      -5.775  -2.041 131.079  0.00  0.00    +0.000 C 
ATOM      6  C   UNL     1      -5.415  -2.289 132.500  0.00  0.00    +0.000 C 
ATOM      7  C   UNL     1      -4.749  -1.112 129.812  0.00  0.00    +0.000 C 
ATOM      8  C   UNL     1      -5.655  -0.858 128.393  0.00  0.00    +0.000 C 
ATOM      9  O   UNL     1      -5.653   0.280 127.917  0.00  0.00    +0.000 OA
ATOM     10  C   UNL     1      -6.615  -2.068 127.739  0.00  0.00    +0.000 C 
ATOM     11  C   UNL     1      -7.742  -2.744 128.846  0.00  0.00    +0.000 C 
ATOM     12  C   UNL     1      -8.403  -3.969 128.252  0.00  0.00    +0.000 C 
ATOM     13  C   UNL     1      -8.992  -3.690 126.890  0.00  0.00    +0.000 C 
ATOM     14  C   UNL     1      -8.080  -3.015 125.899  0.00  0.00    +0.000 C 
ATOM     15  C   UNL     1      -8.007  -3.386 124.606  0.00  0.00    +0.000 C 
ATOM     16  C   UNL     1      -7.171  -2.476 123.782  0.00  0.00    +0.000 C 
ATOM     17  O   UNL     1      -7.550  -1.646 122.969  0.00  0.00    +0.000 OA
ATOM     18  C   UNL     1      -5.720  -2.554 124.178  0.00  0.00    +0.000 C 
ATOM     19  C   UNL     1      -5.979  -1.780 125.267  0.00  0.00    +0.000 C 
ATOM     20  C   UNL     1      -7.222  -1.815 126.337  0.00  0.00    +0.000 C 
ATOM     21  C   UNL     1      -8.203  -0.651 126.577  0.00  0.00    +0.000 C 
ENDROOT
BRANCH   4  22
ATOM     22  O   UNL     1      -7.952  -1.489 131.422  0.00  0.00    +0.000 OA
ATOM     23  H   UNL     1      -8.470  -0.692 131.587  0.00  0.00    +0.000 HD
ENDBRANCH   4  22
BRANCH   4  24
ATOM     24  C   UNL     1      -6.344   0.279 131.397  0.00  0.00    +0.000 C 
ATOM     25  O   UNL     1      -5.855   0.273 132.539  0.00  0.00    +0.000 OA
BRANCH  24  26
ATOM     26  C   UNL     1      -6.704   1.805 130.896  0.00  0.00    +0.000 C 
BRANCH  26  27
ATOM     27  O   UNL     1      -8.201   2.018 130.954  0.00  0.00    +0.000 OA
BRANCH  27  28
ATOM     28  C   UNL     1      -9.101   1.778 131.949  0.00  0.00    +0.000 C 
ATOM     29  C   UNL     1      -9.188   2.732 133.102  0.00  0.00    +0.000 C 
ATOM     30  O   UNL     1      -9.843   0.793 131.930  0.00  0.00    +0.000 OA
ENDBRANCH  27  28
ENDBRANCH  26  27
ENDBRANCH  24  26
ENDBRANCH   4  24
TORSDOF 5
ENDMDL
MODEL 2
REMARK VINA RESULT:      -8.2      1.633      2.500
REMARK  Name = Prednisone acetate
REMARK  8 active torsions:
REMARK  status: ('A' for Active; 'I' for Inactive)
REMARK    1  A    between atoms: C_5  and  O_6
REMARK    2  A    between atoms: C_5  and  C_7
REMARK    3  A    between atoms: C_7  and  C_9
REMARK    4  A    between atoms: C_9  and  O_10
REMARK    5  A    between atoms: O_10  and  C_11
REMARK    6  A    between atoms: C_11  and  C_12
REMARK    7  A    between atoms: C_14  and  C_15
REMARK    8  A    between atoms: C_31  and  C_32
REMARK                            x       y       z     vdW  Elec       q    Type
REMARK                         _______ _______ _______ _____ _____    ______ ____
ROOT
ATOM      1  C   UNL     1      -7.072  -3.096 130.427  0.00  0.00    +0.000 C 
ATOM      2  C   UNL     1      -6.269  -4.262 130.360  0.00  0.00    +0.000 C 
ATOM      3  C   UNL     1      -5.689  -3.013 129.754  0.00  0.00    +0.000 C 
ATOM      4  C   UNL     1      -6.517  -1.186 130.288  0.00  0.00    +0.000 C 
ATOM      5  C   UNL     1      -5.595  -1.983 130.887  0.00  0.00    +0.000 C 
ATOM      6  C   UNL     1      -5.208  -2.152 132.313  0.00  0.00    +0.000 C 
ATOM      7  C   UNL     1      -4.527  -1.277 129.515  0.00  0.00    +0.000 C 
ATOM      8  C   UNL     1      -5.456  -1.045 128.108  0.00  0.00    +0.000 C 
ATOM      9  O   UNL     1      -5.355   0.043 127.536  0.00  0.00    +0.000 OA
ATOM     10  C   UNL     1      -6.561  -2.195 127.588  0.00  0.00    +0.000 C 
ATOM     11  C   UNL     1      -7.709  -2.654 128.782  0.00  0.00    +0.000 C 
ATOM     12  C   UNL     1      -8.516  -3.846 128.316  0.00  0.00    +0.000 C 
ATOM     13  C   UNL     1      -9.125  -3.619 126.953  0.00  0.00    +0.000 C 
ATOM     14  C   UNL     1      -8.187  -3.129 125.881  0.00  0.00    +0.000 C 
ATOM     15  C   UNL     1      -8.202  -3.611 124.623  0.00  0.00    +0.000 C 
ATOM     16  C   UNL     1      -7.309  -2.867 123.700  0.00  0.00    +0.000 C 
ATOM     17  O   UNL     1      -7.632  -2.070 122.830  0.00  0.00    +0.000 OA
ATOM     18  C   UNL     1      -5.860  -3.066 124.058  0.00  0.00    +0.000 C 
ATOM     19  C   UNL     1      -5.995  -2.182 125.083  0.00  0.00    +0.000 C 
ATOM     20  C   UNL     1      -7.193  -1.996 126.189  0.00  0.00    +0.000 C 
ATOM     21  C   UNL     1      -8.037  -0.718 126.356  0.00  0.00    +0.000 C 
ENDROOT
BRANCH   4  22
ATOM     22  O   UNL     1      -7.687  -1.176 131.247  0.00  0.00    +0.000 OA
ATOM     23  H   UNL     1      -7.596  -0.569 131.991  0.00  0.00    +0.000 HD
ENDBRANCH   4  22
BRANCH   4  24
ATOM     24  C   UNL     1      -5.907   0.402 131.022  0.00  0.00    +0.000 C 
ATOM     25  O   UNL     1      -6.642   1.122 131.718  0.00  0.00    +0.000 OA
BRANCH  24  26
ATOM     26  C   UNL     1      -4.453   1.117 130.729  0.00  0.00    +0.000 C 
BRANCH  26  27
ATOM     27  O   UNL     1      -4.648   2.305 129.812  0.00  0.00    +0.000 OA
BRANCH  27  28
ATOM     28  C   UNL     1      -3.758   3.214 129.323  0.00  0.00    +0.000 C 
ATOM     29  C   UNL     1      -3.243   3.052 127.924  0.00  0.00    +0.000 C 
ATOM     30  O   UNL     1      -3.360   4.163 130.001  0.00  0.00    +0.000 OA
ENDBRANCH  27  28
ENDBRANCH  26  27
ENDBRANCH  24  26
ENDBRANCH   4  24
TORSDOF 5
ENDMDL
MODEL 3
REMARK VINA RESULT:      -8.2      4.981      8.700
REMARK  Name = Prednisone acetate
REMARK  8 active torsions:
REMARK  status: ('A' for Active; 'I' for Inactive)
REMARK    1  A    between atoms: C_5  and  O_6
REMARK    2  A    between atoms: C_5  and  C_7
REMARK    3  A    between atoms: C_7  and  C_9
REMARK    4  A    between atoms: C_9  and  O_10
REMARK    5  A    between atoms: O_10  and  C_11
REMARK    6  A    between atoms: C_11  and  C_12
REMARK    7  A    between atoms: C_14  and  C_15
REMARK    8  A    between atoms: C_31  and  C_32
REMARK                            x       y       z     vdW  Elec       q    Type
REMARK                         _______ _______ _______ _____ _____    ______ ____
ROOT
ATOM      1  C   UNL     1      -4.127   4.251 126.738  0.00  0.00    +0.000 C 
ATOM      2  C   UNL     1      -3.055   3.353 126.504  0.00  0.00    +0.000 C 
ATOM      3  C   UNL     1      -3.946   3.043 127.675  0.00  0.00    +0.000 C 
ATOM      4  C   UNL     1      -5.814   3.947 127.756  0.00  0.00    +0.000 C 
ATOM      5  C   UNL     1      -5.357   2.843 127.107  0.00  0.00    +0.000 C 
ATOM      6  C   UNL     1      -5.808   2.170 125.861  0.00  0.00    +0.000 C 
ATOM      7  C   UNL     1      -5.444   2.147 128.848  0.00  0.00    +0.000 C 
ATOM      8  C   UNL     1      -5.049   3.351 129.984  0.00  0.00    +0.000 C 
ATOM      9  O   UNL     1      -5.800   3.483 130.953  0.00  0.00    +0.000 OA
ATOM     10  C   UNL     1      -3.767   4.404 129.734  0.00  0.00    +0.000 C 
ATOM     11  C   UNL     1      -3.828   5.240 128.233  0.00  0.00    +0.000 C 
ATOM     12  C   UNL     1      -2.536   5.987 127.986  0.00  0.00    +0.000 C 
ATOM     13  C   UNL     1      -2.161   6.870 129.151  0.00  0.00    +0.000 C 
ATOM     14  C   UNL     1      -2.174   6.219 130.509  0.00  0.00    +0.000 C 
ATOM     15  C   UNL     1      -1.211   6.426 131.427  0.00  0.00    +0.000 C 
ATOM     16  C   UNL     1      -1.517   5.816 132.746  0.00  0.00    +0.000 C 
ATOM     17  O   UNL     1      -1.871   6.387 133.768  0.00  0.00    +0.000 OA
ATOM     18  C   UNL     1      -1.513   4.312 132.670  0.00  0.00    +0.000 C 
ATOM     19  C   UNL     1      -2.742   4.341 132.088  0.00  0.00    +0.000 C 
ATOM     20  C   UNL     1      -3.351   5.314 130.915  0.00  0.00    +0.000 C 
ATOM     21  C   UNL     1      -4.566   6.244 131.095  0.00  0.00    +0.000 C 
ENDROOT
BRANCH   4  22
ATOM     22  O   UNL     1      -6.202   4.901 126.649  0.00  0.00    +0.000 OA
ATOM     23  H   UNL     1      -5.829   5.788 126.729  0.00  0.00    +0.000 HD
ENDBRANCH   4  22
BRANCH   4  24
ATOM     24  C   UNL     1      -7.573   3.383 127.882  0.00  0.00    +0.000 C 
ATOM     25  O   UNL     1      -8.266   3.180 126.871  0.00  0.00    +0.000 OA
BRANCH  24  26
ATOM     26  C   UNL     1      -8.459   3.248 129.264  0.00  0.00    +0.000 C 
BRANCH  26  27
ATOM     27  O   UNL     1      -9.520   4.327 129.293  0.00  0.00    +0.000 OA
BRANCH  27  28
ATOM     28  C   UNL     1      -9.416   5.686 129.266  0.00  0.00    +0.000 C 
ATOM     29  C   UNL     1      -8.905   6.403 130.480  0.00  0.00    +0.000 C 
ATOM     30  O   UNL     1      -9.735   6.342 128.273  0.00  0.00    +0.000 OA
ENDBRANCH  27  28
ENDBRANCH  26  27
ENDBRANCH  24  26
ENDBRANCH   4  24
TORSDOF 5
ENDMDL
MODEL 4
REMARK VINA RESULT:      -7.9      2.588      6.175
REMARK  Name = Prednisone acetate
REMARK  8 active torsions:
REMARK  status: ('A' for Active; 'I' for Inactive)
REMARK    1  A    between atoms: C_5  and  O_6
REMARK    2  A    between atoms: C_5  and  C_7
REMARK    3  A    between atoms: C_7  and  C_9
REMARK    4  A    between atoms: C_9  and  O_10
REMARK    5  A    between atoms: O_10  and  C_11
REMARK    6  A    between atoms: C_11  and  C_12
REMARK    7  A    between atoms: C_14  and  C_15
REMARK    8  A    between atoms: C_31  and  C_32
REMARK                            x       y       z     vdW  Elec       q    Type
REMARK                         _______ _______ _______ _____ _____    ______ ____
ROOT
ATOM      1  C   UNL     1      -7.427   1.673 128.177  0.00  0.00    +0.000 C 
ATOM      2  C   UNL     1      -6.382   2.325 128.878  0.00  0.00    +0.000 C 
ATOM      3  C   UNL     1      -5.968   1.288 127.870  0.00  0.00    +0.000 C 
ATOM      4  C   UNL     1      -7.350   0.703 126.436  0.00  0.00    +0.000 C 
ATOM      5  C   UNL     1      -6.502   1.762 126.513  0.00  0.00    +0.000 C 
ATOM      6  C   UNL     1      -6.566   3.127 125.925  0.00  0.00    +0.000 C 
ATOM      7  C   UNL     1      -5.261   0.420 126.090  0.00  0.00    +0.000 C 
ATOM      8  C   UNL     1      -5.714  -1.050 126.818  0.00  0.00    +0.000 C 
ATOM      9  O   UNL     1      -5.708  -2.059 126.108  0.00  0.00    +0.000 OA
ATOM     10  C   UNL     1      -6.270  -1.110 128.400  0.00  0.00    +0.000 C 
ATOM     11  C   UNL     1      -7.589  -0.055 128.719  0.00  0.00    +0.000 C 
ATOM     12  C   UNL     1      -7.880   0.002 130.203  0.00  0.00    +0.000 C 
ATOM     13  C   UNL     1      -8.054  -1.375 130.798  0.00  0.00    +0.000 C 
ATOM     14  C   UNL     1      -6.974  -2.376 130.481  0.00  0.00    +0.000 C 
ATOM     15  C   UNL     1      -6.463  -3.214 131.403  0.00  0.00    +0.000 C 
ATOM     16  C   UNL     1      -5.534  -4.221 130.830  0.00  0.00    +0.000 C 
ATOM     17  O   UNL     1      -5.747  -5.411 130.642  0.00  0.00    +0.000 OA
ATOM     18  C   UNL     1      -4.277  -3.576 130.311  0.00  0.00    +0.000 C 
ATOM     19  C   UNL     1      -4.950  -3.161 129.205  0.00  0.00    +0.000 C 
ATOM     20  C   UNL     1      -6.446  -2.507 129.041  0.00  0.00    +0.000 C 
ATOM     21  C   UNL     1      -7.589  -3.136 128.221  0.00  0.00    +0.000 C 
ENDROOT
BRANCH   4  22
ATOM     22  O   UNL     1      -8.730   1.322 126.469  0.00  0.00    +0.000 OA
ATOM     23  H   UNL     1      -8.788   2.204 126.082  0.00  0.00    +0.000 HD
ENDBRANCH   4  22
BRANCH   4  24
ATOM     24  C   UNL     1      -7.424   0.648 124.586  0.00  0.00    +0.000 C 
ATOM     25  O   UNL     1      -7.789   1.630 123.919  0.00  0.00    +0.000 OA
BRANCH  24  26
ATOM     26  C   UNL     1      -7.197  -0.680 123.640  0.00  0.00    +0.000 C 
BRANCH  26  27
ATOM     27  O   UNL     1      -8.431  -1.555 123.689  0.00  0.00    +0.000 OA
BRANCH  27  28
ATOM     28  C   UNL     1      -8.897  -2.391 124.660  0.00  0.00    +0.000 C 
ATOM     29  C   UNL     1      -8.444  -3.821 124.672  0.00  0.00    +0.000 C 
ATOM     30  O   UNL     1      -9.684  -2.006 125.527  0.00  0.00    +0.000 OA
ENDBRANCH  27  28
ENDBRANCH  26  27
ENDBRANCH  24  26
ENDBRANCH   4  24
TORSDOF 5
ENDMDL
MODEL 5
REMARK VINA RESULT:      -7.9      4.812      8.840
REMARK  Name = Prednisone acetate
REMARK  8 active torsions:
REMARK  status: ('A' for Active; 'I' for Inactive)
REMARK    1  A    between atoms: C_5  and  O_6
REMARK    2  A    between atoms: C_5  and  C_7
REMARK    3  A    between atoms: C_7  and  C_9
REMARK    4  A    between atoms: C_9  and  O_10
REMARK    5  A    between atoms: O_10  and  C_11
REMARK    6  A    between atoms: C_11  and  C_12
REMARK    7  A    between atoms: C_14  and  C_15
REMARK    8  A    between atoms: C_31  and  C_32
REMARK                            x       y       z     vdW  Elec       q    Type
REMARK                         _______ _______ _______ _____ _____    ______ ____
ROOT
ATOM      1  C   UNL     1      -3.890   4.237 126.745  0.00  0.00    +0.000 C 
ATOM      2  C   UNL     1      -2.833   3.308 126.573  0.00  0.00    +0.000 C 
ATOM      3  C   UNL     1      -3.825   3.001 127.661  0.00  0.00    +0.000 C 
ATOM      4  C   UNL     1      -5.662   3.968 127.618  0.00  0.00    +0.000 C 
ATOM      5  C   UNL     1      -5.192   2.865 126.977  0.00  0.00    +0.000 C 
ATOM      6  C   UNL     1      -5.564   2.240 125.681  0.00  0.00    +0.000 C 
ATOM      7  C   UNL     1      -5.442   2.129 128.685  0.00  0.00    +0.000 C 
ATOM      8  C   UNL     1      -5.099   3.291 129.882  0.00  0.00    +0.000 C 
ATOM      9  O   UNL     1      -5.921   3.425 130.792  0.00  0.00    +0.000 OA
ATOM     10  C   UNL     1      -3.766   4.303 129.764  0.00  0.00    +0.000 C 
ATOM     11  C   UNL     1      -3.679   5.178 128.287  0.00  0.00    +0.000 C 
ATOM     12  C   UNL     1      -2.347   5.885 128.163  0.00  0.00    +0.000 C 
ATOM     13  C   UNL     1      -2.038   6.725 129.379  0.00  0.00    +0.000 C 
ATOM     14  C   UNL     1      -2.182   6.040 130.713  0.00  0.00    +0.000 C 
ATOM     15  C   UNL     1      -1.288   6.190 131.709  0.00  0.00    +0.000 C 
ATOM     16  C   UNL     1      -1.719   5.559 132.982  0.00  0.00    +0.000 C 
ATOM     17  O   UNL     1      -2.135   6.117 133.988  0.00  0.00    +0.000 OA
ATOM     18  C   UNL     1      -1.759   4.058 132.866  0.00  0.00    +0.000 C 
ATOM     19  C   UNL     1      -2.936   4.145 132.189  0.00  0.00    +0.000 C 
ATOM     20  C   UNL     1      -3.417   5.168 130.999  0.00  0.00    +0.000 C 
ATOM     21  C   UNL     1      -4.611   6.136 131.108  0.00  0.00    +0.000 C 
ENDROOT
BRANCH   4  22
ATOM     22  O   UNL     1      -5.928   4.963 126.511  0.00  0.00    +0.000 OA
ATOM     23  H   UNL     1      -6.388   5.764 126.788  0.00  0.00    +0.000 HD
ENDBRANCH   4  22
BRANCH   4  24
ATOM     24  C   UNL     1      -7.444   3.464 127.589  0.00  0.00    +0.000 C 
ATOM     25  O   UNL     1      -8.342   4.262 127.270  0.00  0.00    +0.000 OA
BRANCH  24  26
ATOM     26  C   UNL     1      -8.062   2.031 128.114  0.00  0.00    +0.000 C 
BRANCH  26  27
ATOM     27  O   UNL     1      -9.168   1.584 127.182  0.00  0.00    +0.000 OA
BRANCH  27  28
ATOM     28  C   UNL     1      -9.143   1.237 125.864  0.00  0.00    +0.000 C 
ATOM     29  C   UNL     1      -8.650  -0.124 125.476  0.00  0.00    +0.000 C 
ATOM     30  O   UNL     1      -9.509   2.015 124.981  0.00  0.00    +0.000 OA
ENDBRANCH  27  28
ENDBRANCH  26  27
ENDBRANCH  24  26
ENDBRANCH   4  24
TORSDOF 5
ENDMDL
MODEL 6
REMARK VINA RESULT:      -7.7      5.524      8.903
REMARK  Name = Prednisone acetate
REMARK  8 active torsions:
REMARK  status: ('A' for Active; 'I' for Inactive)
REMARK    1  A    between atoms: C_5  and  O_6
REMARK    2  A    between atoms: C_5  and  C_7
REMARK    3  A    between atoms: C_7  and  C_9
REMARK    4  A    between atoms: C_9  and  O_10
REMARK    5  A    between atoms: O_10  and  C_11
REMARK    6  A    between atoms: C_11  and  C_12
REMARK    7  A    between atoms: C_14  and  C_15
REMARK    8  A    between atoms: C_31  and  C_32
REMARK                            x       y       z     vdW  Elec       q    Type
REMARK                         _______ _______ _______ _____ _____    ______ ____
ROOT
ATOM      1  C   UNL     1      -4.437   6.944 130.026  0.00  0.00    +0.000 C 
ATOM      2  C   UNL     1      -3.790   7.278 131.242  0.00  0.00    +0.000 C 
ATOM      3  C   UNL     1      -3.805   5.821 130.868  0.00  0.00    +0.000 C 
ATOM      4  C   UNL     1      -4.216   5.315 128.897  0.00  0.00    +0.000 C 
ATOM      5  C   UNL     1      -3.076   5.709 129.524  0.00  0.00    +0.000 C 
ATOM      6  C   UNL     1      -1.862   6.406 129.024  0.00  0.00    +0.000 C 
ATOM      7  C   UNL     1      -3.169   3.946 130.160  0.00  0.00    +0.000 C 
ATOM      8  C   UNL     1      -4.793   3.490 130.391  0.00  0.00    +0.000 C 
ATOM      9  O   UNL     1      -5.145   2.400 129.932  0.00  0.00    +0.000 OA
ATOM     10  C   UNL     1      -5.903   4.530 131.098  0.00  0.00    +0.000 C 
ATOM     11  C   UNL     1      -5.999   6.071 130.343  0.00  0.00    +0.000 C 
ATOM     12  C   UNL     1      -6.844   7.018 131.168  0.00  0.00    +0.000 C 
ATOM     13  C   UNL     1      -8.192   6.427 131.503  0.00  0.00    +0.000 C 
ATOM     14  C   UNL     1      -8.182   5.039 132.087  0.00  0.00    +0.000 C 
ATOM     15  C   UNL     1      -8.963   4.678 133.123  0.00  0.00    +0.000 C 
ATOM     16  C   UNL     1      -8.908   3.224 133.420  0.00  0.00    +0.000 C 
ATOM     17  O   UNL     1      -9.758   2.379 133.175  0.00  0.00    +0.000 OA
ATOM     18  C   UNL     1      -7.554   2.819 133.938  0.00  0.00    +0.000 C 
ATOM     19  C   UNL     1      -7.061   2.861 132.671  0.00  0.00    +0.000 C 
ATOM     20  C   UNL     1      -7.291   3.949 131.465  0.00  0.00    +0.000 C 
ATOM     21  C   UNL     1      -7.913   3.617 130.094  0.00  0.00    +0.000 C 
ENDROOT
BRANCH   4  22
ATOM     22  O   UNL     1      -4.507   6.426 127.913  0.00  0.00    +0.000 OA
ATOM     23  H   UNL     1      -3.989   6.394 127.100  0.00  0.00    +0.000 HD
ENDBRANCH   4  22
BRANCH   4  24
ATOM     24  C   UNL     1      -3.377   4.352 127.556  0.00  0.00    +0.000 C 
ATOM     25  O   UNL     1      -2.237   4.645 127.159  0.00  0.00    +0.000 OA
BRANCH  24  26
ATOM     26  C   UNL     1      -4.052   3.160 126.642  0.00  0.00    +0.000 C 
BRANCH  26  27
ATOM     27  O   UNL     1      -5.396   3.621 126.120  0.00  0.00    +0.000 OA
BRANCH  27  28
ATOM     28  C   UNL     1      -5.719   4.557 125.184  0.00  0.00    +0.000 C 
ATOM     29  C   UNL     1      -5.536   4.232 123.732  0.00  0.00    +0.000 C 
ATOM     30  O   UNL     1      -6.152   5.667 125.498  0.00  0.00    +0.000 OA
ENDBRANCH  27  28
ENDBRANCH  26  27
ENDBRANCH  24  26
ENDBRANCH   4  24
TORSDOF 5
ENDMDL
MODEL 7
REMARK VINA RESULT:      -7.7      2.560      6.220
REMARK  Name = Prednisone acetate
REMARK  8 active torsions:
REMARK  status: ('A' for Active; 'I' for Inactive)
REMARK    1  A    between atoms: C_5  and  O_6
REMARK    2  A    between atoms: C_5  and  C_7
REMARK    3  A    between atoms: C_7  and  C_9
REMARK    4  A    between atoms: C_9  and  O_10
REMARK    5  A    between atoms: O_10  and  C_11
REMARK    6  A    between atoms: C_11  and  C_12
REMARK    7  A    between atoms: C_14  and  C_15
REMARK    8  A    between atoms: C_31  and  C_32
REMARK                            x       y       z     vdW  Elec       q    Type
REMARK                         _______ _______ _______ _____ _____    ______ ____
ROOT
ATOM      1  C   UNL     1      -6.531  -2.716 129.378  0.00  0.00    +0.000 C 
ATOM      2  C   UNL     1      -7.670  -3.468 128.997  0.00  0.00    +0.000 C 
ATOM      3  C   UNL     1      -7.884  -2.415 130.049  0.00  0.00    +0.000 C 
ATOM      4  C   UNL     1      -6.449  -0.928 130.258  0.00  0.00    +0.000 C 
ATOM      5  C   UNL     1      -7.500  -1.075 129.408  0.00  0.00    +0.000 C 
ATOM      6  C   UNL     1      -7.742  -0.558 128.035  0.00  0.00    +0.000 C 
ATOM      7  C   UNL     1      -8.441  -0.604 130.962  0.00  0.00    +0.000 C 
ATOM      8  C   UNL     1      -7.667  -1.246 132.335  0.00  0.00    +0.000 C 
ATOM      9  O   UNL     1      -7.480  -0.484 133.287  0.00  0.00    +0.000 OA
ATOM     10  C   UNL     1      -7.067  -2.813 132.350  0.00  0.00    +0.000 C 
ATOM     11  C   UNL     1      -5.992  -3.164 131.055  0.00  0.00    +0.000 C 
ATOM     12  C   UNL     1      -5.678  -4.644 131.009  0.00  0.00    +0.000 C 
ATOM     13  C   UNL     1      -5.201  -5.162 132.344  0.00  0.00    +0.000 C 
ATOM     14  C   UNL     1      -6.053  -4.812 133.535  0.00  0.00    +0.000 C 
ATOM     15  C   UNL     1      -6.349  -5.698 134.506  0.00  0.00    +0.000 C 
ATOM     16  C   UNL     1      -7.060  -5.089 135.659  0.00  0.00    +0.000 C 
ATOM     17  O   UNL     1      -6.605  -4.835 136.765  0.00  0.00    +0.000 OA
ATOM     18  C   UNL     1      -8.439  -4.626 135.272  0.00  0.00    +0.000 C 
ATOM     19  C   UNL     1      -7.900  -3.532 134.671  0.00  0.00    +0.000 C 
ATOM     20  C   UNL     1      -6.581  -3.377 133.707  0.00  0.00    +0.000 C 
ATOM     21  C   UNL     1      -5.354  -2.505 134.039  0.00  0.00    +0.000 C 
ENDROOT
BRANCH   4  22
ATOM     22  O   UNL     1      -5.231  -0.970 129.362  0.00  0.00    +0.000 OA
ATOM     23  H   UNL     1      -4.799  -0.118 129.226  0.00  0.00    +0.000 HD
ENDBRANCH   4  22
BRANCH   4  24
ATOM     24  C   UNL     1      -6.418   0.923 130.209  0.00  0.00    +0.000 C 
ATOM     25  O   UNL     1      -6.342   1.545 129.136  0.00  0.00    +0.000 OA
BRANCH  24  26
ATOM     26  C   UNL     1      -6.316   1.932 131.505  0.00  0.00    +0.000 C 
BRANCH  26  27
ATOM     27  O   UNL     1      -7.527   2.841 131.536  0.00  0.00    +0.000 OA
BRANCH  27  28
ATOM     28  C   UNL     1      -8.744   2.690 132.131  0.00  0.00    +0.000 C 
ATOM     29  C   UNL     1      -9.983   2.793 131.294  0.00  0.00    +0.000 C 
ATOM     30  O   UNL     1      -8.854   2.477 133.340  0.00  0.00    +0.000 OA
ENDBRANCH  27  28
ENDBRANCH  26  27
ENDBRANCH  24  26
ENDBRANCH   4  24
TORSDOF 5
ENDMDL
MODEL 8
REMARK VINA RESULT:      -7.6      4.615      8.426
REMARK  Name = Prednisone acetate
REMARK  8 active torsions:
REMARK  status: ('A' for Active; 'I' for Inactive)
REMARK    1  A    between atoms: C_5  and  O_6
REMARK    2  A    between atoms: C_5  and  C_7
REMARK    3  A    between atoms: C_7  and  C_9
REMARK    4  A    between atoms: C_9  and  O_10
REMARK    5  A    between atoms: O_10  and  C_11
REMARK    6  A    between atoms: C_11  and  C_12
REMARK    7  A    between atoms: C_14  and  C_15
REMARK    8  A    between atoms: C_31  and  C_32
REMARK                            x       y       z     vdW  Elec       q    Type
REMARK                         _______ _______ _______ _____ _____    ______ ____
ROOT
ATOM      1  C   UNL     1      -8.168   2.784 131.890  0.00  0.00    +0.000 C 
ATOM      2  C   UNL     1      -9.231   1.847 131.897  0.00  0.00    +0.000 C 
ATOM      3  C   UNL     1      -8.926   2.505 130.579  0.00  0.00    +0.000 C 
ATOM      4  C   UNL     1      -7.085   3.436 130.348  0.00  0.00    +0.000 C 
ATOM      5  C   UNL     1      -7.477   2.139 130.235  0.00  0.00    +0.000 C 
ATOM      6  C   UNL     1      -6.737   0.862 130.413  0.00  0.00    +0.000 C 
ATOM      7  C   UNL     1      -8.191   2.804 128.632  0.00  0.00    +0.000 C 
ATOM      8  C   UNL     1      -8.732   4.403 128.848  0.00  0.00    +0.000 C 
ATOM      9  O   UNL     1      -8.389   5.235 128.003  0.00  0.00    +0.000 OA
ATOM     10  C   UNL     1      -9.586   4.862 130.216  0.00  0.00    +0.000 C 
ATOM     11  C   UNL     1      -8.800   4.478 131.695  0.00  0.00    +0.000 C 
ATOM     12  C   UNL     1      -9.725   4.712 132.869  0.00  0.00    +0.000 C 
ATOM     13  C   UNL     1     -10.324   6.098 132.849  0.00  0.00    +0.000 C 
ATOM     14  C   UNL     1     -10.952   6.531 131.550  0.00  0.00    +0.000 C 
ATOM     15  C   UNL     1     -12.127   7.187 131.491  0.00  0.00    +0.000 C 
ATOM     16  C   UNL     1     -12.468   7.658 130.125  0.00  0.00    +0.000 C 
ATOM     17  O   UNL     1     -12.415   8.802 129.695  0.00  0.00    +0.000 OA
ATOM     18  C   UNL     1     -12.746   6.504 129.199  0.00  0.00    +0.000 C 
ATOM     19  C   UNL     1     -11.409   6.275 129.087  0.00  0.00    +0.000 C 
ATOM     20  C   UNL     1     -10.222   6.273 130.220  0.00  0.00    +0.000 C 
ATOM     21  C   UNL     1      -9.003   7.215 130.210  0.00  0.00    +0.000 C 
ENDROOT
BRANCH   4  22
ATOM     22  O   UNL     1      -6.126   3.439 131.517  0.00  0.00    +0.000 OA
ATOM     23  H   UNL     1      -5.712   4.292 131.700  0.00  0.00    +0.000 HD
ENDBRANCH   4  22
BRANCH   4  24
ATOM     24  C   UNL     1      -5.653   3.308 129.179  0.00  0.00    +0.000 C 
ATOM     25  O   UNL     1      -4.858   2.353 129.225  0.00  0.00    +0.000 OA
BRANCH  24  26
ATOM     26  C   UNL     1      -5.167   4.453 128.102  0.00  0.00    +0.000 C 
BRANCH  26  27
ATOM     27  O   UNL     1      -4.992   5.777 128.814  0.00  0.00    +0.000 OA
BRANCH  27  28
ATOM     28  C   UNL     1      -3.891   6.562 128.988  0.00  0.00    +0.000 C 
ATOM     29  C   UNL     1      -2.658   6.277 128.183  0.00  0.00    +0.000 C 
ATOM     30  O   UNL     1      -3.878   7.496 129.792  0.00  0.00    +0.000 OA
ENDBRANCH  27  28
ENDBRANCH  26  27
ENDBRANCH  24  26
ENDBRANCH   4  24
TORSDOF 5
ENDMDL
MODEL 9
REMARK VINA RESULT:      -7.6      2.921      6.627
REMARK  Name = Prednisone acetate
REMARK  8 active torsions:
REMARK  status: ('A' for Active; 'I' for Inactive)
REMARK    1  A    between atoms: C_5  and  O_6
REMARK    2  A    between atoms: C_5  and  C_7
REMARK    3  A    between atoms: C_7  and  C_9
REMARK    4  A    between atoms: C_9  and  O_10
REMARK    5  A    between atoms: O_10  and  C_11
REMARK    6  A    between atoms: C_11  and  C_12
REMARK    7  A    between atoms: C_14  and  C_15
REMARK    8  A    between atoms: C_31  and  C_32
REMARK                            x       y       z     vdW  Elec       q    Type
REMARK                         _______ _______ _______ _____ _____    ______ ____
ROOT
ATOM      1  C   UNL     1      -5.245   2.440 127.173  0.00  0.00    +0.000 C 
ATOM      2  C   UNL     1      -3.985   2.385 126.528  0.00  0.00    +0.000 C 
ATOM      3  C   UNL     1      -4.913   1.227 126.286  0.00  0.00    +0.000 C 
ATOM      4  C   UNL     1      -6.929   1.477 126.714  0.00  0.00    +0.000 C 
ATOM      5  C   UNL     1      -6.174   1.809 125.634  0.00  0.00    +0.000 C 
ATOM      6  C   UNL     1      -6.325   2.877 124.611  0.00  0.00    +0.000 C 
ATOM      7  C   UNL     1      -6.303  -0.041 125.346  0.00  0.00    +0.000 C 
ATOM      8  C   UNL     1      -6.308  -0.869 126.833  0.00  0.00    +0.000 C 
ATOM      9  O   UNL     1      -7.174  -1.732 126.997  0.00  0.00    +0.000 OA
ATOM     10  C   UNL     1      -5.265  -0.443 128.076  0.00  0.00    +0.000 C 
ATOM     11  C   UNL     1      -5.338   1.217 128.515  0.00  0.00    +0.000 C 
ATOM     12  C   UNL     1      -4.219   1.565 129.473  0.00  0.00    +0.000 C 
ATOM     13  C   UNL     1      -4.178   0.631 130.658  0.00  0.00    +0.000 C 
ATOM     14  C   UNL     1      -4.202  -0.842 130.344  0.00  0.00    +0.000 C 
ATOM     15  C   UNL     1      -3.416  -1.735 130.974  0.00  0.00    +0.000 C 
ATOM     16  C   UNL     1      -3.729  -3.143 130.621  0.00  0.00    +0.000 C 
ATOM     17  O   UNL     1      -4.311  -3.972 131.306  0.00  0.00    +0.000 OA
ATOM     18  C   UNL     1      -3.390  -3.438 129.184  0.00  0.00    +0.000 C 
ATOM     19  C   UNL     1      -4.522  -2.796 128.789  0.00  0.00    +0.000 C 
ATOM     20  C   UNL     1      -5.193  -1.388 129.300  0.00  0.00    +0.000 C 
ATOM     21  C   UNL     1      -6.593  -1.266 129.931  0.00  0.00    +0.000 C 
ENDROOT
BRANCH   4  22
ATOM     22  O   UNL     1      -7.388   2.804 127.275  0.00  0.00    +0.000 OA
ATOM     23  H   UNL     1      -8.291   2.809 127.617  0.00  0.00    +0.000 HD
ENDBRANCH   4  22
BRANCH   4  24
ATOM     24  C   UNL     1      -8.527   1.318 125.791  0.00  0.00    +0.000 C 
ATOM     25  O   UNL     1      -9.012   2.272 125.159  0.00  0.00    +0.000 OA
BRANCH  24  26
ATOM     26  C   UNL     1      -9.548   0.027 125.822  0.00  0.00    +0.000 C 
BRANCH  26  27
ATOM     27  O   UNL     1      -9.288  -0.853 124.618  0.00  0.00    +0.000 OA
BRANCH  27  28
ATOM     28  C   UNL     1      -9.383  -2.204 124.459  0.00  0.00    +0.000 C 
ATOM     29  C   UNL     1      -8.936  -2.821 123.168  0.00  0.00    +0.000 C 
ATOM     30  O   UNL     1      -9.831  -2.932 125.347  0.00  0.00    +0.000 OA
ENDBRANCH  27  28
ENDBRANCH  26  27
ENDBRANCH  24  26
ENDBRANCH   4  24
TORSDOF 5
ENDMDL
