MODEL 1
REMARK VINA RESULT:      -8.5      0.000      0.000
REMARK  Name = Prednisolone phosphate
REMARK  10 active torsions:
REMARK  status: ('A' for Active; 'I' for Inactive)
REMARK    1  A    between atoms: C_5  and  O_6
REMARK    2  A    between atoms: C_5  and  C_7
REMARK    3  A    between atoms: C_7  and  C_9
REMARK    4  A    between atoms: C_9  and  O_10
REMARK    5  A    between atoms: O_10  and  P_11
REMARK    6  A    between atoms: P_11  and  O_12
REMARK    7  A    between atoms: P_11  and  O_13
REMARK    8  A    between atoms: C_15  and  C_16
REMARK    9  A    between atoms: C_18  and  O_19
REMARK   10  A    between atoms: C_32  and  C_33
REMARK                            x       y       z     vdW  Elec       q    Type
REMARK                         _______ _______ _______ _____ _____    ______ ____
ROOT
ATOM      1  C   UNL     1      -7.094  -3.171 130.467  0.00  0.00    +0.000 C 
ATOM      2  C   UNL     1      -6.216  -4.278 130.358  0.00  0.00    +0.000 C 
ATOM      3  C   UNL     1      -5.713  -2.964 129.825  0.00  0.00    +0.000 C 
ATOM      4  C   UNL     1      -6.655  -1.238 130.476  0.00  0.00    +0.000 C 
ATOM      5  C   UNL     1      -5.683  -2.003 131.008  0.00  0.00    +0.000 C 
ATOM      6  C   UNL     1      -5.305  -2.180 132.430  0.00  0.00    +0.000 C 
ATOM      7  C   UNL     1      -4.702  -1.122 129.659  0.00  0.00    +0.000 C 
ATOM      8  C   UNL     1      -5.675  -0.875 128.259  0.00  0.00    +0.000 C 
ATOM      9  C   UNL     1      -6.645  -2.091 127.674  0.00  0.00    +0.000 C 
ATOM     10  C   UNL     1      -7.752  -2.696 128.834  0.00  0.00    +0.000 C 
ATOM     11  C   UNL     1      -8.467  -3.920 128.300  0.00  0.00    +0.000 C 
ATOM     12  C   UNL     1      -9.074  -3.686 126.937  0.00  0.00    +0.000 C 
ATOM     13  C   UNL     1      -8.163  -3.099 125.893  0.00  0.00    +0.000 C 
ATOM     14  C   UNL     1      -8.131  -3.530 124.617  0.00  0.00    +0.000 C 
ATOM     15  C   UNL     1      -7.278  -2.692 123.734  0.00  0.00    +0.000 C 
ATOM     16  O   UNL     1      -7.639  -1.882 122.892  0.00  0.00    +0.000 OA
ATOM     17  C   UNL     1      -5.825  -2.807 124.105  0.00  0.00    +0.000 C 
ATOM     18  C   UNL     1      -6.036  -1.976 125.163  0.00  0.00    +0.000 C 
ATOM     19  C   UNL     1      -7.263  -1.911 126.253  0.00  0.00    +0.000 C 
ATOM     20  C   UNL     1      -8.201  -0.705 126.402  0.00  0.00    +0.000 C 
ENDROOT
BRANCH   4  21
ATOM     21  O   UNL     1      -7.841  -1.340 131.389  0.00  0.00    +0.000 OA
ATOM     22  H   UNL     1      -8.079  -0.514 131.831  0.00  0.00    +0.000 HD
ENDBRANCH   4  21
BRANCH   4  23
ATOM     23  C   UNL     1      -6.122   0.361 131.279  0.00  0.00    +0.000 C 
ATOM     24  O   UNL     1      -5.063   0.948 131.004  0.00  0.00    +0.000 OA
BRANCH  23  25
ATOM     25  C   UNL     1      -6.911   1.099 132.485  0.00  0.00    +0.000 C 
BRANCH  25  26
ATOM     26  O   UNL     1      -7.788   2.245 132.106  0.00  0.00    +0.000 OA
BRANCH  26  27
ATOM     27  P   UNL     1      -9.383   1.943 131.964  0.00  0.00    +0.000 P 
ATOM     28  O   UNL     1      -9.941   0.564 131.946  0.00  0.00    +0.000 OA
BRANCH  27  29
ATOM     29  O   UNL     1      -9.818   2.837 133.208  0.00  0.00    +0.000 OA
ATOM     30  H   UNL     1      -9.870   3.750 132.854  0.00  0.00    +0.000 HD
ENDBRANCH  27  29
BRANCH  27  31
ATOM     31  O   UNL     1      -9.617   2.804 130.645  0.00  0.00    +0.000 OA
ATOM     32  H   UNL     1      -9.753   2.160 129.922  0.00  0.00    +0.000 HD
ENDBRANCH  27  31
ENDBRANCH  26  27
ENDBRANCH  25  26
ENDBRANCH  23  25
ENDBRANCH   4  23
BRANCH   8  33
ATOM     33  O   UNL     1      -6.475   0.295 128.549  0.00  0.00    +0.000 OA
ATOM     34  H   UNL     1      -6.511   0.445 129.512  0.00  0.00    +0.000 HD
ENDBRANCH   8  33
TORSDOF 8
ENDMDL
MODEL 2
REMARK VINA RESULT:      -8.4      3.458      6.874
REMARK  Name = Prednisolone phosphate
REMARK  10 active torsions:
REMARK  status: ('A' for Active; 'I' for Inactive)
REMARK    1  A    between atoms: C_5  and  O_6
REMARK    2  A    between atoms: C_5  and  C_7
REMARK    3  A    between atoms: C_7  and  C_9
REMARK    4  A    between atoms: C_9  and  O_10
REMARK    5  A    between atoms: O_10  and  P_11
REMARK    6  A    between atoms: P_11  and  O_12
REMARK    7  A    between atoms: P_11  and  O_13
REMARK    8  A    between atoms: C_15  and  C_16
REMARK    9  A    between atoms: C_18  and  O_19
REMARK   10  A    between atoms: C_32  and  C_33
REMARK                            x       y       z     vdW  Elec       q    Type
REMARK                         _______ _______ _______ _____ _____    ______ ____
ROOT
ATOM      1  C   UNL     1      -5.769   1.937 126.906  0.00  0.00    +0.000 C 
ATOM      2  C   UNL     1      -4.469   2.075 126.359  0.00  0.00    +0.000 C 
ATOM      3  C   UNL     1      -5.175   0.772 126.098  0.00  0.00    +0.000 C 
ATOM      4  C   UNL     1      -7.233   0.729 126.330  0.00  0.00    +0.000 C 
ATOM      5  C   UNL     1      -6.437   1.116 125.315  0.00  0.00    +0.000 C 
ATOM      6  C   UNL     1      -6.706   2.094 124.234  0.00  0.00    +0.000 C 
ATOM      7  C   UNL     1      -6.279  -0.757 125.157  0.00  0.00    +0.000 C 
ATOM      8  C   UNL     1      -6.298  -1.504 126.709  0.00  0.00    +0.000 C 
ATOM      9  C   UNL     1      -5.409  -0.877 127.965  0.00  0.00    +0.000 C 
ATOM     10  C   UNL     1      -5.771   0.764 128.302  0.00  0.00    +0.000 C 
ATOM     11  C   UNL     1      -4.800   1.326 129.320  0.00  0.00    +0.000 C 
ATOM     12  C   UNL     1      -4.687   0.457 130.551  0.00  0.00    +0.000 C 
ATOM     13  C   UNL     1      -4.427  -1.006 130.313  0.00  0.00    +0.000 C 
ATOM     14  C   UNL     1      -3.552  -1.726 131.039  0.00  0.00    +0.000 C 
ATOM     15  C   UNL     1      -3.589  -3.181 130.734  0.00  0.00    +0.000 C 
ATOM     16  O   UNL     1      -4.073  -4.077 131.411  0.00  0.00    +0.000 OA
ATOM     17  C   UNL     1      -3.096  -3.461 129.341  0.00  0.00    +0.000 C 
ATOM     18  C   UNL     1      -4.289  -3.038 128.840  0.00  0.00    +0.000 C 
ATOM     19  C   UNL     1      -5.232  -1.754 129.243  0.00  0.00    +0.000 C 
ATOM     20  C   UNL     1      -6.653  -1.890 129.804  0.00  0.00    +0.000 C 
ENDROOT
BRANCH   4  21
ATOM     21  O   UNL     1      -7.950   1.955 126.814  0.00  0.00    +0.000 OA
ATOM     22  H   UNL     1      -8.891   1.980 126.599  0.00  0.00    +0.000 HD
ENDBRANCH   4  21
BRANCH   4  23
ATOM     23  C   UNL     1      -8.692   0.243 125.273  0.00  0.00    +0.000 C 
ATOM     24  O   UNL     1      -9.873   0.350 125.642  0.00  0.00    +0.000 OA
BRANCH  23  25
ATOM     25  C   UNL     1      -8.588  -0.463 123.820  0.00  0.00    +0.000 C 
BRANCH  25  26
ATOM     26  O   UNL     1      -9.597  -1.520 123.517  0.00  0.00    +0.000 OA
BRANCH  26  27
ATOM     27  P   UNL     1      -9.308  -3.012 124.104  0.00  0.00    +0.000 P 
ATOM     28  O   UNL     1      -7.944  -3.606 124.151  0.00  0.00    +0.000 OA
BRANCH  27  29
ATOM     29  O   UNL     1      -9.985  -2.751 125.522  0.00  0.00    +0.000 OA
ATOM     30  H   UNL     1      -9.389  -2.116 125.971  0.00  0.00    +0.000 HD
ENDBRANCH  27  29
BRANCH  27  31
ATOM     31  O   UNL     1     -10.368  -3.777 123.196  0.00  0.00    +0.000 OA
ATOM     32  H   UNL     1     -11.206  -3.777 123.700  0.00  0.00    +0.000 HD
ENDBRANCH  27  31
ENDBRANCH  26  27
ENDBRANCH  25  26
ENDBRANCH  23  25
ENDBRANCH   4  23
BRANCH   8  33
ATOM     33  O   UNL     1      -7.694  -1.576 127.083  0.00  0.00    +0.000 OA
ATOM     34  H   UNL     1      -8.257  -1.493 126.291  0.00  0.00    +0.000 HD
ENDBRANCH   8  33
TORSDOF 8
ENDMDL
MODEL 3
REMARK VINA RESULT:      -8.3      1.669      2.593
REMARK  Name = Prednisolone phosphate
REMARK  10 active torsions:
REMARK  status: ('A' for Active; 'I' for Inactive)
REMARK    1  A    between atoms: C_5  and  O_6
REMARK    2  A    between atoms: C_5  and  C_7
REMARK    3  A    between atoms: C_7  and  C_9
REMARK    4  A    between atoms: C_9  and  O_10
REMARK    5  A    between atoms: O_10  and  P_11
REMARK    6  A    between atoms: P_11  and  O_12
REMARK    7  A    between atoms: P_11  and  O_13
REMARK    8  A    between atoms: C_15  and  C_16
REMARK    9  A    between atoms: C_18  and  O_19
REMARK   10  A    between atoms: C_32  and  C_33
REMARK                            x       y       z     vdW  Elec       q    Type
REMARK                         _______ _______ _______ _____ _____    ______ ____
ROOT
ATOM      1  C   UNL     1      -7.080  -3.161 130.438  0.00  0.00    +0.000 C 
ATOM      2  C   UNL     1      -6.301  -4.343 130.356  0.00  0.00    +0.000 C 
ATOM      3  C   UNL     1      -5.692  -3.093 129.782  0.00  0.00    +0.000 C 
ATOM      4  C   UNL     1      -6.475  -1.274 130.389  0.00  0.00    +0.000 C 
ATOM      5  C   UNL     1      -5.568  -2.105 130.935  0.00  0.00    +0.000 C 
ATOM      6  C   UNL     1      -5.193  -2.274 132.360  0.00  0.00    +0.000 C 
ATOM      7  C   UNL     1      -4.527  -1.350 129.555  0.00  0.00    +0.000 C 
ATOM      8  C   UNL     1      -5.488  -1.060 128.156  0.00  0.00    +0.000 C 
ATOM      9  C   UNL     1      -6.565  -2.203 127.613  0.00  0.00    +0.000 C 
ATOM     10  C   UNL     1      -7.709  -2.678 128.797  0.00  0.00    +0.000 C 
ATOM     11  C   UNL     1      -8.532  -3.850 128.303  0.00  0.00    +0.000 C 
ATOM     12  C   UNL     1      -9.129  -3.603 126.938  0.00  0.00    +0.000 C 
ATOM     13  C   UNL     1      -8.180  -3.127 125.871  0.00  0.00    +0.000 C 
ATOM     14  C   UNL     1      -8.197  -3.595 124.609  0.00  0.00    +0.000 C 
ATOM     15  C   UNL     1      -7.284  -2.859 123.695  0.00  0.00    +0.000 C 
ATOM     16  O   UNL     1      -7.581  -2.045 122.834  0.00  0.00    +0.000 OA
ATOM     17  C   UNL     1      -5.843  -3.088 124.060  0.00  0.00    +0.000 C 
ATOM     18  C   UNL     1      -5.971  -2.213 125.095  0.00  0.00    +0.000 C 
ATOM     19  C   UNL     1      -7.178  -2.011 126.191  0.00  0.00    +0.000 C 
ATOM     20  C   UNL     1      -8.007  -0.725 126.311  0.00  0.00    +0.000 C 
ENDROOT
BRANCH   4  21
ATOM     21  O   UNL     1      -7.657  -1.247 131.312  0.00  0.00    +0.000 OA
ATOM     22  H   UNL     1      -7.966  -2.118 131.594  0.00  0.00    +0.000 HD
ENDBRANCH   4  21
BRANCH   4  23
ATOM     23  C   UNL     1      -5.799   0.295 131.141  0.00  0.00    +0.000 C 
ATOM     24  O   UNL     1      -6.495   1.112 131.765  0.00  0.00    +0.000 OA
BRANCH  23  25
ATOM     25  C   UNL     1      -4.275   0.817 130.979  0.00  0.00    +0.000 C 
BRANCH  25  26
ATOM     26  O   UNL     1      -4.071   2.295 130.996  0.00  0.00    +0.000 OA
BRANCH  26  27
ATOM     27  P   UNL     1      -4.154   3.072 129.567  0.00  0.00    +0.000 P 
ATOM     28  O   UNL     1      -3.465   4.368 129.316  0.00  0.00    +0.000 OA
BRANCH  27  29
ATOM     29  O   UNL     1      -3.633   1.845 128.696  0.00  0.00    +0.000 OA
ATOM     30  H   UNL     1      -2.705   1.712 128.981  0.00  0.00    +0.000 HD
ENDBRANCH  27  29
BRANCH  27  31
ATOM     31  O   UNL     1      -5.742   3.099 129.463  0.00  0.00    +0.000 OA
ATOM     32  H   UNL     1      -6.062   3.470 130.309  0.00  0.00    +0.000 HD
ENDBRANCH  27  31
ENDBRANCH  26  27
ENDBRANCH  25  26
ENDBRANCH  23  25
ENDBRANCH   4  23
BRANCH   8  33
ATOM     33  O   UNL     1      -6.182   0.183 128.417  0.00  0.00    +0.000 OA
ATOM     34  H   UNL     1      -7.071   0.159 128.018  0.00  0.00    +0.000 HD
ENDBRANCH   8  33
TORSDOF 8
ENDMDL
MODEL 4
REMARK VINA RESULT:      -8.2      5.524      8.952
REMARK  Name = Prednisolone phosphate
REMARK  10 active torsions:
REMARK  status: ('A' for Active; 'I' for Inactive)
REMARK    1  A    between atoms: C_5  and  O_6
REMARK    2  A    between atoms: C_5  and  C_7
REMARK    3  A    between atoms: C_7  and  C_9
REMARK    4  A    between atoms: C_9  and  O_10
REMARK    5  A    between atoms: O_10  and  P_11
REMARK    6  A    between atoms: P_11  and  O_12
REMARK    7  A    between atoms: P_11  and  O_13
REMARK    8  A    between atoms: C_15  and  C_16
REMARK    9  A    between atoms: C_18  and  O_19
REMARK   10  A    between atoms: C_32  and  C_33
REMARK                            x       y       z     vdW  Elec       q    Type
REMARK                         _______ _______ _______ _____ _____    ______ ____
ROOT
ATOM      1  C   UNL     1      -5.890   3.336 129.026  0.00  0.00    +0.000 C 
ATOM      2  C   UNL     1      -5.472   2.251 129.837  0.00  0.00    +0.000 C 
ATOM      3  C   UNL     1      -6.207   3.365 130.530  0.00  0.00    +0.000 C 
ATOM      4  C   UNL     1      -7.344   4.642 129.361  0.00  0.00    +0.000 C 
ATOM      5  C   UNL     1      -7.590   3.431 129.893  0.00  0.00    +0.000 C 
ATOM      6  C   UNL     1      -8.528   2.379 129.432  0.00  0.00    +0.000 C 
ATOM      7  C   UNL     1      -7.733   4.500 131.440  0.00  0.00    +0.000 C 
ATOM      8  C   UNL     1      -6.603   5.798 131.390  0.00  0.00    +0.000 C 
ATOM      9  C   UNL     1      -5.031   5.539 130.918  0.00  0.00    +0.000 C 
ATOM     10  C   UNL     1      -4.896   4.826 129.365  0.00  0.00    +0.000 C 
ATOM     11  C   UNL     1      -3.459   4.443 129.078  0.00  0.00    +0.000 C 
ATOM     12  C   UNL     1      -2.498   5.585 129.315  0.00  0.00    +0.000 C 
ATOM     13  C   UNL     1      -2.611   6.287 130.641  0.00  0.00    +0.000 C 
ATOM     14  C   UNL     1      -1.542   6.653 131.373  0.00  0.00    +0.000 C 
ATOM     15  C   UNL     1      -1.895   7.478 132.559  0.00  0.00    +0.000 C 
ATOM     16  O   UNL     1      -1.742   8.682 132.707  0.00  0.00    +0.000 OA
ATOM     17  C   UNL     1      -2.669   6.680 133.571  0.00  0.00    +0.000 C 
ATOM     18  C   UNL     1      -3.786   6.799 132.803  0.00  0.00    +0.000 C 
ATOM     19  C   UNL     1      -3.994   6.674 131.178  0.00  0.00    +0.000 C 
ATOM     20  C   UNL     1      -4.478   7.833 130.295  0.00  0.00    +0.000 C 
ENDROOT
BRANCH   4  21
ATOM     21  O   UNL     1      -7.349   4.474 127.870  0.00  0.00    +0.000 OA
ATOM     22  H   UNL     1      -6.662   3.887 127.530  0.00  0.00    +0.000 HD
ENDBRANCH   4  21
BRANCH   4  23
ATOM     23  C   UNL     1      -9.118   5.224 129.343  0.00  0.00    +0.000 C 
ATOM     24  O   UNL     1      -9.577   5.998 128.488  0.00  0.00    +0.000 OA
BRANCH  23  25
ATOM     25  C   UNL     1     -10.216   4.880 130.481  0.00  0.00    +0.000 C 
BRANCH  25  26
ATOM     26  O   UNL     1     -11.582   5.447 130.284  0.00  0.00    +0.000 OA
BRANCH  26  27
ATOM     27  P   UNL     1     -11.944   6.810 131.100  0.00  0.00    +0.000 P 
ATOM     28  O   UNL     1     -13.313   7.105 131.604  0.00  0.00    +0.000 OA
BRANCH  27  29
ATOM     29  O   UNL     1     -10.833   6.614 132.223  0.00  0.00    +0.000 OA
ATOM     30  H   UNL     1     -10.000   6.923 131.808  0.00  0.00    +0.000 HD
ENDBRANCH  27  29
BRANCH  27  31
ATOM     31  O   UNL     1     -11.367   7.830 130.022  0.00  0.00    +0.000 OA
ATOM     32  H   UNL     1     -11.054   7.283 129.274  0.00  0.00    +0.000 HD
ENDBRANCH  27  31
ENDBRANCH  26  27
ENDBRANCH  25  26
ENDBRANCH  23  25
ENDBRANCH   4  23
BRANCH   8  33
ATOM     33  O   UNL     1      -7.210   6.804 130.545  0.00  0.00    +0.000 OA
ATOM     34  H   UNL     1      -7.902   7.281 131.039  0.00  0.00    +0.000 HD
ENDBRANCH   8  33
TORSDOF 8
ENDMDL
MODEL 5
REMARK VINA RESULT:      -8.1      5.340      8.949
REMARK  Name = Prednisolone phosphate
REMARK  10 active torsions:
REMARK  status: ('A' for Active; 'I' for Inactive)
REMARK    1  A    between atoms: C_5  and  O_6
REMARK    2  A    between atoms: C_5  and  C_7
REMARK    3  A    between atoms: C_7  and  C_9
REMARK    4  A    between atoms: C_9  and  O_10
REMARK    5  A    between atoms: O_10  and  P_11
REMARK    6  A    between atoms: P_11  and  O_12
REMARK    7  A    between atoms: P_11  and  O_13
REMARK    8  A    between atoms: C_15  and  C_16
REMARK    9  A    between atoms: C_18  and  O_19
REMARK   10  A    between atoms: C_32  and  C_33
REMARK                            x       y       z     vdW  Elec       q    Type
REMARK                         _______ _______ _______ _____ _____    ______ ____
ROOT
ATOM      1  C   UNL     1      -3.742   4.251 126.715  0.00  0.00    +0.000 C 
ATOM      2  C   UNL     1      -2.663   3.345 126.558  0.00  0.00    +0.000 C 
ATOM      3  C   UNL     1      -3.700   2.986 127.586  0.00  0.00    +0.000 C 
ATOM      4  C   UNL     1      -5.551   3.907 127.451  0.00  0.00    +0.000 C 
ATOM      5  C   UNL     1      -5.018   2.835 126.836  0.00  0.00    +0.000 C 
ATOM      6  C   UNL     1      -5.353   2.251 125.515  0.00  0.00    +0.000 C 
ATOM      7  C   UNL     1      -5.358   2.097 128.537  0.00  0.00    +0.000 C 
ATOM      8  C   UNL     1      -5.099   3.268 129.773  0.00  0.00    +0.000 C 
ATOM      9  C   UNL     1      -3.761   4.253 129.743  0.00  0.00    +0.000 C 
ATOM     10  C   UNL     1      -3.612   5.155 128.293  0.00  0.00    +0.000 C 
ATOM     11  C   UNL     1      -2.282   5.880 128.251  0.00  0.00    +0.000 C 
ATOM     12  C   UNL     1      -2.022   6.683 129.503  0.00  0.00    +0.000 C 
ATOM     13  C   UNL     1      -2.195   5.957 130.810  0.00  0.00    +0.000 C 
ATOM     14  C   UNL     1      -1.341   6.086 131.842  0.00  0.00    +0.000 C 
ATOM     15  C   UNL     1      -1.807   5.407 133.081  0.00  0.00    +0.000 C 
ATOM     16  O   UNL     1      -2.269   5.921 134.089  0.00  0.00    +0.000 OA
ATOM     17  C   UNL     1      -1.823   3.912 132.913  0.00  0.00    +0.000 C 
ATOM     18  C   UNL     1      -2.975   4.010 132.196  0.00  0.00    +0.000 C 
ATOM     19  C   UNL     1      -3.429   5.073 131.027  0.00  0.00    +0.000 C 
ATOM     20  C   UNL     1      -4.615   6.036 131.174  0.00  0.00    +0.000 C 
ENDROOT
BRANCH   4  21
ATOM     21  O   UNL     1      -5.786   4.946 126.394  0.00  0.00    +0.000 OA
ATOM     22  H   UNL     1      -5.176   4.901 125.646  0.00  0.00    +0.000 HD
ENDBRANCH   4  21
BRANCH   4  23
ATOM     23  C   UNL     1      -7.327   3.342 127.349  0.00  0.00    +0.000 C 
ATOM     24  O   UNL     1      -8.291   4.044 127.693  0.00  0.00    +0.000 OA
BRANCH  23  25
ATOM     25  C   UNL     1      -7.802   1.858 126.909  0.00  0.00    +0.000 C 
BRANCH  25  26
ATOM     26  O   UNL     1      -9.112   1.759 126.200  0.00  0.00    +0.000 OA
BRANCH  26  27
ATOM     27  P   UNL     1      -9.115   2.062 124.599  0.00  0.00    +0.000 P 
ATOM     28  O   UNL     1      -8.167   1.408 123.657  0.00  0.00    +0.000 OA
BRANCH  27  29
ATOM     29  O   UNL     1     -10.651   1.701 124.380  0.00  0.00    +0.000 OA
ATOM     30  H   UNL     1     -10.698   1.356 123.464  0.00  0.00    +0.000 HD
ENDBRANCH  27  29
BRANCH  27  31
ATOM     31  O   UNL     1      -9.003   3.646 124.710  0.00  0.00    +0.000 OA
ATOM     32  H   UNL     1      -8.827   3.969 123.804  0.00  0.00    +0.000 HD
ENDBRANCH  27  31
ENDBRANCH  26  27
ENDBRANCH  25  26
ENDBRANCH  23  25
ENDBRANCH   4  23
BRANCH   8  33
ATOM     33  O   UNL     1      -6.301   4.074 129.797  0.00  0.00    +0.000 OA
ATOM     34  H   UNL     1      -7.088   3.499 129.823  0.00  0.00    +0.000 HD
ENDBRANCH   8  33
TORSDOF 8
ENDMDL
MODEL 6
REMARK VINA RESULT:      -8.1      2.879      6.686
REMARK  Name = Prednisolone phosphate
REMARK  10 active torsions:
REMARK  status: ('A' for Active; 'I' for Inactive)
REMARK    1  A    between atoms: C_5  and  O_6
REMARK    2  A    between atoms: C_5  and  C_7
REMARK    3  A    between atoms: C_7  and  C_9
REMARK    4  A    between atoms: C_9  and  O_10
REMARK    5  A    between atoms: O_10  and  P_11
REMARK    6  A    between atoms: P_11  and  O_12
REMARK    7  A    between atoms: P_11  and  O_13
REMARK    8  A    between atoms: C_15  and  C_16
REMARK    9  A    between atoms: C_18  and  O_19
REMARK   10  A    between atoms: C_32  and  C_33
REMARK                            x       y       z     vdW  Elec       q    Type
REMARK                         _______ _______ _______ _____ _____    ______ ____
ROOT
ATOM      1  C   UNL     1      -8.098  -3.244 126.243  0.00  0.00    +0.000 C 
ATOM      2  C   UNL     1      -9.411  -3.591 126.650  0.00  0.00    +0.000 C 
ATOM      3  C   UNL     1      -9.161  -2.139 126.351  0.00  0.00    +0.000 C 
ATOM      4  C   UNL     1      -7.502  -1.663 125.205  0.00  0.00    +0.000 C 
ATOM      5  C   UNL     1      -8.747  -2.066 124.886  0.00  0.00    +0.000 C 
ATOM      6  C   UNL     1      -9.217  -2.785 123.678  0.00  0.00    +0.000 C 
ATOM      7  C   UNL     1      -9.097  -0.276 125.366  0.00  0.00    +0.000 C 
ATOM      8  C   UNL     1      -8.081   0.217 126.666  0.00  0.00    +0.000 C 
ATOM      9  C   UNL     1      -7.835  -0.775 127.976  0.00  0.00    +0.000 C 
ATOM     10  C   UNL     1      -7.230  -2.322 127.554  0.00  0.00    +0.000 C 
ATOM     11  C   UNL     1      -7.210  -3.234 128.763  0.00  0.00    +0.000 C 
ATOM     12  C   UNL     1      -6.516  -2.606 129.949  0.00  0.00    +0.000 C 
ATOM     13  C   UNL     1      -6.967  -1.222 130.330  0.00  0.00    +0.000 C 
ATOM     14  C   UNL     1      -7.163  -0.836 131.604  0.00  0.00    +0.000 C 
ATOM     15  C   UNL     1      -7.442   0.619 131.743  0.00  0.00    +0.000 C 
ATOM     16  O   UNL     1      -6.690   1.490 132.154  0.00  0.00    +0.000 OA
ATOM     17  C   UNL     1      -8.768   0.983 131.132  0.00  0.00    +0.000 C 
ATOM     18  C   UNL     1      -8.207   0.921 129.893  0.00  0.00    +0.000 C 
ATOM     19  C   UNL     1      -7.157  -0.161 129.239  0.00  0.00    +0.000 C 
ATOM     20  C   UNL     1      -5.745   0.211 128.764  0.00  0.00    +0.000 C 
ENDROOT
BRANCH   4  21
ATOM     21  O   UNL     1      -6.566  -2.752 124.770  0.00  0.00    +0.000 OA
ATOM     22  H   UNL     1      -6.950  -3.389 124.153  0.00  0.00    +0.000 HD
ENDBRANCH   4  21
BRANCH   4  23
ATOM     23  C   UNL     1      -7.186  -0.706 123.634  0.00  0.00    +0.000 C 
ATOM     24  O   UNL     1      -6.330  -1.028 122.794  0.00  0.00    +0.000 OA
BRANCH  23  25
ATOM     25  C   UNL     1      -7.904   0.690 123.240  0.00  0.00    +0.000 C 
BRANCH  25  26
ATOM     26  O   UNL     1      -7.125   1.937 123.496  0.00  0.00    +0.000 OA
BRANCH  26  27
ATOM     27  P   UNL     1      -7.974   3.293 123.806  0.00  0.00    +0.000 P 
ATOM     28  O   UNL     1      -8.938   3.396 124.935  0.00  0.00    +0.000 OA
BRANCH  27  29
ATOM     29  O   UNL     1      -6.703   4.247 123.908  0.00  0.00    +0.000 OA
ATOM     30  H   UNL     1      -6.495   4.286 124.865  0.00  0.00    +0.000 HD
ENDBRANCH  27  29
BRANCH  27  31
ATOM     31  O   UNL     1      -8.590   3.463 122.348  0.00  0.00    +0.000 OA
ATOM     32  H   UNL     1      -7.907   3.140 121.727  0.00  0.00    +0.000 HD
ENDBRANCH  27  31
ENDBRANCH  26  27
ENDBRANCH  25  26
ENDBRANCH  23  25
ENDBRANCH   4  23
BRANCH   8  33
ATOM     33  O   UNL     1      -6.811   0.549 126.055  0.00  0.00    +0.000 OA
ATOM     34  H   UNL     1      -6.316  -0.266 125.849  0.00  0.00    +0.000 HD
ENDBRANCH   8  33
TORSDOF 8
ENDMDL
MODEL 7
REMARK VINA RESULT:      -8.1      5.883      9.290
REMARK  Name = Prednisolone phosphate
REMARK  10 active torsions:
REMARK  status: ('A' for Active; 'I' for Inactive)
REMARK    1  A    between atoms: C_5  and  O_6
REMARK    2  A    between atoms: C_5  and  C_7
REMARK    3  A    between atoms: C_7  and  C_9
REMARK    4  A    between atoms: C_9  and  O_10
REMARK    5  A    between atoms: O_10  and  P_11
REMARK    6  A    between atoms: P_11  and  O_12
REMARK    7  A    between atoms: P_11  and  O_13
REMARK    8  A    between atoms: C_15  and  C_16
REMARK    9  A    between atoms: C_18  and  O_19
REMARK   10  A    between atoms: C_32  and  C_33
REMARK                            x       y       z     vdW  Elec       q    Type
REMARK                         _______ _______ _______ _____ _____    ______ ____
ROOT
ATOM      1  C   UNL     1      -6.682   3.528 129.403  0.00  0.00    +0.000 C 
ATOM      2  C   UNL     1      -6.326   2.412 130.201  0.00  0.00    +0.000 C 
ATOM      3  C   UNL     1      -6.840   3.623 130.929  0.00  0.00    +0.000 C 
ATOM      4  C   UNL     1      -7.916   5.017 129.838  0.00  0.00    +0.000 C 
ATOM      5  C   UNL     1      -8.260   3.857 130.428  0.00  0.00    +0.000 C 
ATOM      6  C   UNL     1      -9.366   2.929 130.093  0.00  0.00    +0.000 C 
ATOM      7  C   UNL     1      -8.109   4.963 131.949  0.00  0.00    +0.000 C 
ATOM      8  C   UNL     1      -6.833   6.102 131.749  0.00  0.00    +0.000 C 
ATOM      9  C   UNL     1      -5.363   5.633 131.134  0.00  0.00    +0.000 C 
ATOM     10  C   UNL     1      -5.477   4.881 129.597  0.00  0.00    +0.000 C 
ATOM     11  C   UNL     1      -4.136   4.310 129.183  0.00  0.00    +0.000 C 
ATOM     12  C   UNL     1      -3.019   5.321 129.290  0.00  0.00    +0.000 C 
ATOM     13  C   UNL     1      -2.907   6.055 130.599  0.00  0.00    +0.000 C 
ATOM     14  C   UNL     1      -1.732   6.292 131.212  0.00  0.00    +0.000 C 
ATOM     15  C   UNL     1      -1.856   7.177 132.401  0.00  0.00    +0.000 C 
ATOM     16  O   UNL     1      -1.537   8.353 132.496  0.00  0.00    +0.000 OA
ATOM     17  C   UNL     1      -2.619   6.503 133.508  0.00  0.00    +0.000 C 
ATOM     18  C   UNL     1      -3.784   6.753 132.849  0.00  0.00    +0.000 C 
ATOM     19  C   UNL     1      -4.168   6.628 131.257  0.00  0.00    +0.000 C 
ATOM     20  C   UNL     1      -4.587   7.824 130.391  0.00  0.00    +0.000 C 
ENDROOT
BRANCH   4  21
ATOM     21  O   UNL     1      -8.093   4.826 128.361  0.00  0.00    +0.000 OA
ATOM     22  H   UNL     1      -8.946   5.121 128.017  0.00  0.00    +0.000 HD
ENDBRANCH   4  21
BRANCH   4  23
ATOM     23  C   UNL     1      -9.594   5.824 129.976  0.00  0.00    +0.000 C 
ATOM     24  O   UNL     1     -10.469   5.456 130.776  0.00  0.00    +0.000 OA
BRANCH  23  25
ATOM     25  C   UNL     1     -10.134   7.007 129.012  0.00  0.00    +0.000 C 
BRANCH  25  26
ATOM     26  O   UNL     1     -10.066   6.755 127.543  0.00  0.00    +0.000 OA
BRANCH  26  27
ATOM     27  P   UNL     1     -11.108   7.579 126.599  0.00  0.00    +0.000 P 
ATOM     28  O   UNL     1     -10.734   8.104 125.258  0.00  0.00    +0.000 OA
BRANCH  27  29
ATOM     29  O   UNL     1     -12.234   6.453 126.599  0.00  0.00    +0.000 OA
ATOM     30  H   UNL     1     -11.742   5.606 126.602  0.00  0.00    +0.000 HD
ENDBRANCH  27  29
BRANCH  27  31
ATOM     31  O   UNL     1     -11.516   8.670 127.684  0.00  0.00    +0.000 OA
ATOM     32  H   UNL     1     -10.818   8.645 128.368  0.00  0.00    +0.000 HD
ENDBRANCH  27  31
ENDBRANCH  26  27
ENDBRANCH  25  26
ENDBRANCH  23  25
ENDBRANCH   4  23
BRANCH   8  33
ATOM     33  O   UNL     1      -7.389   7.163 130.938  0.00  0.00    +0.000 OA
ATOM     34  H   UNL     1      -7.258   6.965 129.993  0.00  0.00    +0.000 HD
ENDBRANCH   8  33
TORSDOF 8
ENDMDL
MODEL 8
REMARK VINA RESULT:      -8.0      7.098      9.515
REMARK  Name = Prednisolone phosphate
REMARK  10 active torsions:
REMARK  status: ('A' for Active; 'I' for Inactive)
REMARK    1  A    between atoms: C_5  and  O_6
REMARK    2  A    between atoms: C_5  and  C_7
REMARK    3  A    between atoms: C_7  and  C_9
REMARK    4  A    between atoms: C_9  and  O_10
REMARK    5  A    between atoms: O_10  and  P_11
REMARK    6  A    between atoms: P_11  and  O_12
REMARK    7  A    between atoms: P_11  and  O_13
REMARK    8  A    between atoms: C_15  and  C_16
REMARK    9  A    between atoms: C_18  and  O_19
REMARK   10  A    between atoms: C_32  and  C_33
REMARK                            x       y       z     vdW  Elec       q    Type
REMARK                         _______ _______ _______ _____ _____    ______ ____
ROOT
ATOM      1  C   UNL     1      -7.676   4.563 133.175  0.00  0.00    +0.000 C 
ATOM      2  C   UNL     1      -7.858   5.467 134.251  0.00  0.00    +0.000 C 
ATOM      3  C   UNL     1      -7.565   6.072 132.906  0.00  0.00    +0.000 C 
ATOM      4  C   UNL     1      -7.882   4.894 131.231  0.00  0.00    +0.000 C 
ATOM      5  C   UNL     1      -8.703   5.648 131.985  0.00  0.00    +0.000 C 
ATOM      6  C   UNL     1     -10.164   5.512 132.201  0.00  0.00    +0.000 C 
ATOM      7  C   UNL     1      -7.805   7.003 131.029  0.00  0.00    +0.000 C 
ATOM      8  C   UNL     1      -6.159   6.572 130.763  0.00  0.00    +0.000 C 
ATOM      9  C   UNL     1      -5.243   5.917 131.985  0.00  0.00    +0.000 C 
ATOM     10  C   UNL     1      -5.927   4.499 132.663  0.00  0.00    +0.000 C 
ATOM     11  C   UNL     1      -5.149   4.066 133.889  0.00  0.00    +0.000 C 
ATOM     12  C   UNL     1      -3.665   3.965 133.625  0.00  0.00    +0.000 C 
ATOM     13  C   UNL     1      -3.021   5.161 132.976  0.00  0.00    +0.000 C 
ATOM     14  C   UNL     1      -1.828   5.654 133.360  0.00  0.00    +0.000 C 
ATOM     15  C   UNL     1      -1.319   6.728 132.467  0.00  0.00    +0.000 C 
ATOM     16  O   UNL     1      -0.423   6.652 131.639  0.00  0.00    +0.000 OA
ATOM     17  C   UNL     1      -2.174   7.962 132.551  0.00  0.00    +0.000 C 
ATOM     18  C   UNL     1      -3.109   7.362 131.765  0.00  0.00    +0.000 C 
ATOM     19  C   UNL     1      -3.700   5.829 131.775  0.00  0.00    +0.000 C 
ATOM     20  C   UNL     1      -3.538   4.851 130.602  0.00  0.00    +0.000 C 
ENDROOT
BRANCH   4  21
ATOM     21  O   UNL     1      -8.319   3.468 131.400  0.00  0.00    +0.000 OA
ATOM     22  H   UNL     1      -7.713   2.922 131.917  0.00  0.00    +0.000 HD
ENDBRANCH   4  21
BRANCH   4  23
ATOM     23  C   UNL     1      -8.857   5.048 129.647  0.00  0.00    +0.000 C 
ATOM     24  O   UNL     1      -8.794   4.225 128.720  0.00  0.00    +0.000 OA
BRANCH  23  25
ATOM     25  C   UNL     1      -9.798   6.306 129.258  0.00  0.00    +0.000 C 
BRANCH  25  26
ATOM     26  O   UNL     1      -9.999   6.565 127.802  0.00  0.00    +0.000 OA
BRANCH  26  27
ATOM     27  P   UNL     1     -11.163   7.628 127.391  0.00  0.00    +0.000 P 
ATOM     28  O   UNL     1     -11.458   8.847 128.194  0.00  0.00    +0.000 OA
BRANCH  27  29
ATOM     29  O   UNL     1     -10.610   7.899 125.922  0.00  0.00    +0.000 OA
ATOM     30  H   UNL     1     -11.301   7.544 125.325  0.00  0.00    +0.000 HD
ENDBRANCH  27  29
BRANCH  27  31
ATOM     31  O   UNL     1     -12.347   6.570 127.274  0.00  0.00    +0.000 OA
ATOM     32  H   UNL     1     -12.250   6.153 126.395  0.00  0.00    +0.000 HD
ENDBRANCH  27  31
ENDBRANCH  26  27
ENDBRANCH  25  26
ENDBRANCH  23  25
ENDBRANCH   4  23
BRANCH   8  33
ATOM     33  O   UNL     1      -6.176   5.675 129.627  0.00  0.00    +0.000 OA
ATOM     34  H   UNL     1      -6.610   6.105 128.868  0.00  0.00    +0.000 HD
ENDBRANCH   8  33
TORSDOF 8
ENDMDL
MODEL 9
REMARK VINA RESULT:      -7.7      3.331      4.867
REMARK  Name = Prednisolone phosphate
REMARK  10 active torsions:
REMARK  status: ('A' for Active; 'I' for Inactive)
REMARK    1  A    between atoms: C_5  and  O_6
REMARK    2  A    between atoms: C_5  and  C_7
REMARK    3  A    between atoms: C_7  and  C_9
REMARK    4  A    between atoms: C_9  and  O_10
REMARK    5  A    between atoms: O_10  and  P_11
REMARK    6  A    between atoms: P_11  and  O_12
REMARK    7  A    between atoms: P_11  and  O_13
REMARK    8  A    between atoms: C_15  and  C_16
REMARK    9  A    between atoms: C_18  and  O_19
REMARK   10  A    between atoms: C_32  and  C_33
REMARK                            x       y       z     vdW  Elec       q    Type
REMARK                         _______ _______ _______ _____ _____    ______ ____
ROOT
ATOM      1  C   UNL     1      -5.200   1.611 127.196  0.00  0.00    +0.000 C 
ATOM      2  C   UNL     1      -4.158   1.649 126.235  0.00  0.00    +0.000 C 
ATOM      3  C   UNL     1      -5.517   2.100 125.773  0.00  0.00    +0.000 C 
ATOM      4  C   UNL     1      -6.897   2.636 127.222  0.00  0.00    +0.000 C 
ATOM      5  C   UNL     1      -5.887   3.303 126.633  0.00  0.00    +0.000 C 
ATOM      6  C   UNL     1      -5.093   4.444 127.148  0.00  0.00    +0.000 C 
ATOM      7  C   UNL     1      -7.148   3.320 125.232  0.00  0.00    +0.000 C 
ATOM      8  C   UNL     1      -8.054   1.856 125.208  0.00  0.00    +0.000 C 
ATOM      9  C   UNL     1      -7.299   0.387 125.390  0.00  0.00    +0.000 C 
ATOM     10  C   UNL     1      -6.378   0.269 126.830  0.00  0.00    +0.000 C 
ATOM     11  C   UNL     1      -5.568  -1.012 126.842  0.00  0.00    +0.000 C 
ATOM     12  C   UNL     1      -6.411  -2.231 126.551  0.00  0.00    +0.000 C 
ATOM     13  C   UNL     1      -7.286  -2.161 125.329  0.00  0.00    +0.000 C 
ATOM     14  C   UNL     1      -7.429  -3.184 124.466  0.00  0.00    +0.000 C 
ATOM     15  C   UNL     1      -8.470  -2.943 123.432  0.00  0.00    +0.000 C 
ATOM     16  O   UNL     1      -9.590  -3.429 123.368  0.00  0.00    +0.000 OA
ATOM     17  C   UNL     1      -8.066  -1.838 122.495  0.00  0.00    +0.000 C 
ATOM     18  C   UNL     1      -8.394  -0.920 123.444  0.00  0.00    +0.000 C 
ATOM     19  C   UNL     1      -8.118  -0.900 125.064  0.00  0.00    +0.000 C 
ATOM     20  C   UNL     1      -9.238  -0.908 126.113  0.00  0.00    +0.000 C 
ENDROOT
BRANCH   4  21
ATOM     21  O   UNL     1      -6.541   2.495 128.673  0.00  0.00    +0.000 OA
ATOM     22  H   UNL     1      -6.836   3.226 129.232  0.00  0.00    +0.000 HD
ENDBRANCH   4  21
BRANCH   4  23
ATOM     23  C   UNL     1      -7.950   4.134 127.584  0.00  0.00    +0.000 C 
ATOM     24  O   UNL     1      -8.392   4.891 126.705  0.00  0.00    +0.000 OA
BRANCH  23  25
ATOM     25  C   UNL     1      -8.313   4.674 129.067  0.00  0.00    +0.000 C 
BRANCH  25  26
ATOM     26  O   UNL     1      -9.757   4.667 129.444  0.00  0.00    +0.000 OA
BRANCH  26  27
ATOM     27  P   UNL     1     -10.444   6.107 129.778  0.00  0.00    +0.000 P 
ATOM     28  O   UNL     1     -10.298   6.780 131.097  0.00  0.00    +0.000 OA
BRANCH  27  29
ATOM     29  O   UNL     1      -9.790   6.875 128.546  0.00  0.00    +0.000 OA
ATOM     30  H   UNL     1     -10.428   7.586 128.326  0.00  0.00    +0.000 HD
ENDBRANCH  27  29
BRANCH  27  31
ATOM     31  O   UNL     1     -11.927   5.704 129.363  0.00  0.00    +0.000 OA
ATOM     32  H   UNL     1     -12.505   6.419 129.698  0.00  0.00    +0.000 HD
ENDBRANCH  27  31
ENDBRANCH  26  27
ENDBRANCH  25  26
ENDBRANCH  23  25
ENDBRANCH   4  23
BRANCH   8  33
ATOM     33  O   UNL     1      -9.069   2.016 126.227  0.00  0.00    +0.000 OA
ATOM     34  H   UNL     1      -8.689   2.452 127.012  0.00  0.00    +0.000 HD
ENDBRANCH   8  33
TORSDOF 8
ENDMDL
