MODEL 1
REMARK VINA RESULT:      -8.5      0.000      0.000
REMARK  Name = Prednisolone acetate
REMARK  9 active torsions:
REMARK  status: ('A' for Active; 'I' for Inactive)
REMARK    1  A    between atoms: C_5  and  O_6
REMARK    2  A    between atoms: C_5  and  C_7
REMARK    3  A    between atoms: C_7  and  C_9
REMARK    4  A    between atoms: C_9  and  O_10
REMARK    5  A    between atoms: O_10  and  C_11
REMARK    6  A    between atoms: C_11  and  C_12
REMARK    7  A    between atoms: C_14  and  C_15
REMARK    8  A    between atoms: C_17  and  O_19
REMARK    9  A    between atoms: C_32  and  C_33
REMARK                            x       y       z     vdW  Elec       q    Type
REMARK                         _______ _______ _______ _____ _____    ______ ____
ROOT
ATOM      1  C   UNL     1      -6.928  -3.280 130.517  0.00  0.00    +0.000 C 
ATOM      2  C   UNL     1      -6.174  -4.475 130.394  0.00  0.00    +0.000 C 
ATOM      3  C   UNL     1      -5.557  -3.225 129.828  0.00  0.00    +0.000 C 
ATOM      4  C   UNL     1      -6.302  -1.405 130.481  0.00  0.00    +0.000 C 
ATOM      5  C   UNL     1      -5.389  -2.255 130.999  0.00  0.00    +0.000 C 
ATOM      6  C   UNL     1      -4.981  -2.464 132.407  0.00  0.00    +0.000 C 
ATOM      7  C   UNL     1      -4.359  -1.501 129.613  0.00  0.00    +0.000 C 
ATOM      8  C   UNL     1      -5.340  -1.167 128.239  0.00  0.00    +0.000 C 
ATOM      9  C   UNL     1      -6.455  -2.277 127.698  0.00  0.00    +0.000 C 
ATOM     10  C   UNL     1      -7.584  -2.750 128.899  0.00  0.00    +0.000 C 
ATOM     11  C   UNL     1      -8.443  -3.895 128.402  0.00  0.00    +0.000 C 
ATOM     12  C   UNL     1      -9.064  -3.605 127.056  0.00  0.00    +0.000 C 
ATOM     13  C   UNL     1      -8.129  -3.129 125.979  0.00  0.00    +0.000 C 
ATOM     14  C   UNL     1      -8.185  -3.572 124.709  0.00  0.00    +0.000 C 
ATOM     15  C   UNL     1      -7.277  -2.836 123.788  0.00  0.00    +0.000 C 
ATOM     16  O   UNL     1      -7.579  -1.999 122.951  0.00  0.00    +0.000 OA
ATOM     17  C   UNL     1      -5.833  -3.103 124.116  0.00  0.00    +0.000 C 
ATOM     18  C   UNL     1      -5.918  -2.246 125.168  0.00  0.00    +0.000 C 
ATOM     19  C   UNL     1      -7.095  -2.041 126.296  0.00  0.00    +0.000 C 
ATOM     20  C   UNL     1      -7.894  -0.740 126.461  0.00  0.00    +0.000 C 
ENDROOT
BRANCH   4  21
ATOM     21  O   UNL     1      -7.463  -1.376 131.430  0.00  0.00    +0.000 OA
ATOM     22  H   UNL     1      -7.217  -1.465 132.358  0.00  0.00    +0.000 HD
ENDBRANCH   4  21
BRANCH   4  23
ATOM     23  C   UNL     1      -5.605   0.152 131.233  0.00  0.00    +0.000 C 
ATOM     24  O   UNL     1      -4.436   0.520 131.027  0.00  0.00    +0.000 OA
BRANCH  23  25
ATOM     25  C   UNL     1      -6.369   1.122 132.327  0.00  0.00    +0.000 C 
BRANCH  25  26
ATOM     26  O   UNL     1      -7.669   1.625 131.737  0.00  0.00    +0.000 OA
BRANCH  26  27
ATOM     27  C   UNL     1      -8.943   1.607 132.222  0.00  0.00    +0.000 C 
ATOM     28  C   UNL     1      -9.420   2.752 133.063  0.00  0.00    +0.000 C 
ATOM     29  O   UNL     1      -9.713   0.673 131.993  0.00  0.00    +0.000 OA
ENDBRANCH  26  27
ENDBRANCH  25  26
ENDBRANCH  23  25
ENDBRANCH   4  23
BRANCH   8  30
ATOM     30  O   UNL     1      -6.001   0.084 128.530  0.00  0.00    +0.000 OA
ATOM     31  H   UNL     1      -5.539   0.551 129.249  0.00  0.00    +0.000 HD
ENDBRANCH   8  30
TORSDOF 6
ENDMDL
MODEL 2
REMARK VINA RESULT:      -8.5      1.351      2.296
REMARK  Name = Prednisolone acetate
REMARK  9 active torsions:
REMARK  status: ('A' for Active; 'I' for Inactive)
REMARK    1  A    between atoms: C_5  and  O_6
REMARK    2  A    between atoms: C_5  and  C_7
REMARK    3  A    between atoms: C_7  and  C_9
REMARK    4  A    between atoms: C_9  and  O_10
REMARK    5  A    between atoms: O_10  and  C_11
REMARK    6  A    between atoms: C_11  and  C_12
REMARK    7  A    between atoms: C_14  and  C_15
REMARK    8  A    between atoms: C_17  and  O_19
REMARK    9  A    between atoms: C_32  and  C_33
REMARK                            x       y       z     vdW  Elec       q    Type
REMARK                         _______ _______ _______ _____ _____    ______ ____
ROOT
ATOM      1  C   UNL     1      -7.132  -3.090 130.423  0.00  0.00    +0.000 C 
ATOM      2  C   UNL     1      -6.311  -4.244 130.347  0.00  0.00    +0.000 C 
ATOM      3  C   UNL     1      -5.744  -2.973 129.777  0.00  0.00    +0.000 C 
ATOM      4  C   UNL     1      -6.608  -1.185 130.371  0.00  0.00    +0.000 C 
ATOM      5  C   UNL     1      -5.668  -1.974 130.934  0.00  0.00    +0.000 C 
ATOM      6  C   UNL     1      -5.296  -2.137 132.359  0.00  0.00    +0.000 C 
ATOM      7  C   UNL     1      -4.634  -1.190 129.569  0.00  0.00    +0.000 C 
ATOM      8  C   UNL     1      -5.586  -0.934 128.157  0.00  0.00    +0.000 C 
ATOM      9  C   UNL     1      -6.621  -2.112 127.601  0.00  0.00    +0.000 C 
ATOM     10  C   UNL     1      -7.762  -2.625 128.774  0.00  0.00    +0.000 C 
ATOM     11  C   UNL     1      -8.540  -3.824 128.272  0.00  0.00    +0.000 C 
ATOM     12  C   UNL     1      -9.131  -3.592 126.901  0.00  0.00    +0.000 C 
ATOM     13  C   UNL     1      -8.188  -3.084 125.846  0.00  0.00    +0.000 C 
ATOM     14  C   UNL     1      -8.177  -3.551 124.584  0.00  0.00    +0.000 C 
ATOM     15  C   UNL     1      -7.280  -2.783 123.679  0.00  0.00    +0.000 C 
ATOM     16  O   UNL     1      -7.599  -1.978 122.816  0.00  0.00    +0.000 OA
ATOM     17  C   UNL     1      -5.836  -2.964 124.058  0.00  0.00    +0.000 C 
ATOM     18  C   UNL     1      -6.002  -2.095 125.090  0.00  0.00    +0.000 C 
ATOM     19  C   UNL     1      -7.226  -1.935 126.175  0.00  0.00    +0.000 C 
ATOM     20  C   UNL     1      -8.099  -0.678 126.290  0.00  0.00    +0.000 C 
ENDROOT
BRANCH   4  21
ATOM     21  O   UNL     1      -7.799  -1.203 131.281  0.00  0.00    +0.000 OA
ATOM     22  H   UNL     1      -8.617  -0.902 130.868  0.00  0.00    +0.000 HD
ENDBRANCH   4  21
BRANCH   4  23
ATOM     23  C   UNL     1      -6.021   0.420 131.116  0.00  0.00    +0.000 C 
ATOM     24  O   UNL     1      -6.807   1.327 131.437  0.00  0.00    +0.000 OA
BRANCH  23  25
ATOM     25  C   UNL     1      -4.447   0.876 131.309  0.00  0.00    +0.000 C 
BRANCH  25  26
ATOM     26  O   UNL     1      -4.285   2.324 130.897  0.00  0.00    +0.000 OA
BRANCH  26  27
ATOM     27  C   UNL     1      -4.000   2.889 129.689  0.00  0.00    +0.000 C 
ATOM     28  C   UNL     1      -3.340   4.234 129.650  0.00  0.00    +0.000 C 
ATOM     29  O   UNL     1      -4.273   2.327 128.627  0.00  0.00    +0.000 OA
ENDBRANCH  26  27
ENDBRANCH  25  26
ENDBRANCH  23  25
ENDBRANCH   4  23
BRANCH   8  30
ATOM     30  O   UNL     1      -6.323   0.285 128.403  0.00  0.00    +0.000 OA
ATOM     31  H   UNL     1      -7.188   0.081 128.803  0.00  0.00    +0.000 HD
ENDBRANCH   8  30
TORSDOF 6
ENDMDL
MODEL 3
REMARK VINA RESULT:      -8.3      5.993      9.448
REMARK  Name = Prednisolone acetate
REMARK  9 active torsions:
REMARK  status: ('A' for Active; 'I' for Inactive)
REMARK    1  A    between atoms: C_5  and  O_6
REMARK    2  A    between atoms: C_5  and  C_7
REMARK    3  A    between atoms: C_7  and  C_9
REMARK    4  A    between atoms: C_9  and  O_10
REMARK    5  A    between atoms: O_10  and  C_11
REMARK    6  A    between atoms: C_11  and  C_12
REMARK    7  A    between atoms: C_14  and  C_15
REMARK    8  A    between atoms: C_17  and  O_19
REMARK    9  A    between atoms: C_32  and  C_33
REMARK                            x       y       z     vdW  Elec       q    Type
REMARK                         _______ _______ _______ _____ _____    ______ ____
ROOT
ATOM      1  C   UNL     1      -6.385   3.516 129.566  0.00  0.00    +0.000 C 
ATOM      2  C   UNL     1      -6.089   2.467 130.472  0.00  0.00    +0.000 C 
ATOM      3  C   UNL     1      -6.638   3.735 131.065  0.00  0.00    +0.000 C 
ATOM      4  C   UNL     1      -7.620   5.043 129.791  0.00  0.00    +0.000 C 
ATOM      5  C   UNL     1      -8.025   3.936 130.451  0.00  0.00    +0.000 C 
ATOM      6  C   UNL     1      -9.111   2.982 130.125  0.00  0.00    +0.000 C 
ATOM      7  C   UNL     1      -7.969   5.150 131.891  0.00  0.00    +0.000 C 
ATOM      8  C   UNL     1      -6.675   6.268 131.693  0.00  0.00    +0.000 C 
ATOM      9  C   UNL     1      -5.168   5.751 131.212  0.00  0.00    +0.000 C 
ATOM     10  C   UNL     1      -5.186   4.882 129.733  0.00  0.00    +0.000 C 
ATOM     11  C   UNL     1      -3.825   4.279 129.452  0.00  0.00    +0.000 C 
ATOM     12  C   UNL     1      -2.713   5.297 129.553  0.00  0.00    +0.000 C 
ATOM     13  C   UNL     1      -2.683   6.130 130.805  0.00  0.00    +0.000 C 
ATOM     14  C   UNL     1      -1.550   6.413 131.472  0.00  0.00    +0.000 C 
ATOM     15  C   UNL     1      -1.745   7.390 132.577  0.00  0.00    +0.000 C 
ATOM     16  O   UNL     1      -1.426   8.569 132.598  0.00  0.00    +0.000 OA
ATOM     17  C   UNL     1      -2.582   6.805 133.682  0.00  0.00    +0.000 C 
ATOM     18  C   UNL     1      -3.700   7.004 132.933  0.00  0.00    +0.000 C 
ATOM     19  C   UNL     1      -3.981   6.755 131.334  0.00  0.00    +0.000 C 
ATOM     20  C   UNL     1      -4.336   7.879 130.350  0.00  0.00    +0.000 C 
ENDROOT
BRANCH   4  21
ATOM     21  O   UNL     1      -7.698   4.734 128.326  0.00  0.00    +0.000 OA
ATOM     22  H   UNL     1      -8.570   4.871 127.939  0.00  0.00    +0.000 HD
ENDBRANCH   4  21
BRANCH   4  23
ATOM     23  C   UNL     1      -9.283   5.886 129.736  0.00  0.00    +0.000 C 
ATOM     24  O   UNL     1      -9.602   6.657 128.817  0.00  0.00    +0.000 OA
BRANCH  23  25
ATOM     25  C   UNL     1     -10.435   5.825 130.914  0.00  0.00    +0.000 C 
BRANCH  25  26
ATOM     26  O   UNL     1     -11.771   6.242 130.339  0.00  0.00    +0.000 OA
BRANCH  26  27
ATOM     27  C   UNL     1     -12.600   7.279 130.649  0.00  0.00    +0.000 C 
ATOM     28  C   UNL     1     -12.608   8.495 129.772  0.00  0.00    +0.000 C 
ATOM     29  O   UNL     1     -13.340   7.249 131.634  0.00  0.00    +0.000 OA
ENDBRANCH  26  27
ENDBRANCH  25  26
ENDBRANCH  23  25
ENDBRANCH   4  23
BRANCH   8  30
ATOM     30  O   UNL     1      -7.163   7.267 130.771  0.00  0.00    +0.000 OA
ATOM     31  H   UNL     1      -7.714   6.852 130.083  0.00  0.00    +0.000 HD
ENDBRANCH   8  30
TORSDOF 6
ENDMDL
MODEL 4
REMARK VINA RESULT:      -8.1      2.863      6.682
REMARK  Name = Prednisolone acetate
REMARK  9 active torsions:
REMARK  status: ('A' for Active; 'I' for Inactive)
REMARK    1  A    between atoms: C_5  and  O_6
REMARK    2  A    between atoms: C_5  and  C_7
REMARK    3  A    between atoms: C_7  and  C_9
REMARK    4  A    between atoms: C_9  and  O_10
REMARK    5  A    between atoms: O_10  and  C_11
REMARK    6  A    between atoms: C_11  and  C_12
REMARK    7  A    between atoms: C_14  and  C_15
REMARK    8  A    between atoms: C_17  and  O_19
REMARK    9  A    between atoms: C_32  and  C_33
REMARK                            x       y       z     vdW  Elec       q    Type
REMARK                         _______ _______ _______ _____ _____    ______ ____
ROOT
ATOM      1  C   UNL     1      -5.463   2.143 127.027  0.00  0.00    +0.000 C 
ATOM      2  C   UNL     1      -4.176   2.171 126.433  0.00  0.00    +0.000 C 
ATOM      3  C   UNL     1      -5.009   0.944 126.182  0.00  0.00    +0.000 C 
ATOM      4  C   UNL     1      -7.052   1.088 126.506  0.00  0.00    +0.000 C 
ATOM      5  C   UNL     1      -6.269   1.417 125.455  0.00  0.00    +0.000 C 
ATOM      6  C   UNL     1      -6.480   2.434 124.398  0.00  0.00    +0.000 C 
ATOM      7  C   UNL     1      -6.286  -0.456 125.253  0.00  0.00    +0.000 C 
ATOM      8  C   UNL     1      -6.314  -1.232 126.790  0.00  0.00    +0.000 C 
ATOM      9  C   UNL     1      -5.326  -0.714 128.024  0.00  0.00    +0.000 C 
ATOM     10  C   UNL     1      -5.523   0.947 128.403  0.00  0.00    +0.000 C 
ATOM     11  C   UNL     1      -4.469   1.397 129.393  0.00  0.00    +0.000 C 
ATOM     12  C   UNL     1      -4.395   0.495 130.603  0.00  0.00    +0.000 C 
ATOM     13  C   UNL     1      -4.281  -0.979 130.331  0.00  0.00    +0.000 C 
ATOM     14  C   UNL     1      -3.450  -1.790 131.011  0.00  0.00    +0.000 C 
ATOM     15  C   UNL     1      -3.633  -3.230 130.684  0.00  0.00    +0.000 C 
ATOM     16  O   UNL     1      -4.175  -4.088 131.365  0.00  0.00    +0.000 OA
ATOM     17  C   UNL     1      -3.218  -3.526 129.269  0.00  0.00    +0.000 C 
ATOM     18  C   UNL     1      -4.383  -2.988 128.819  0.00  0.00    +0.000 C 
ATOM     19  C   UNL     1      -5.188  -1.630 129.278  0.00  0.00    +0.000 C 
ATOM     20  C   UNL     1      -6.596  -1.645 129.891  0.00  0.00    +0.000 C 
ENDROOT
BRANCH   4  21
ATOM     21  O   UNL     1      -7.630   2.365 127.039  0.00  0.00    +0.000 OA
ATOM     22  H   UNL     1      -7.922   2.981 126.357  0.00  0.00    +0.000 HD
ENDBRANCH   4  21
BRANCH   4  23
ATOM     23  C   UNL     1      -8.603   0.753 125.529  0.00  0.00    +0.000 C 
ATOM     24  O   UNL     1      -9.737   0.918 126.010  0.00  0.00    +0.000 OA
BRANCH  23  25
ATOM     25  C   UNL     1      -8.669   0.097 124.017  0.00  0.00    +0.000 C 
BRANCH  25  26
ATOM     26  O   UNL     1      -9.518  -1.156 124.045  0.00  0.00    +0.000 OA
BRANCH  26  27
ATOM     27  C   UNL     1      -9.317  -2.364 124.642  0.00  0.00    +0.000 C 
ATOM     28  C   UNL     1      -8.411  -3.362 123.986  0.00  0.00    +0.000 C 
ATOM     29  O   UNL     1      -9.865  -2.663 125.706  0.00  0.00    +0.000 OA
ENDBRANCH  26  27
ENDBRANCH  25  26
ENDBRANCH  23  25
ENDBRANCH   4  23
BRANCH   8  30
ATOM     30  O   UNL     1      -7.692  -1.191 127.220  0.00  0.00    +0.000 OA
ATOM     31  H   UNL     1      -8.281  -1.472 126.496  0.00  0.00    +0.000 HD
ENDBRANCH   8  30
TORSDOF 6
ENDMDL
MODEL 5
REMARK VINA RESULT:      -8.1      1.361      2.429
REMARK  Name = Prednisolone acetate
REMARK  9 active torsions:
REMARK  status: ('A' for Active; 'I' for Inactive)
REMARK    1  A    between atoms: C_5  and  O_6
REMARK    2  A    between atoms: C_5  and  C_7
REMARK    3  A    between atoms: C_7  and  C_9
REMARK    4  A    between atoms: C_9  and  O_10
REMARK    5  A    between atoms: O_10  and  C_11
REMARK    6  A    between atoms: C_11  and  C_12
REMARK    7  A    between atoms: C_14  and  C_15
REMARK    8  A    between atoms: C_17  and  O_19
REMARK    9  A    between atoms: C_32  and  C_33
REMARK                            x       y       z     vdW  Elec       q    Type
REMARK                         _______ _______ _______ _____ _____    ______ ____
ROOT
ATOM      1  C   UNL     1      -7.042  -3.254 130.447  0.00  0.00    +0.000 C 
ATOM      2  C   UNL     1      -6.276  -4.442 130.334  0.00  0.00    +0.000 C 
ATOM      3  C   UNL     1      -5.653  -3.183 129.797  0.00  0.00    +0.000 C 
ATOM      4  C   UNL     1      -6.430  -1.374 130.446  0.00  0.00    +0.000 C 
ATOM      5  C   UNL     1      -5.525  -2.223 130.981  0.00  0.00    +0.000 C 
ATOM      6  C   UNL     1      -5.155  -2.443 132.398  0.00  0.00    +0.000 C 
ATOM      7  C   UNL     1      -4.462  -1.449 129.632  0.00  0.00    +0.000 C 
ATOM      8  C   UNL     1      -5.406  -1.109 128.234  0.00  0.00    +0.000 C 
ATOM      9  C   UNL     1      -6.497  -2.221 127.651  0.00  0.00    +0.000 C 
ATOM     10  C   UNL     1      -7.656  -2.714 128.816  0.00  0.00    +0.000 C 
ATOM     11  C   UNL     1      -8.492  -3.860 128.284  0.00  0.00    +0.000 C 
ATOM     12  C   UNL     1      -9.077  -3.562 126.924  0.00  0.00    +0.000 C 
ATOM     13  C   UNL     1      -8.116  -3.069 125.878  0.00  0.00    +0.000 C 
ATOM     14  C   UNL     1      -8.133  -3.499 124.603  0.00  0.00    +0.000 C 
ATOM     15  C   UNL     1      -7.205  -2.749 123.715  0.00  0.00    +0.000 C 
ATOM     16  O   UNL     1      -7.489  -1.905 122.877  0.00  0.00    +0.000 OA
ATOM     17  C   UNL     1      -5.769  -3.008 124.081  0.00  0.00    +0.000 C 
ATOM     18  C   UNL     1      -5.889  -2.162 125.138  0.00  0.00    +0.000 C 
ATOM     19  C   UNL     1      -7.100  -1.976 126.234  0.00  0.00    +0.000 C 
ATOM     20  C   UNL     1      -7.912  -0.683 126.389  0.00  0.00    +0.000 C 
ENDROOT
BRANCH   4  21
ATOM     21  O   UNL     1      -7.617  -1.363 131.362  0.00  0.00    +0.000 OA
ATOM     22  H   UNL     1      -8.373  -1.864 131.034  0.00  0.00    +0.000 HD
ENDBRANCH   4  21
BRANCH   4  23
ATOM     23  C   UNL     1      -5.765   0.180 131.232  0.00  0.00    +0.000 C 
ATOM     24  O   UNL     1      -6.505   1.118 131.572  0.00  0.00    +0.000 OA
BRANCH  23  25
ATOM     25  C   UNL     1      -4.171   0.549 131.443  0.00  0.00    +0.000 C 
BRANCH  25  26
ATOM     26  O   UNL     1      -3.939   0.998 132.869  0.00  0.00    +0.000 OA
BRANCH  26  27
ATOM     27  C   UNL     1      -3.356   0.368 133.928  0.00  0.00    +0.000 C 
ATOM     28  C   UNL     1      -2.241  -0.602 133.676  0.00  0.00    +0.000 C 
ATOM     29  O   UNL     1      -3.723   0.568 135.087  0.00  0.00    +0.000 OA
ENDBRANCH  26  27
ENDBRANCH  25  26
ENDBRANCH  23  25
ENDBRANCH   4  23
BRANCH   8  30
ATOM     30  O   UNL     1      -6.085   0.135 128.518  0.00  0.00    +0.000 OA
ATOM     31  H   UNL     1      -5.461   0.781 128.899  0.00  0.00    +0.000 HD
ENDBRANCH   8  30
TORSDOF 6
ENDMDL
MODEL 6
REMARK VINA RESULT:      -7.8      2.741      6.267
REMARK  Name = Prednisolone acetate
REMARK  9 active torsions:
REMARK  status: ('A' for Active; 'I' for Inactive)
REMARK    1  A    between atoms: C_5  and  O_6
REMARK    2  A    between atoms: C_5  and  C_7
REMARK    3  A    between atoms: C_7  and  C_9
REMARK    4  A    between atoms: C_9  and  O_10
REMARK    5  A    between atoms: O_10  and  C_11
REMARK    6  A    between atoms: C_11  and  C_12
REMARK    7  A    between atoms: C_14  and  C_15
REMARK    8  A    between atoms: C_17  and  O_19
REMARK    9  A    between atoms: C_32  and  C_33
REMARK                            x       y       z     vdW  Elec       q    Type
REMARK                         _______ _______ _______ _____ _____    ______ ____
ROOT
ATOM      1  C   UNL     1      -6.499  -2.725 129.571  0.00  0.00    +0.000 C 
ATOM      2  C   UNL     1      -7.628  -3.478 129.158  0.00  0.00    +0.000 C 
ATOM      3  C   UNL     1      -7.862  -2.435 130.217  0.00  0.00    +0.000 C 
ATOM      4  C   UNL     1      -6.437  -0.945 130.429  0.00  0.00    +0.000 C 
ATOM      5  C   UNL     1      -7.487  -1.090 129.592  0.00  0.00    +0.000 C 
ATOM      6  C   UNL     1      -7.702  -0.534 128.236  0.00  0.00    +0.000 C 
ATOM      7  C   UNL     1      -8.410  -0.634 131.170  0.00  0.00    +0.000 C 
ATOM      8  C   UNL     1      -7.618  -1.292 132.549  0.00  0.00    +0.000 C 
ATOM      9  C   UNL     1      -7.061  -2.860 132.545  0.00  0.00    +0.000 C 
ATOM     10  C   UNL     1      -5.981  -3.195 131.256  0.00  0.00    +0.000 C 
ATOM     11  C   UNL     1      -5.664  -4.675 131.198  0.00  0.00    +0.000 C 
ATOM     12  C   UNL     1      -5.216  -5.221 132.533  0.00  0.00    +0.000 C 
ATOM     13  C   UNL     1      -6.095  -4.907 133.711  0.00  0.00    +0.000 C 
ATOM     14  C   UNL     1      -6.408  -5.811 134.657  0.00  0.00    +0.000 C 
ATOM     15  C   UNL     1      -7.147  -5.228 135.809  0.00  0.00    +0.000 C 
ATOM     16  O   UNL     1      -6.719  -4.990 136.929  0.00  0.00    +0.000 OA
ATOM     17  C   UNL     1      -8.518  -4.764 135.400  0.00  0.00    +0.000 C 
ATOM     18  C   UNL     1      -7.969  -3.657 134.832  0.00  0.00    +0.000 C 
ATOM     19  C   UNL     1      -6.622  -3.479 133.907  0.00  0.00    +0.000 C 
ATOM     20  C   UNL     1      -5.408  -2.639 134.330  0.00  0.00    +0.000 C 
ENDROOT
BRANCH   4  21
ATOM     21  O   UNL     1      -5.196  -0.980 129.588  0.00  0.00    +0.000 OA
ATOM     22  H   UNL     1      -4.446  -0.510 129.971  0.00  0.00    +0.000 HD
ENDBRANCH   4  21
BRANCH   4  23
ATOM     23  C   UNL     1      -6.420   0.919 130.439  0.00  0.00    +0.000 C 
ATOM     24  O   UNL     1      -5.364   1.570 130.511  0.00  0.00    +0.000 OA
BRANCH  23  25
ATOM     25  C   UNL     1      -7.747   1.896 130.490  0.00  0.00    +0.000 C 
BRANCH  25  26
ATOM     26  O   UNL     1      -7.645   2.830 131.676  0.00  0.00    +0.000 OA
BRANCH  26  27
ATOM     27  C   UNL     1      -8.040   2.685 132.973  0.00  0.00    +0.000 C 
ATOM     28  C   UNL     1      -9.281   3.382 133.440  0.00  0.00    +0.000 C 
ATOM     29  O   UNL     1      -7.403   1.999 133.774  0.00  0.00    +0.000 OA
ENDBRANCH  26  27
ENDBRANCH  25  26
ENDBRANCH  23  25
ENDBRANCH   4  23
BRANCH   8  30
ATOM     30  O   UNL     1      -6.528  -0.389 132.837  0.00  0.00    +0.000 OA
ATOM     31  H   UNL     1      -6.793   0.254 133.520  0.00  0.00    +0.000 HD
ENDBRANCH   8  30
TORSDOF 6
ENDMDL
MODEL 7
REMARK VINA RESULT:      -7.8      3.821      7.268
REMARK  Name = Prednisolone acetate
REMARK  9 active torsions:
REMARK  status: ('A' for Active; 'I' for Inactive)
REMARK    1  A    between atoms: C_5  and  O_6
REMARK    2  A    between atoms: C_5  and  C_7
REMARK    3  A    between atoms: C_7  and  C_9
REMARK    4  A    between atoms: C_9  and  O_10
REMARK    5  A    between atoms: O_10  and  C_11
REMARK    6  A    between atoms: C_11  and  C_12
REMARK    7  A    between atoms: C_14  and  C_15
REMARK    8  A    between atoms: C_17  and  O_19
REMARK    9  A    between atoms: C_32  and  C_33
REMARK                            x       y       z     vdW  Elec       q    Type
REMARK                         _______ _______ _______ _____ _____    ______ ____
ROOT
ATOM      1  C   UNL     1      -4.577   3.877 126.799  0.00  0.00    +0.000 C 
ATOM      2  C   UNL     1      -3.337   3.452 126.260  0.00  0.00    +0.000 C 
ATOM      3  C   UNL     1      -4.536   2.598 125.951  0.00  0.00    +0.000 C 
ATOM      4  C   UNL     1      -6.410   3.451 126.192  0.00  0.00    +0.000 C 
ATOM      5  C   UNL     1      -5.515   3.487 125.181  0.00  0.00    +0.000 C 
ATOM      6  C   UNL     1      -5.305   4.516 124.137  0.00  0.00    +0.000 C 
ATOM      7  C   UNL     1      -6.180   1.740 124.943  0.00  0.00    +0.000 C 
ATOM      8  C   UNL     1      -6.549   1.018 126.461  0.00  0.00    +0.000 C 
ATOM      9  C   UNL     1      -5.500   1.151 127.746  0.00  0.00    +0.000 C 
ATOM     10  C   UNL     1      -5.117   2.774 128.149  0.00  0.00    +0.000 C 
ATOM     11  C   UNL     1      -4.019   2.820 129.190  0.00  0.00    +0.000 C 
ATOM     12  C   UNL     1      -4.322   1.946 130.385  0.00  0.00    +0.000 C 
ATOM     13  C   UNL     1      -4.721   0.527 130.089  0.00  0.00    +0.000 C 
ATOM     14  C   UNL     1      -4.261  -0.527 130.787  0.00  0.00    +0.000 C 
ATOM     15  C   UNL     1      -4.923  -1.809 130.425  0.00  0.00    +0.000 C 
ATOM     16  O   UNL     1      -5.763  -2.424 131.066  0.00  0.00    +0.000 OA
ATOM     17  C   UNL     1      -4.575  -2.227 129.023  0.00  0.00    +0.000 C 
ATOM     18  C   UNL     1      -5.454  -1.312 128.536  0.00  0.00    +0.000 C 
ATOM     19  C   UNL     1      -5.750   0.241 128.987  0.00  0.00    +0.000 C 
ATOM     20  C   UNL     1      -7.100   0.720 129.540  0.00  0.00    +0.000 C 
ENDROOT
BRANCH   4  21
ATOM     21  O   UNL     1      -6.526   4.848 126.726  0.00  0.00    +0.000 OA
ATOM     22  H   UNL     1      -7.244   4.971 127.358  0.00  0.00    +0.000 HD
ENDBRANCH   4  21
BRANCH   4  23
ATOM     23  C   UNL     1      -7.934   3.687 125.145  0.00  0.00    +0.000 C 
ATOM     24  O   UNL     1      -8.944   4.272 125.570  0.00  0.00    +0.000 OA
BRANCH  23  25
ATOM     25  C   UNL     1      -8.176   3.061 123.638  0.00  0.00    +0.000 C 
BRANCH  25  26
ATOM     26  O   UNL     1      -9.518   2.363 123.589  0.00  0.00    +0.000 OA
BRANCH  26  27
ATOM     27  C   UNL     1      -9.856   1.052 123.746  0.00  0.00    +0.000 C 
ATOM     28  C   UNL     1     -10.155   0.224 122.533  0.00  0.00    +0.000 C 
ATOM     29  O   UNL     1      -9.928   0.527 124.859  0.00  0.00    +0.000 OA
ENDBRANCH  26  27
ENDBRANCH  25  26
ENDBRANCH  23  25
ENDBRANCH   4  23
BRANCH   8  30
ATOM     30  O   UNL     1      -7.843   1.541 126.835  0.00  0.00    +0.000 OA
ATOM     31  H   UNL     1      -8.425   0.819 127.134  0.00  0.00    +0.000 HD
ENDBRANCH   8  30
TORSDOF 6
ENDMDL
MODEL 8
REMARK VINA RESULT:      -7.8      4.496      8.459
REMARK  Name = Prednisolone acetate
REMARK  9 active torsions:
REMARK  status: ('A' for Active; 'I' for Inactive)
REMARK    1  A    between atoms: C_5  and  O_6
REMARK    2  A    between atoms: C_5  and  C_7
REMARK    3  A    between atoms: C_7  and  C_9
REMARK    4  A    between atoms: C_9  and  O_10
REMARK    5  A    between atoms: O_10  and  C_11
REMARK    6  A    between atoms: C_11  and  C_12
REMARK    7  A    between atoms: C_14  and  C_15
REMARK    8  A    between atoms: C_17  and  O_19
REMARK    9  A    between atoms: C_32  and  C_33
REMARK                            x       y       z     vdW  Elec       q    Type
REMARK                         _______ _______ _______ _____ _____    ______ ____
ROOT
ATOM      1  C   UNL     1      -8.135   2.596 131.887  0.00  0.00    +0.000 C 
ATOM      2  C   UNL     1      -9.217   1.683 131.827  0.00  0.00    +0.000 C 
ATOM      3  C   UNL     1      -8.847   2.377 130.545  0.00  0.00    +0.000 C 
ATOM      4  C   UNL     1      -6.965   3.238 130.428  0.00  0.00    +0.000 C 
ATOM      5  C   UNL     1      -7.404   1.975 130.235  0.00  0.00    +0.000 C 
ATOM      6  C   UNL     1      -6.682   0.689 130.377  0.00  0.00    +0.000 C 
ATOM      7  C   UNL     1      -8.023   2.764 128.641  0.00  0.00    +0.000 C 
ATOM      8  C   UNL     1      -8.516   4.390 128.919  0.00  0.00    +0.000 C 
ATOM      9  C   UNL     1      -9.435   4.787 130.248  0.00  0.00    +0.000 C 
ATOM     10  C   UNL     1      -8.722   4.317 131.735  0.00  0.00    +0.000 C 
ATOM     11  C   UNL     1      -9.688   4.532 132.881  0.00  0.00    +0.000 C 
ATOM     12  C   UNL     1     -10.268   5.926 132.892  0.00  0.00    +0.000 C 
ATOM     13  C   UNL     1     -10.855   6.414 131.596  0.00  0.00    +0.000 C 
ATOM     14  C   UNL     1     -12.016   7.091 131.524  0.00  0.00    +0.000 C 
ATOM     15  C   UNL     1     -12.309   7.617 130.164  0.00  0.00    +0.000 C 
ATOM     16  O   UNL     1     -12.223   8.772 129.774  0.00  0.00    +0.000 OA
ATOM     17  C   UNL     1     -12.574   6.500 129.192  0.00  0.00    +0.000 C 
ATOM     18  C   UNL     1     -11.239   6.255 129.115  0.00  0.00    +0.000 C 
ATOM     19  C   UNL     1     -10.086   6.203 130.285  0.00  0.00    +0.000 C 
ATOM     20  C   UNL     1      -8.891   7.165 130.341  0.00  0.00    +0.000 C 
ENDROOT
BRANCH   4  21
ATOM     21  O   UNL     1      -6.062   3.212 131.625  0.00  0.00    +0.000 OA
ATOM     22  H   UNL     1      -5.140   3.417 131.428  0.00  0.00    +0.000 HD
ENDBRANCH   4  21
BRANCH   4  23
ATOM     23  C   UNL     1      -5.502   3.141 129.278  0.00  0.00    +0.000 C 
ATOM     24  O   UNL     1      -4.453   3.774 129.487  0.00  0.00    +0.000 OA
BRANCH  23  25
ATOM     25  C   UNL     1      -5.461   2.347 127.832  0.00  0.00    +0.000 C 
BRANCH  25  26
ATOM     26  O   UNL     1      -4.805   3.226 126.789  0.00  0.00    +0.000 OA
BRANCH  26  27
ATOM     27  C   UNL     1      -5.305   4.231 126.016  0.00  0.00    +0.000 C 
ATOM     28  C   UNL     1      -5.464   4.009 124.543  0.00  0.00    +0.000 C 
ATOM     29  O   UNL     1      -5.626   5.321 126.494  0.00  0.00    +0.000 OA
ENDBRANCH  26  27
ENDBRANCH  25  26
ENDBRANCH  23  25
ENDBRANCH   4  23
BRANCH   8  30
ATOM     30  O   UNL     1      -7.299   5.169 128.919  0.00  0.00    +0.000 OA
ATOM     31  H   UNL     1      -6.532   4.598 128.731  0.00  0.00    +0.000 HD
ENDBRANCH   8  30
TORSDOF 6
ENDMDL
MODEL 9
REMARK VINA RESULT:      -7.7      4.057      6.781
REMARK  Name = Prednisolone acetate
REMARK  9 active torsions:
REMARK  status: ('A' for Active; 'I' for Inactive)
REMARK    1  A    between atoms: C_5  and  O_6
REMARK    2  A    between atoms: C_5  and  C_7
REMARK    3  A    between atoms: C_7  and  C_9
REMARK    4  A    between atoms: C_9  and  O_10
REMARK    5  A    between atoms: O_10  and  C_11
REMARK    6  A    between atoms: C_11  and  C_12
REMARK    7  A    between atoms: C_14  and  C_15
REMARK    8  A    between atoms: C_17  and  O_19
REMARK    9  A    between atoms: C_32  and  C_33
REMARK                            x       y       z     vdW  Elec       q    Type
REMARK                         _______ _______ _______ _____ _____    ______ ____
ROOT
ATOM      1  C   UNL     1      -9.585   3.121 132.419  0.00  0.00    +0.000 C 
ATOM      2  C   UNL     1      -8.659   3.173 133.491  0.00  0.00    +0.000 C 
ATOM      3  C   UNL     1      -8.206   3.752 132.179  0.00  0.00    +0.000 C 
ATOM      4  C   UNL     1      -9.666   4.236 130.788  0.00  0.00    +0.000 C 
ATOM      5  C   UNL     1      -9.168   4.898 131.855  0.00  0.00    +0.000 C 
ATOM      6  C   UNL     1      -9.799   5.931 132.709  0.00  0.00    +0.000 C 
ATOM      7  C   UNL     1      -7.738   5.132 130.651  0.00  0.00    +0.000 C 
ATOM      8  C   UNL     1      -7.550   3.742 129.653  0.00  0.00    +0.000 C 
ATOM      9  C   UNL     1      -7.618   2.211 130.302  0.00  0.00    +0.000 C 
ATOM     10  C   UNL     1      -9.067   1.900 131.165  0.00  0.00    +0.000 C 
ATOM     11  C   UNL     1      -8.983   0.571 131.886  0.00  0.00    +0.000 C 
ATOM     12  C   UNL     1      -8.560  -0.554 130.971  0.00  0.00    +0.000 C 
ATOM     13  C   UNL     1      -7.327  -0.313 130.144  0.00  0.00    +0.000 C 
ATOM     14  C   UNL     1      -6.370  -1.242 129.963  0.00  0.00    +0.000 C 
ATOM     15  C   UNL     1      -5.336  -0.838 128.974  0.00  0.00    +0.000 C 
ATOM     16  O   UNL     1      -5.200  -1.239 127.827  0.00  0.00    +0.000 OA
ATOM     17  C   UNL     1      -4.514   0.315 129.482  0.00  0.00    +0.000 C 
ATOM     18  C   UNL     1      -5.532   1.166 129.185  0.00  0.00    +0.000 C 
ATOM     19  C   UNL     1      -7.154   1.022 129.407  0.00  0.00    +0.000 C 
ATOM     20  C   UNL     1      -8.170   0.998 128.256  0.00  0.00    +0.000 C 
ENDROOT
BRANCH   4  21
ATOM     21  O   UNL     1     -11.105   3.938 131.089  0.00  0.00    +0.000 OA
ATOM     22  H   UNL     1     -11.727   4.318 130.458  0.00  0.00    +0.000 HD
ENDBRANCH   4  21
BRANCH   4  23
ATOM     23  C   UNL     1     -10.149   5.742 129.801  0.00  0.00    +0.000 C 
ATOM     24  O   UNL     1      -9.322   6.393 129.141  0.00  0.00    +0.000 OA
BRANCH  23  25
ATOM     25  C   UNL     1     -11.638   6.451 129.788  0.00  0.00    +0.000 C 
BRANCH  25  26
ATOM     26  O   UNL     1     -12.273   6.272 128.425  0.00  0.00    +0.000 OA
BRANCH  26  27
ATOM     27  C   UNL     1     -12.530   7.165 127.429  0.00  0.00    +0.000 C 
ATOM     28  C   UNL     1     -11.457   7.473 126.429  0.00  0.00    +0.000 C 
ATOM     29  O   UNL     1     -13.620   7.731 127.329  0.00  0.00    +0.000 OA
ENDBRANCH  26  27
ENDBRANCH  25  26
ENDBRANCH  23  25
ENDBRANCH   4  23
BRANCH   8  30
ATOM     30  O   UNL     1      -8.545   3.874 128.614  0.00  0.00    +0.000 OA
ATOM     31  H   UNL     1      -8.859   4.796 128.562  0.00  0.00    +0.000 HD
ENDBRANCH   8  30
TORSDOF 6
ENDMDL
