MODEL 1
REMARK VINA RESULT:      -8.2      0.000      0.000
REMARK  Name = Prednisolone
REMARK  7 active torsions:
REMARK  status: ('A' for Active; 'I' for Inactive)
REMARK    1  A    between atoms: C_5  and  O_6
REMARK    2  A    between atoms: C_5  and  C_7
REMARK    3  A    between atoms: C_7  and  C_9
REMARK    4  A    between atoms: C_9  and  O_10
REMARK    5  A    between atoms: C_11  and  C_12
REMARK    6  A    between atoms: C_14  and  O_15
REMARK    7  A    between atoms: C_28  and  C_29
REMARK                            x       y       z     vdW  Elec       q    Type
REMARK                         _______ _______ _______ _____ _____    ______ ____
ROOT
ATOM      1  C   UNL     1      -7.085  -3.185 130.468  0.00  0.00    +0.000 C 
ATOM      2  C   UNL     1      -6.266  -4.338 130.367  0.00  0.00    +0.000 C 
ATOM      3  C   UNL     1      -5.690  -3.055 129.835  0.00  0.00    +0.000 C 
ATOM      4  C   UNL     1      -6.557  -1.285 130.471  0.00  0.00    +0.000 C 
ATOM      5  C   UNL     1      -5.623  -2.089 131.020  0.00  0.00    +0.000 C 
ATOM      6  C   UNL     1      -5.264  -2.289 132.445  0.00  0.00    +0.000 C 
ATOM      7  C   UNL     1      -4.580  -1.263 129.685  0.00  0.00    +0.000 C 
ATOM      8  C   UNL     1      -5.522  -0.968 128.273  0.00  0.00    +0.000 C 
ATOM      9  C   UNL     1      -6.553  -2.128 127.679  0.00  0.00    +0.000 C 
ATOM     10  C   UNL     1      -7.703  -2.673 128.828  0.00  0.00    +0.000 C 
ATOM     11  C   UNL     1      -8.480  -3.856 128.288  0.00  0.00    +0.000 C 
ATOM     12  C   UNL     1      -9.060  -3.584 126.920  0.00  0.00    +0.000 C 
ATOM     13  C   UNL     1      -8.108  -3.049 125.886  0.00  0.00    +0.000 C 
ATOM     14  C   UNL     1      -8.088  -3.482 124.611  0.00  0.00    +0.000 C 
ATOM     15  C   UNL     1      -7.184  -2.690 123.735  0.00  0.00    +0.000 C 
ATOM     16  O   UNL     1      -7.496  -1.864 122.890  0.00  0.00    +0.000 OA
ATOM     17  C   UNL     1      -5.742  -2.883 124.119  0.00  0.00    +0.000 C 
ATOM     18  C   UNL     1      -5.917  -2.040 125.174  0.00  0.00    +0.000 C 
ATOM     19  C   UNL     1      -7.148  -1.911 126.254  0.00  0.00    +0.000 C 
ATOM     20  C   UNL     1      -8.021  -0.656 126.395  0.00  0.00    +0.000 C 
ENDROOT
BRANCH   4  21
ATOM     21  O   UNL     1      -7.752  -1.322 131.379  0.00  0.00    +0.000 OA
ATOM     22  H   UNL     1      -7.649  -0.804 132.188  0.00  0.00    +0.000 HD
ENDBRANCH   4  21
BRANCH   4  23
ATOM     23  C   UNL     1      -5.970   0.278 131.268  0.00  0.00    +0.000 C 
ATOM     24  O   UNL     1      -4.810   0.714 131.150  0.00  0.00    +0.000 OA
BRANCH  23  25
ATOM     25  C   UNL     1      -6.817   1.163 132.312  0.00  0.00    +0.000 C 
BRANCH  25  26
ATOM     26  O   UNL     1      -7.063   0.449 133.558  0.00  0.00    +0.000 OA
ATOM     27  H   UNL     1      -6.566  -0.394 133.531  0.00  0.00    +0.000 HD
ENDBRANCH  25  26
ENDBRANCH  23  25
ENDBRANCH   4  23
BRANCH   8  28
ATOM     28  O   UNL     1      -6.256   0.245 128.544  0.00  0.00    +0.000 OA
ATOM     29  H   UNL     1      -6.064   0.922 127.871  0.00  0.00    +0.000 HD
ENDBRANCH   8  28
TORSDOF 5
ENDMDL
MODEL 2
REMARK VINA RESULT:      -7.9      1.707      6.516
REMARK  Name = Prednisolone
REMARK  7 active torsions:
REMARK  status: ('A' for Active; 'I' for Inactive)
REMARK    1  A    between atoms: C_5  and  O_6
REMARK    2  A    between atoms: C_5  and  C_7
REMARK    3  A    between atoms: C_7  and  C_9
REMARK    4  A    between atoms: C_9  and  O_10
REMARK    5  A    between atoms: C_11  and  C_12
REMARK    6  A    between atoms: C_14  and  O_15
REMARK    7  A    between atoms: C_28  and  C_29
REMARK                            x       y       z     vdW  Elec       q    Type
REMARK                         _______ _______ _______ _____ _____    ______ ____
ROOT
ATOM      1  C   UNL     1      -8.677  -3.442 125.958  0.00  0.00    +0.000 C 
ATOM      2  C   UNL     1     -10.074  -3.293 126.144  0.00  0.00    +0.000 C 
ATOM      3  C   UNL     1      -9.294  -2.036 125.878  0.00  0.00    +0.000 C 
ATOM      4  C   UNL     1      -7.414  -2.242 125.033  0.00  0.00    +0.000 C 
ATOM      5  C   UNL     1      -8.652  -2.211 124.499  0.00  0.00    +0.000 C 
ATOM      6  C   UNL     1      -9.155  -2.808 123.239  0.00  0.00    +0.000 C 
ATOM      7  C   UNL     1      -8.432  -0.380 124.888  0.00  0.00    +0.000 C 
ATOM      8  C   UNL     1      -7.525  -0.170 126.336  0.00  0.00    +0.000 C 
ATOM      9  C   UNL     1      -7.840  -1.094 127.681  0.00  0.00    +0.000 C 
ATOM     10  C   UNL     1      -7.751  -2.781 127.386  0.00  0.00    +0.000 C 
ATOM     11  C   UNL     1      -8.234  -3.561 128.592  0.00  0.00    +0.000 C 
ATOM     12  C   UNL     1      -7.553  -3.124 129.867  0.00  0.00    +0.000 C 
ATOM     13  C   UNL     1      -7.550  -1.646 130.149  0.00  0.00    +0.000 C 
ATOM     14  C   UNL     1      -7.794  -1.129 131.369  0.00  0.00    +0.000 C 
ATOM     15  C   UNL     1      -7.568   0.338 131.441  0.00  0.00    +0.000 C 
ATOM     16  O   UNL     1      -6.633   0.926 131.965  0.00  0.00    +0.000 OA
ATOM     17  C   UNL     1      -8.574   1.089 130.612  0.00  0.00    +0.000 C 
ATOM     18  C   UNL     1      -7.886   0.757 129.486  0.00  0.00    +0.000 C 
ATOM     19  C   UNL     1      -7.191  -0.660 129.031  0.00  0.00    +0.000 C 
ATOM     20  C   UNL     1      -5.683  -0.825 128.795  0.00  0.00    +0.000 C 
ENDROOT
BRANCH   4  21
ATOM     21  O   UNL     1      -6.859  -3.612 124.769  0.00  0.00    +0.000 OA
ATOM     22  H   UNL     1      -5.894  -3.652 124.765  0.00  0.00    +0.000 HD
ENDBRANCH   4  21
BRANCH   4  23
ATOM     23  C   UNL     1      -6.537  -1.574 123.548  0.00  0.00    +0.000 C 
ATOM     24  O   UNL     1      -6.710  -0.422 123.110  0.00  0.00    +0.000 OA
BRANCH  23  25
ATOM     25  C   UNL     1      -5.584  -2.427 122.570  0.00  0.00    +0.000 C 
BRANCH  25  26
ATOM     26  O   UNL     1      -4.501  -3.077 123.296  0.00  0.00    +0.000 OA
ATOM     27  H   UNL     1      -4.520  -4.033 123.086  0.00  0.00    +0.000 HD
ENDBRANCH  25  26
ENDBRANCH  23  25
ENDBRANCH   4  23
BRANCH   8  28
ATOM     28  O   UNL     1      -6.142  -0.323 125.953  0.00  0.00    +0.000 OA
ATOM     29  H   UNL     1      -5.603  -0.610 126.711  0.00  0.00    +0.000 HD
ENDBRANCH   8  28
TORSDOF 5
ENDMDL
MODEL 3
REMARK VINA RESULT:      -7.8      5.399      9.199
REMARK  Name = Prednisolone
REMARK  7 active torsions:
REMARK  status: ('A' for Active; 'I' for Inactive)
REMARK    1  A    between atoms: C_5  and  O_6
REMARK    2  A    between atoms: C_5  and  C_7
REMARK    3  A    between atoms: C_7  and  C_9
REMARK    4  A    between atoms: C_9  and  O_10
REMARK    5  A    between atoms: C_11  and  C_12
REMARK    6  A    between atoms: C_14  and  O_15
REMARK    7  A    between atoms: C_28  and  C_29
REMARK                            x       y       z     vdW  Elec       q    Type
REMARK                         _______ _______ _______ _____ _____    ______ ____
ROOT
ATOM      1  C   UNL     1      -3.844   4.380 126.683  0.00  0.00    +0.000 C 
ATOM      2  C   UNL     1      -2.848   3.383 126.536  0.00  0.00    +0.000 C 
ATOM      3  C   UNL     1      -3.930   3.108 127.543  0.00  0.00    +0.000 C 
ATOM      4  C   UNL     1      -5.679   4.206 127.385  0.00  0.00    +0.000 C 
ATOM      5  C   UNL     1      -5.248   3.089 126.764  0.00  0.00    +0.000 C 
ATOM      6  C   UNL     1      -5.605   2.548 125.430  0.00  0.00    +0.000 C 
ATOM      7  C   UNL     1      -5.688   2.362 128.446  0.00  0.00    +0.000 C 
ATOM      8  C   UNL     1      -5.346   3.488 129.704  0.00  0.00    +0.000 C 
ATOM      9  C   UNL     1      -3.927   4.351 129.712  0.00  0.00    +0.000 C 
ATOM     10  C   UNL     1      -3.667   5.254 128.277  0.00  0.00    +0.000 C 
ATOM     11  C   UNL     1      -2.279   5.858 128.268  0.00  0.00    +0.000 C 
ATOM     12  C   UNL     1      -1.978   6.622 129.536  0.00  0.00    +0.000 C 
ATOM     13  C   UNL     1      -2.242   5.899 130.829  0.00  0.00    +0.000 C 
ATOM     14  C   UNL     1      -1.400   5.940 131.879  0.00  0.00    +0.000 C 
ATOM     15  C   UNL     1      -1.950   5.293 133.099  0.00  0.00    +0.000 C 
ATOM     16  O   UNL     1      -2.382   5.839 134.105  0.00  0.00    +0.000 OA
ATOM     17  C   UNL     1      -2.096   3.807 132.914  0.00  0.00    +0.000 C 
ATOM     18  C   UNL     1      -3.221   4.016 132.177  0.00  0.00    +0.000 C 
ATOM     19  C   UNL     1      -3.553   5.127 131.013  0.00  0.00    +0.000 C 
ATOM     20  C   UNL     1      -4.652   6.191 131.148  0.00  0.00    +0.000 C 
ENDROOT
BRANCH   4  21
ATOM     21  O   UNL     1      -5.802   5.270 126.333  0.00  0.00    +0.000 OA
ATOM     22  H   UNL     1      -6.224   4.971 125.517  0.00  0.00    +0.000 HD
ENDBRANCH   4  21
BRANCH   4  23
ATOM     23  C   UNL     1      -7.485   3.827 127.248  0.00  0.00    +0.000 C 
ATOM     24  O   UNL     1      -8.362   4.702 127.135  0.00  0.00    +0.000 OA
BRANCH  23  25
ATOM     25  C   UNL     1      -8.142   2.366 127.409  0.00  0.00    +0.000 C 
BRANCH  25  26
ATOM     26  O   UNL     1      -8.973   2.014 126.265  0.00  0.00    +0.000 OA
ATOM     27  H   UNL     1      -8.419   2.057 125.459  0.00  0.00    +0.000 HD
ENDBRANCH  25  26
ENDBRANCH  23  25
ENDBRANCH   4  23
BRANCH   8  28
ATOM     28  O   UNL     1      -6.469   4.395 129.727  0.00  0.00    +0.000 OA
ATOM     29  H   UNL     1      -6.317   5.148 129.129  0.00  0.00    +0.000 HD
ENDBRANCH   8  28
TORSDOF 5
ENDMDL
MODEL 4
REMARK VINA RESULT:      -7.8      4.044      7.610
REMARK  Name = Prednisolone
REMARK  7 active torsions:
REMARK  status: ('A' for Active; 'I' for Inactive)
REMARK    1  A    between atoms: C_5  and  O_6
REMARK    2  A    between atoms: C_5  and  C_7
REMARK    3  A    between atoms: C_7  and  C_9
REMARK    4  A    between atoms: C_9  and  O_10
REMARK    5  A    between atoms: C_11  and  C_12
REMARK    6  A    between atoms: C_14  and  O_15
REMARK    7  A    between atoms: C_28  and  C_29
REMARK                            x       y       z     vdW  Elec       q    Type
REMARK                         _______ _______ _______ _____ _____    ______ ____
ROOT
ATOM      1  C   UNL     1      -9.175   2.017 124.106  0.00  0.00    +0.000 C 
ATOM      2  C   UNL     1      -8.659   2.637 122.940  0.00  0.00    +0.000 C 
ATOM      3  C   UNL     1      -7.862   1.492 123.501  0.00  0.00    +0.000 C 
ATOM      4  C   UNL     1      -8.830   0.203 124.802  0.00  0.00    +0.000 C 
ATOM      5  C   UNL     1      -8.777   0.267 123.455  0.00  0.00    +0.000 C 
ATOM      6  C   UNL     1      -9.756  -0.204 122.445  0.00  0.00    +0.000 C 
ATOM      7  C   UNL     1      -7.066  -0.442 123.804  0.00  0.00    +0.000 C 
ATOM      8  C   UNL     1      -6.424   0.208 125.264  0.00  0.00    +0.000 C 
ATOM      9  C   UNL     1      -6.546   1.831 125.600  0.00  0.00    +0.000 C 
ATOM     10  C   UNL     1      -8.157   2.417 125.567  0.00  0.00    +0.000 C 
ATOM     11  C   UNL     1      -8.180   3.927 125.690  0.00  0.00    +0.000 C 
ATOM     12  C   UNL     1      -7.372   4.419 126.867  0.00  0.00    +0.000 C 
ATOM     13  C   UNL     1      -5.967   3.892 126.978  0.00  0.00    +0.000 C 
ATOM     14  C   UNL     1      -4.914   4.667 127.304  0.00  0.00    +0.000 C 
ATOM     15  C   UNL     1      -3.662   3.896 127.520  0.00  0.00    +0.000 C 
ATOM     16  O   UNL     1      -3.119   3.634 128.584  0.00  0.00    +0.000 OA
ATOM     17  C   UNL     1      -3.170   3.279 126.239  0.00  0.00    +0.000 C 
ATOM     18  C   UNL     1      -4.117   2.308 126.350  0.00  0.00    +0.000 C 
ATOM     19  C   UNL     1      -5.700   2.395 126.783  0.00  0.00    +0.000 C 
ATOM     20  C   UNL     1      -6.276   1.700 128.025  0.00  0.00    +0.000 C 
ENDROOT
BRANCH   4  21
ATOM     21  O   UNL     1     -10.255   0.469 125.195  0.00  0.00    +0.000 OA
ATOM     22  H   UNL     1     -10.731   1.048 124.585  0.00  0.00    +0.000 HD
ENDBRANCH   4  21
BRANCH   4  23
ATOM     23  C   UNL     1      -9.116  -1.622 124.906  0.00  0.00    +0.000 C 
ATOM     24  O   UNL     1      -9.378  -2.215 125.968  0.00  0.00    +0.000 OA
BRANCH  23  25
ATOM     25  C   UNL     1      -8.914  -2.664 123.696  0.00  0.00    +0.000 C 
BRANCH  25  26
ATOM     26  O   UNL     1     -10.110  -3.464 123.461  0.00  0.00    +0.000 OA
ATOM     27  H   UNL     1     -10.299  -3.457 122.501  0.00  0.00    +0.000 HD
ENDBRANCH  25  26
ENDBRANCH  23  25
ENDBRANCH   4  23
BRANCH   8  28
ATOM     28  O   UNL     1      -7.030  -0.557 126.327  0.00  0.00    +0.000 OA
ATOM     29  H   UNL     1      -7.802  -1.052 126.000  0.00  0.00    +0.000 HD
ENDBRANCH   8  28
TORSDOF 5
ENDMDL
MODEL 5
REMARK VINA RESULT:      -7.6      2.421      6.527
REMARK  Name = Prednisolone
REMARK  7 active torsions:
REMARK  status: ('A' for Active; 'I' for Inactive)
REMARK    1  A    between atoms: C_5  and  O_6
REMARK    2  A    between atoms: C_5  and  C_7
REMARK    3  A    between atoms: C_7  and  C_9
REMARK    4  A    between atoms: C_9  and  O_10
REMARK    5  A    between atoms: C_11  and  C_12
REMARK    6  A    between atoms: C_14  and  O_15
REMARK    7  A    between atoms: C_28  and  C_29
REMARK                            x       y       z     vdW  Elec       q    Type
REMARK                         _______ _______ _______ _____ _____    ______ ____
ROOT
ATOM      1  C   UNL     1      -7.952   1.076 126.331  0.00  0.00    +0.000 C 
ATOM      2  C   UNL     1      -6.733   1.797 126.383  0.00  0.00    +0.000 C 
ATOM      3  C   UNL     1      -6.660   0.392 125.854  0.00  0.00    +0.000 C 
ATOM      4  C   UNL     1      -8.428  -0.478 125.213  0.00  0.00    +0.000 C 
ATOM      5  C   UNL     1      -7.552   0.353 124.611  0.00  0.00    +0.000 C 
ATOM      6  C   UNL     1      -7.771   1.329 123.516  0.00  0.00    +0.000 C 
ATOM      7  C   UNL     1      -6.568  -1.252 124.530  0.00  0.00    +0.000 C 
ATOM      8  C   UNL     1      -6.853  -2.212 125.931  0.00  0.00    +0.000 C 
ATOM      9  C   UNL     1      -6.869  -1.526 127.444  0.00  0.00    +0.000 C 
ATOM     10  C   UNL     1      -7.991  -0.238 127.599  0.00  0.00    +0.000 C 
ATOM     11  C   UNL     1      -7.821   0.463 128.930  0.00  0.00    +0.000 C 
ATOM     12  C   UNL     1      -7.831  -0.503 130.092  0.00  0.00    +0.000 C 
ATOM     13  C   UNL     1      -6.907  -1.685 129.985  0.00  0.00    +0.000 C 
ATOM     14  C   UNL     1      -6.159  -2.130 131.013  0.00  0.00    +0.000 C 
ATOM     15  C   UNL     1      -5.459  -3.408 130.721  0.00  0.00    +0.000 C 
ATOM     16  O   UNL     1      -5.736  -4.524 131.135  0.00  0.00    +0.000 OA
ATOM     17  C   UNL     1      -4.403  -3.225 129.665  0.00  0.00    +0.000 C 
ATOM     18  C   UNL     1      -5.371  -3.214 128.708  0.00  0.00    +0.000 C 
ATOM     19  C   UNL     1      -6.842  -2.482 128.677  0.00  0.00    +0.000 C 
ATOM     20  C   UNL     1      -8.168  -3.251 128.588  0.00  0.00    +0.000 C 
ENDROOT
BRANCH   4  21
ATOM     21  O   UNL     1      -9.721   0.273 125.345  0.00  0.00    +0.000 OA
ATOM     22  H   UNL     1      -9.673   1.042 125.928  0.00  0.00    +0.000 HD
ENDBRANCH   4  21
BRANCH   4  23
ATOM     23  C   UNL     1      -9.030  -1.292 123.665  0.00  0.00    +0.000 C 
ATOM     24  O   UNL     1      -9.711  -0.707 122.803  0.00  0.00    +0.000 OA
BRANCH  23  25
ATOM     25  C   UNL     1      -8.885  -2.859 123.322  0.00  0.00    +0.000 C 
BRANCH  25  26
ATOM     26  O   UNL     1     -10.147  -3.570 123.486  0.00  0.00    +0.000 OA
ATOM     27  H   UNL     1     -10.778  -2.975 123.938  0.00  0.00    +0.000 HD
ENDBRANCH  25  26
ENDBRANCH  23  25
ENDBRANCH   4  23
BRANCH   8  28
ATOM     28  O   UNL     1      -8.104  -2.889 125.689  0.00  0.00    +0.000 OA
ATOM     29  H   UNL     1      -8.646  -2.395 125.048  0.00  0.00    +0.000 HD
ENDBRANCH   8  28
TORSDOF 5
ENDMDL
MODEL 6
REMARK VINA RESULT:      -7.5      6.443      9.460
REMARK  Name = Prednisolone
REMARK  7 active torsions:
REMARK  status: ('A' for Active; 'I' for Inactive)
REMARK    1  A    between atoms: C_5  and  O_6
REMARK    2  A    between atoms: C_5  and  C_7
REMARK    3  A    between atoms: C_7  and  C_9
REMARK    4  A    between atoms: C_9  and  O_10
REMARK    5  A    between atoms: C_11  and  C_12
REMARK    6  A    between atoms: C_14  and  O_15
REMARK    7  A    between atoms: C_28  and  C_29
REMARK                            x       y       z     vdW  Elec       q    Type
REMARK                         _______ _______ _______ _____ _____    ______ ____
ROOT
ATOM      1  C   UNL     1      -7.629   3.604 129.769  0.00  0.00    +0.000 C 
ATOM      2  C   UNL     1      -7.589   2.624 130.792  0.00  0.00    +0.000 C 
ATOM      3  C   UNL     1      -7.798   4.046 131.233  0.00  0.00    +0.000 C 
ATOM      4  C   UNL     1      -8.443   5.401 129.805  0.00  0.00    +0.000 C 
ATOM      5  C   UNL     1      -9.100   4.513 130.579  0.00  0.00    +0.000 C 
ATOM      6  C   UNL     1     -10.394   3.827 130.344  0.00  0.00    +0.000 C 
ATOM      7  C   UNL     1      -8.726   5.835 131.867  0.00  0.00    +0.000 C 
ATOM      8  C   UNL     1      -7.197   6.567 131.563  0.00  0.00    +0.000 C 
ATOM      9  C   UNL     1      -5.874   5.643 131.165  0.00  0.00    +0.000 C 
ATOM     10  C   UNL     1      -6.127   4.642 129.795  0.00  0.00    +0.000 C 
ATOM     11  C   UNL     1      -4.962   3.693 129.604  0.00  0.00    +0.000 C 
ATOM     12  C   UNL     1      -3.633   4.410 129.603  0.00  0.00    +0.000 C 
ATOM     13  C   UNL     1      -3.379   5.346 130.753  0.00  0.00    +0.000 C 
ATOM     14  C   UNL     1      -2.200   5.414 131.401  0.00  0.00    +0.000 C 
ATOM     15  C   UNL     1      -2.133   6.528 132.384  0.00  0.00    +0.000 C 
ATOM     16  O   UNL     1      -1.528   7.584 132.276  0.00  0.00    +0.000 OA
ATOM     17  C   UNL     1      -3.073   6.299 133.536  0.00  0.00    +0.000 C 
ATOM     18  C   UNL     1      -4.117   6.683 132.751  0.00  0.00    +0.000 C 
ATOM     19  C   UNL     1      -4.474   6.329 131.187  0.00  0.00    +0.000 C 
ATOM     20  C   UNL     1      -4.552   7.386 130.077  0.00  0.00    +0.000 C 
ENDROOT
BRANCH   4  21
ATOM     21  O   UNL     1      -8.624   4.957 128.381  0.00  0.00    +0.000 OA
ATOM     22  H   UNL     1      -9.489   4.569 128.197  0.00  0.00    +0.000 HD
ENDBRANCH   4  21
BRANCH   4  23
ATOM     23  C   UNL     1      -9.845   6.597 129.636  0.00  0.00    +0.000 C 
ATOM     24  O   UNL     1      -9.934   7.422 128.709  0.00  0.00    +0.000 OA
BRANCH  23  25
ATOM     25  C   UNL     1     -11.012   6.818 130.723  0.00  0.00    +0.000 C 
BRANCH  25  26
ATOM     26  O   UNL     1     -12.336   6.788 130.114  0.00  0.00    +0.000 OA
ATOM     27  H   UNL     1     -12.267   7.162 129.212  0.00  0.00    +0.000 HD
ENDBRANCH  25  26
ENDBRANCH  23  25
ENDBRANCH   4  23
BRANCH   8  28
ATOM     28  O   UNL     1      -7.436   7.546 130.530  0.00  0.00    +0.000 OA
ATOM     29  H   UNL     1      -6.688   7.580 129.907  0.00  0.00    +0.000 HD
ENDBRANCH   8  28
TORSDOF 5
ENDMDL
MODEL 7
REMARK VINA RESULT:      -7.5      1.987      3.291
REMARK  Name = Prednisolone
REMARK  7 active torsions:
REMARK  status: ('A' for Active; 'I' for Inactive)
REMARK    1  A    between atoms: C_5  and  O_6
REMARK    2  A    between atoms: C_5  and  C_7
REMARK    3  A    between atoms: C_7  and  C_9
REMARK    4  A    between atoms: C_9  and  O_10
REMARK    5  A    between atoms: C_11  and  C_12
REMARK    6  A    between atoms: C_14  and  O_15
REMARK    7  A    between atoms: C_28  and  C_29
REMARK                            x       y       z     vdW  Elec       q    Type
REMARK                         _______ _______ _______ _____ _____    ______ ____
ROOT
ATOM      1  C   UNL     1      -6.975  -0.312 131.137  0.00  0.00    +0.000 C 
ATOM      2  C   UNL     1      -8.283  -0.558 131.627  0.00  0.00    +0.000 C 
ATOM      3  C   UNL     1      -7.554  -1.734 131.037  0.00  0.00    +0.000 C 
ATOM      4  C   UNL     1      -5.496  -1.587 130.857  0.00  0.00    +0.000 C 
ATOM      5  C   UNL     1      -6.297  -1.932 131.886  0.00  0.00    +0.000 C 
ATOM      6  C   UNL     1      -6.059  -1.830 133.347  0.00  0.00    +0.000 C 
ATOM      7  C   UNL     1      -6.416  -3.504 130.856  0.00  0.00    +0.000 C 
ATOM      8  C   UNL     1      -6.376  -3.135 129.174  0.00  0.00    +0.000 C 
ATOM      9  C   UNL     1      -7.267  -1.875 128.557  0.00  0.00    +0.000 C 
ATOM     10  C   UNL     1      -6.937  -0.371 129.312  0.00  0.00    +0.000 C 
ATOM     11  C   UNL     1      -7.911   0.689 128.841  0.00  0.00    +0.000 C 
ATOM     12  C   UNL     1      -7.993   0.764 127.335  0.00  0.00    +0.000 C 
ATOM     13  C   UNL     1      -8.224  -0.537 126.614  0.00  0.00    +0.000 C 
ATOM     14  C   UNL     1      -9.079  -0.664 125.582  0.00  0.00    +0.000 C 
ATOM     15  C   UNL     1      -9.012  -1.995 124.923  0.00  0.00    +0.000 C 
ATOM     16  O   UNL     1      -8.506  -2.271 123.846  0.00  0.00    +0.000 OA
ATOM     17  C   UNL     1      -9.509  -3.083 125.836  0.00  0.00    +0.000 C 
ATOM     18  C   UNL     1      -8.329  -3.048 126.512  0.00  0.00    +0.000 C 
ATOM     19  C   UNL     1      -7.413  -1.777 127.007  0.00  0.00    +0.000 C 
ATOM     20  C   UNL     1      -5.984  -1.519 126.508  0.00  0.00    +0.000 C 
ENDROOT
BRANCH   4  21
ATOM     21  O   UNL     1      -4.800  -0.316 131.253  0.00  0.00    +0.000 OA
ATOM     22  H   UNL     1      -4.688  -0.209 132.206  0.00  0.00    +0.000 HD
ENDBRANCH   4  21
BRANCH   4  23
ATOM     23  C   UNL     1      -4.034  -2.585 131.396  0.00  0.00    +0.000 C 
ATOM     24  O   UNL     1      -2.856  -2.247 131.180  0.00  0.00    +0.000 OA
BRANCH  23  25
ATOM     25  C   UNL     1      -4.104  -4.051 132.056  0.00  0.00    +0.000 C 
BRANCH  25  26
ATOM     26  O   UNL     1      -2.912  -4.354 132.838  0.00  0.00    +0.000 OA
ATOM     27  H   UNL     1      -2.211  -3.717 132.588  0.00  0.00    +0.000 HD
ENDBRANCH  25  26
ENDBRANCH  23  25
ENDBRANCH   4  23
BRANCH   8  28
ATOM     28  O   UNL     1      -4.981  -2.950 128.852  0.00  0.00    +0.000 OA
ATOM     29  H   UNL     1      -4.418  -3.499 129.426  0.00  0.00    +0.000 HD
ENDBRANCH   8  28
TORSDOF 5
ENDMDL
MODEL 8
REMARK VINA RESULT:      -7.4      3.657      6.858
REMARK  Name = Prednisolone
REMARK  7 active torsions:
REMARK  status: ('A' for Active; 'I' for Inactive)
REMARK    1  A    between atoms: C_5  and  O_6
REMARK    2  A    between atoms: C_5  and  C_7
REMARK    3  A    between atoms: C_7  and  C_9
REMARK    4  A    between atoms: C_9  and  O_10
REMARK    5  A    between atoms: C_11  and  C_12
REMARK    6  A    between atoms: C_14  and  O_15
REMARK    7  A    between atoms: C_28  and  C_29
REMARK                            x       y       z     vdW  Elec       q    Type
REMARK                         _______ _______ _______ _____ _____    ______ ____
ROOT
ATOM      1  C   UNL     1      -4.683   3.748 126.891  0.00  0.00    +0.000 C 
ATOM      2  C   UNL     1      -3.480   3.349 126.255  0.00  0.00    +0.000 C 
ATOM      3  C   UNL     1      -4.708   2.539 125.940  0.00  0.00    +0.000 C 
ATOM      4  C   UNL     1      -6.547   3.399 126.349  0.00  0.00    +0.000 C 
ATOM      5  C   UNL     1      -5.707   3.504 125.299  0.00  0.00    +0.000 C 
ATOM      6  C   UNL     1      -5.534   4.616 124.332  0.00  0.00    +0.000 C 
ATOM      7  C   UNL     1      -6.424   1.796 124.957  0.00  0.00    +0.000 C 
ATOM      8  C   UNL     1      -6.727   0.957 126.431  0.00  0.00    +0.000 C 
ATOM      9  C   UNL     1      -5.612   0.969 127.663  0.00  0.00    +0.000 C 
ATOM     10  C   UNL     1      -5.176   2.546 128.175  0.00  0.00    +0.000 C 
ATOM     11  C   UNL     1      -4.025   2.491 129.157  0.00  0.00    +0.000 C 
ATOM     12  C   UNL     1      -4.285   1.527 130.291  0.00  0.00    +0.000 C 
ATOM     13  C   UNL     1      -4.726   0.143 129.902  0.00  0.00    +0.000 C 
ATOM     14  C   UNL     1      -4.251  -0.973 130.488  0.00  0.00    +0.000 C 
ATOM     15  C   UNL     1      -4.957  -2.209 130.059  0.00  0.00    +0.000 C 
ATOM     16  O   UNL     1      -5.772  -2.863 130.694  0.00  0.00    +0.000 OA
ATOM     17  C   UNL     1      -4.691  -2.517 128.611  0.00  0.00    +0.000 C 
ATOM     18  C   UNL     1      -5.577  -1.550 128.248  0.00  0.00    +0.000 C 
ATOM     19  C   UNL     1      -5.816  -0.036 128.839  0.00  0.00    +0.000 C 
ATOM     20  C   UNL     1      -7.126   0.417 129.500  0.00  0.00    +0.000 C 
ENDROOT
BRANCH   4  21
ATOM     21  O   UNL     1      -6.613   4.754 126.993  0.00  0.00    +0.000 OA
ATOM     22  H   UNL     1      -7.497   5.008 127.288  0.00  0.00    +0.000 HD
ENDBRANCH   4  21
BRANCH   4  23
ATOM     23  C   UNL     1      -8.098   3.747 125.402  0.00  0.00    +0.000 C 
ATOM     24  O   UNL     1      -8.884   4.668 125.688  0.00  0.00    +0.000 OA
BRANCH  23  25
ATOM     25  C   UNL     1      -8.688   2.830 124.218  0.00  0.00    +0.000 C 
BRANCH  25  26
ATOM     26  O   UNL     1      -9.931   2.175 124.604  0.00  0.00    +0.000 OA
ATOM     27  H   UNL     1      -9.725   1.252 124.858  0.00  0.00    +0.000 HD
ENDBRANCH  25  26
ENDBRANCH  23  25
ENDBRANCH   4  23
BRANCH   8  28
ATOM     28  O   UNL     1      -7.990   1.464 126.911  0.00  0.00    +0.000 OA
ATOM     29  H   UNL     1      -8.385   0.850 127.557  0.00  0.00    +0.000 HD
ENDBRANCH   8  28
TORSDOF 5
ENDMDL
MODEL 9
REMARK VINA RESULT:      -7.3      2.407      6.758
REMARK  Name = Prednisolone
REMARK  7 active torsions:
REMARK  status: ('A' for Active; 'I' for Inactive)
REMARK    1  A    between atoms: C_5  and  O_6
REMARK    2  A    between atoms: C_5  and  C_7
REMARK    3  A    between atoms: C_7  and  C_9
REMARK    4  A    between atoms: C_9  and  O_10
REMARK    5  A    between atoms: C_11  and  C_12
REMARK    6  A    between atoms: C_14  and  O_15
REMARK    7  A    between atoms: C_28  and  C_29
REMARK                            x       y       z     vdW  Elec       q    Type
REMARK                         _______ _______ _______ _____ _____    ______ ____
ROOT
ATOM      1  C   UNL     1      -7.862  -1.940 125.221  0.00  0.00    +0.000 C 
ATOM      2  C   UNL     1      -9.026  -2.666 125.578  0.00  0.00    +0.000 C 
ATOM      3  C   UNL     1      -9.090  -1.172 125.737  0.00  0.00    +0.000 C 
ATOM      4  C   UNL     1      -7.692  -0.043 124.708  0.00  0.00    +0.000 C 
ATOM      5  C   UNL     1      -8.874  -0.581 124.343  0.00  0.00    +0.000 C 
ATOM      6  C   UNL     1      -9.350  -0.999 123.002  0.00  0.00    +0.000 C 
ATOM      7  C   UNL     1      -9.494   0.869 125.374  0.00  0.00    +0.000 C 
ATOM      8  C   UNL     1      -8.441   1.165 126.703  0.00  0.00    +0.000 C 
ATOM      9  C   UNL     1      -7.852  -0.089 127.620  0.00  0.00    +0.000 C 
ATOM     10  C   UNL     1      -7.024  -1.277 126.702  0.00  0.00    +0.000 C 
ATOM     11  C   UNL     1      -6.684  -2.477 127.560  0.00  0.00    +0.000 C 
ATOM     12  C   UNL     1      -5.978  -2.087 128.838  0.00  0.00    +0.000 C 
ATOM     13  C   UNL     1      -6.631  -1.007 129.657  0.00  0.00    +0.000 C 
ATOM     14  C   UNL     1      -6.738  -1.064 130.998  0.00  0.00    +0.000 C 
ATOM     15  C   UNL     1      -7.263   0.189 131.601  0.00  0.00    +0.000 C 
ATOM     16  O   UNL     1      -6.640   1.040 132.219  0.00  0.00    +0.000 OA
ATOM     17  C   UNL     1      -8.698   0.423 131.215  0.00  0.00    +0.000 C 
ATOM     18  C   UNL     1      -8.293   0.852 129.988  0.00  0.00    +0.000 C 
ATOM     19  C   UNL     1      -7.149   0.261 128.968  0.00  0.00    +0.000 C 
ATOM     20  C   UNL     1      -5.900   1.050 128.549  0.00  0.00    +0.000 C 
ENDROOT
BRANCH   4  21
ATOM     21  O   UNL     1      -6.631  -0.727 123.894  0.00  0.00    +0.000 OA
ATOM     22  H   UNL     1      -5.729  -0.481 124.136  0.00  0.00    +0.000 HD
ENDBRANCH   4  21
BRANCH   4  23
ATOM     23  C   UNL     1      -7.734   1.368 123.512  0.00  0.00    +0.000 C 
ATOM     24  O   UNL     1      -6.717   1.837 122.970  0.00  0.00    +0.000 OA
BRANCH  23  25
ATOM     25  C   UNL     1      -9.037   2.242 123.153  0.00  0.00    +0.000 C 
BRANCH  25  26
ATOM     26  O   UNL     1      -8.689   3.489 122.484  0.00  0.00    +0.000 OA
ATOM     27  H   UNL     1      -8.303   3.271 121.611  0.00  0.00    +0.000 HD
ENDBRANCH  25  26
ENDBRANCH  23  25
ENDBRANCH   4  23
BRANCH   8  28
ATOM     28  O   UNL     1      -7.343   1.932 126.165  0.00  0.00    +0.000 OA
ATOM     29  H   UNL     1      -7.505   2.887 126.268  0.00  0.00    +0.000 HD
ENDBRANCH   8  28
TORSDOF 5
ENDMDL
