MODEL 1
REMARK VINA RESULT:      -8.9      0.000      0.000
REMARK  Name = Prednisolone tebutate
REMARK  13 active torsions:
REMARK  status: ('A' for Active; 'I' for Inactive)
REMARK    1  A    between atoms: C_5  and  O_6
REMARK    2  A    between atoms: C_5  and  C_7
REMARK    3  A    between atoms: C_7  and  C_9
REMARK    4  A    between atoms: C_9  and  O_10
REMARK    5  A    between atoms: O_10  and  C_11
REMARK    6  A    between atoms: C_11  and  C_13
REMARK    7  A    between atoms: C_13  and  C_14
REMARK    8  A    between atoms: C_14  and  C_15
REMARK    9  A    between atoms: C_14  and  C_16
REMARK   10  A    between atoms: C_14  and  C_17
REMARK   11  A    between atoms: C_18  and  C_19
REMARK   12  A    between atoms: C_21  and  O_22
REMARK   13  A    between atoms: C_35  and  C_36
REMARK                            x       y       z     vdW  Elec       q    Type
REMARK                         _______ _______ _______ _____ _____    ______ ____
ROOT
ATOM      1  C   UNL     1      -7.135  -2.934 130.420  0.00  0.00    +0.000 C 
ATOM      2  C   UNL     1      -6.272  -4.057 130.350  0.00  0.00    +0.000 C 
ATOM      3  C   UNL     1      -5.783  -2.788 129.708  0.00  0.00    +0.000 C 
ATOM      4  C   UNL     1      -6.689  -1.009 130.275  0.00  0.00    +0.000 C 
ATOM      5  C   UNL     1      -5.696  -1.744 130.820  0.00  0.00    +0.000 C 
ATOM      6  C   UNL     1      -5.255  -1.838 132.232  0.00  0.00    +0.000 C 
ATOM      7  C   UNL     1      -4.757  -0.976 129.378  0.00  0.00    +0.000 C 
ATOM      8  C   UNL     1      -5.780  -0.813 128.004  0.00  0.00    +0.000 C 
ATOM      9  C   UNL     1      -6.790  -2.051 127.542  0.00  0.00    +0.000 C 
ATOM     10  C   UNL     1      -7.855  -2.562 128.786  0.00  0.00    +0.000 C 
ATOM     11  C   UNL     1      -8.604  -3.810 128.365  0.00  0.00    +0.000 C 
ATOM     12  C   UNL     1      -9.265  -3.655 127.015  0.00  0.00    +0.000 C 
ATOM     13  C   UNL     1      -8.390  -3.152 125.898  0.00  0.00    +0.000 C 
ATOM     14  C   UNL     1      -8.417  -3.668 124.655  0.00  0.00    +0.000 C 
ATOM     15  C   UNL     1      -7.593  -2.902 123.683  0.00  0.00    +0.000 C 
ATOM     16  O   UNL     1      -7.980  -2.145 122.804  0.00  0.00    +0.000 OA
ATOM     17  C   UNL     1      -6.126  -3.013 124.001  0.00  0.00    +0.000 C 
ATOM     18  C   UNL     1      -6.283  -2.110 125.007  0.00  0.00    +0.000 C 
ATOM     19  C   UNL     1      -7.463  -1.956 126.140  0.00  0.00    +0.000 C 
ATOM     20  C   UNL     1      -8.382  -0.730 126.247  0.00  0.00    +0.000 C 
ENDROOT
BRANCH   4  21
ATOM     21  O   UNL     1      -7.837  -1.038 131.237  0.00  0.00    +0.000 OA
ATOM     22  H   UNL     1      -8.571  -1.599 130.956  0.00  0.00    +0.000 HD
ENDBRANCH   4  21
BRANCH   4  23
ATOM     23  C   UNL     1      -6.115   0.642 130.933  0.00  0.00    +0.000 C 
ATOM     24  O   UNL     1      -6.917   1.500 131.342  0.00  0.00    +0.000 OA
BRANCH  23  25
ATOM     25  C   UNL     1      -4.582   1.215 130.946  0.00  0.00    +0.000 C 
BRANCH  25  26
ATOM     26  O   UNL     1      -4.589   2.653 130.406  0.00  0.00    +0.000 OA
BRANCH  26  27
ATOM     27  C   UNL     1      -4.761   2.870 129.062  0.00  0.00    +0.000 C 
ATOM     28  O   UNL     1      -5.771   3.421 128.640  0.00  0.00    +0.000 OA
BRANCH  27  29
ATOM     29  C   UNL     1      -3.597   2.361 128.135  0.00  0.00    +0.000 C 
BRANCH  29  30
ATOM     30  C   UNL     1      -2.938   3.487 127.244  0.00  0.00    +0.000 C 
ATOM     31  C   UNL     1      -3.859   3.832 126.059  0.00  0.00    +0.000 C 
ATOM     32  C   UNL     1      -2.655   4.741 128.091  0.00  0.00    +0.000 C 
ATOM     33  C   UNL     1      -1.581   3.040 126.639  0.00  0.00    +0.000 C 
ENDBRANCH  29  30
ENDBRANCH  27  29
ENDBRANCH  26  27
ENDBRANCH  25  26
ENDBRANCH  23  25
ENDBRANCH   4  23
BRANCH   8  34
ATOM     34  O   UNL     1      -6.552   0.386 128.237  0.00  0.00    +0.000 OA
ATOM     35  H   UNL     1      -6.384   1.042 127.536  0.00  0.00    +0.000 HD
ENDBRANCH   8  34
TORSDOF 8
ENDMDL
MODEL 2
REMARK VINA RESULT:      -8.6      0.750      1.095
REMARK  Name = Prednisolone tebutate
REMARK  13 active torsions:
REMARK  status: ('A' for Active; 'I' for Inactive)
REMARK    1  A    between atoms: C_5  and  O_6
REMARK    2  A    between atoms: C_5  and  C_7
REMARK    3  A    between atoms: C_7  and  C_9
REMARK    4  A    between atoms: C_9  and  O_10
REMARK    5  A    between atoms: O_10  and  C_11
REMARK    6  A    between atoms: C_11  and  C_13
REMARK    7  A    between atoms: C_13  and  C_14
REMARK    8  A    between atoms: C_14  and  C_15
REMARK    9  A    between atoms: C_14  and  C_16
REMARK   10  A    between atoms: C_14  and  C_17
REMARK   11  A    between atoms: C_18  and  C_19
REMARK   12  A    between atoms: C_21  and  O_22
REMARK   13  A    between atoms: C_35  and  C_36
REMARK                            x       y       z     vdW  Elec       q    Type
REMARK                         _______ _______ _______ _____ _____    ______ ____
ROOT
ATOM      1  C   UNL     1      -7.140  -3.006 130.407  0.00  0.00    +0.000 C 
ATOM      2  C   UNL     1      -6.320  -4.162 130.356  0.00  0.00    +0.000 C 
ATOM      3  C   UNL     1      -5.750  -2.902 129.764  0.00  0.00    +0.000 C 
ATOM      4  C   UNL     1      -6.611  -1.099 130.323  0.00  0.00    +0.000 C 
ATOM      5  C   UNL     1      -5.676  -1.884 130.899  0.00  0.00    +0.000 C 
ATOM      6  C   UNL     1      -5.307  -2.021 132.328  0.00  0.00    +0.000 C 
ATOM      7  C   UNL     1      -4.638  -1.128 129.519  0.00  0.00    +0.000 C 
ATOM      8  C   UNL     1      -5.587  -0.898 128.102  0.00  0.00    +0.000 C 
ATOM      9  C   UNL     1      -6.621  -2.085 127.568  0.00  0.00    +0.000 C 
ATOM     10  C   UNL     1      -7.765  -2.575 128.749  0.00  0.00    +0.000 C 
ATOM     11  C   UNL     1      -8.543  -3.783 128.268  0.00  0.00    +0.000 C 
ATOM     12  C   UNL     1      -9.130  -3.576 126.891  0.00  0.00    +0.000 C 
ATOM     13  C   UNL     1      -8.184  -3.089 125.828  0.00  0.00    +0.000 C 
ATOM     14  C   UNL     1      -8.171  -3.580 124.574  0.00  0.00    +0.000 C 
ATOM     15  C   UNL     1      -7.271  -2.831 123.658  0.00  0.00    +0.000 C 
ATOM     16  O   UNL     1      -7.585  -2.043 122.778  0.00  0.00    +0.000 OA
ATOM     17  C   UNL     1      -5.827  -3.007 124.043  0.00  0.00    +0.000 C 
ATOM     18  C   UNL     1      -5.996  -2.117 125.059  0.00  0.00    +0.000 C 
ATOM     19  C   UNL     1      -7.222  -1.936 126.137  0.00  0.00    +0.000 C 
ATOM     20  C   UNL     1      -8.095  -0.676 126.226  0.00  0.00    +0.000 C 
ENDROOT
BRANCH   4  21
ATOM     21  O   UNL     1      -7.804  -1.099 131.229  0.00  0.00    +0.000 OA
ATOM     22  H   UNL     1      -8.540  -0.561 130.909  0.00  0.00    +0.000 HD
ENDBRANCH   4  21
BRANCH   4  23
ATOM     23  C   UNL     1      -6.004   0.515 131.041  0.00  0.00    +0.000 C 
ATOM     24  O   UNL     1      -6.743   1.251 131.719  0.00  0.00    +0.000 OA
BRANCH  23  25
ATOM     25  C   UNL     1      -4.545   1.214 130.791  0.00  0.00    +0.000 C 
BRANCH  25  26
ATOM     26  O   UNL     1      -4.704   2.324 129.742  0.00  0.00    +0.000 OA
BRANCH  26  27
ATOM     27  C   UNL     1      -4.610   3.638 130.126  0.00  0.00    +0.000 C 
ATOM     28  O   UNL     1      -5.552   4.202 130.670  0.00  0.00    +0.000 OA
BRANCH  27  29
ATOM     29  C   UNL     1      -3.240   4.343 129.810  0.00  0.00    +0.000 C 
BRANCH  29  30
ATOM     30  C   UNL     1      -3.106   4.864 128.324  0.00  0.00    +0.000 C 
ATOM     31  C   UNL     1      -2.331   3.842 127.473  0.00  0.00    +0.000 C 
ATOM     32  C   UNL     1      -4.499   5.123 127.722  0.00  0.00    +0.000 C 
ATOM     33  C   UNL     1      -2.325   6.202 128.238  0.00  0.00    +0.000 C 
ENDBRANCH  29  30
ENDBRANCH  27  29
ENDBRANCH  26  27
ENDBRANCH  25  26
ENDBRANCH  23  25
ENDBRANCH   4  23
BRANCH   8  34
ATOM     34  O   UNL     1      -6.320   0.327 128.323  0.00  0.00    +0.000 OA
ATOM     35  H   UNL     1      -7.269   0.140 128.445  0.00  0.00    +0.000 HD
ENDBRANCH   8  34
TORSDOF 8
ENDMDL
MODEL 3
REMARK VINA RESULT:      -8.5      5.618      9.798
REMARK  Name = Prednisolone tebutate
REMARK  13 active torsions:
REMARK  status: ('A' for Active; 'I' for Inactive)
REMARK    1  A    between atoms: C_5  and  O_6
REMARK    2  A    between atoms: C_5  and  C_7
REMARK    3  A    between atoms: C_7  and  C_9
REMARK    4  A    between atoms: C_9  and  O_10
REMARK    5  A    between atoms: O_10  and  C_11
REMARK    6  A    between atoms: C_11  and  C_13
REMARK    7  A    between atoms: C_13  and  C_14
REMARK    8  A    between atoms: C_14  and  C_15
REMARK    9  A    between atoms: C_14  and  C_16
REMARK   10  A    between atoms: C_14  and  C_17
REMARK   11  A    between atoms: C_18  and  C_19
REMARK   12  A    between atoms: C_21  and  O_22
REMARK   13  A    between atoms: C_35  and  C_36
REMARK                            x       y       z     vdW  Elec       q    Type
REMARK                         _______ _______ _______ _____ _____    ______ ____
ROOT
ATOM      1  C   UNL     1      -5.963   3.619 129.608  0.00  0.00    +0.000 C 
ATOM      2  C   UNL     1      -5.535   2.484 130.343  0.00  0.00    +0.000 C 
ATOM      3  C   UNL     1      -6.077   3.640 131.139  0.00  0.00    +0.000 C 
ATOM      4  C   UNL     1      -7.238   5.039 130.139  0.00  0.00    +0.000 C 
ATOM      5  C   UNL     1      -7.522   3.839 130.688  0.00  0.00    +0.000 C 
ATOM      6  C   UNL     1      -8.593   2.872 130.346  0.00  0.00    +0.000 C 
ATOM      7  C   UNL     1      -7.372   4.870 132.258  0.00  0.00    +0.000 C 
ATOM      8  C   UNL     1      -6.153   6.071 132.083  0.00  0.00    +0.000 C 
ATOM      9  C   UNL     1      -4.682   5.697 131.402  0.00  0.00    +0.000 C 
ATOM     10  C   UNL     1      -4.810   5.014 129.834  0.00  0.00    +0.000 C 
ATOM     11  C   UNL     1      -3.459   4.523 129.355  0.00  0.00    +0.000 C 
ATOM     12  C   UNL     1      -2.387   5.579 129.480  0.00  0.00    +0.000 C 
ATOM     13  C   UNL     1      -2.268   6.255 130.819  0.00  0.00    +0.000 C 
ATOM     14  C   UNL     1      -1.086   6.516 131.409  0.00  0.00    +0.000 C 
ATOM     15  C   UNL     1      -1.212   7.338 132.641  0.00  0.00    +0.000 C 
ATOM     16  O   UNL     1      -0.942   8.522 132.783  0.00  0.00    +0.000 OA
ATOM     17  C   UNL     1      -1.911   6.580 133.736  0.00  0.00    +0.000 C 
ATOM     18  C   UNL     1      -3.106   6.808 133.125  0.00  0.00    +0.000 C 
ATOM     19  C   UNL     1      -3.532   6.740 131.539  0.00  0.00    +0.000 C 
ATOM     20  C   UNL     1      -4.028   7.955 130.741  0.00  0.00    +0.000 C 
ENDROOT
BRANCH   4  21
ATOM     21  O   UNL     1      -7.445   4.907 128.661  0.00  0.00    +0.000 OA
ATOM     22  H   UNL     1      -7.475   3.994 128.348  0.00  0.00    +0.000 HD
ENDBRANCH   4  21
BRANCH   4  23
ATOM     23  C   UNL     1      -8.938   5.780 130.360  0.00  0.00    +0.000 C 
ATOM     24  O   UNL     1      -9.286   6.319 131.426  0.00  0.00    +0.000 OA
BRANCH  23  25
ATOM     25  C   UNL     1     -10.182   5.718 129.299  0.00  0.00    +0.000 C 
BRANCH  25  26
ATOM     26  O   UNL     1      -9.779   6.471 128.022  0.00  0.00    +0.000 OA
BRANCH  26  27
ATOM     27  C   UNL     1     -10.710   7.236 127.365  0.00  0.00    +0.000 C 
ATOM     28  O   UNL     1     -11.097   6.927 126.244  0.00  0.00    +0.000 OA
BRANCH  27  29
ATOM     29  C   UNL     1     -11.215   8.508 128.138  0.00  0.00    +0.000 C 
BRANCH  29  30
ATOM     30  C   UNL     1     -12.643   8.344 128.793  0.00  0.00    +0.000 C 
ATOM     31  C   UNL     1     -13.440   9.655 128.663  0.00  0.00    +0.000 C 
ATOM     32  C   UNL     1     -13.403   7.181 128.132  0.00  0.00    +0.000 C 
ATOM     33  C   UNL     1     -12.561   8.021 130.309  0.00  0.00    +0.000 C 
ENDBRANCH  29  30
ENDBRANCH  27  29
ENDBRANCH  26  27
ENDBRANCH  25  26
ENDBRANCH  23  25
ENDBRANCH   4  23
BRANCH   8  34
ATOM     34  O   UNL     1      -6.773   7.147 131.346  0.00  0.00    +0.000 OA
ATOM     35  H   UNL     1      -6.296   7.984 131.496  0.00  0.00    +0.000 HD
ENDBRANCH   8  34
TORSDOF 8
ENDMDL
MODEL 4
REMARK VINA RESULT:      -8.5      2.382      7.109
REMARK  Name = Prednisolone tebutate
REMARK  13 active torsions:
REMARK  status: ('A' for Active; 'I' for Inactive)
REMARK    1  A    between atoms: C_5  and  O_6
REMARK    2  A    between atoms: C_5  and  C_7
REMARK    3  A    between atoms: C_7  and  C_9
REMARK    4  A    between atoms: C_9  and  O_10
REMARK    5  A    between atoms: O_10  and  C_11
REMARK    6  A    between atoms: C_11  and  C_13
REMARK    7  A    between atoms: C_13  and  C_14
REMARK    8  A    between atoms: C_14  and  C_15
REMARK    9  A    between atoms: C_14  and  C_16
REMARK   10  A    between atoms: C_14  and  C_17
REMARK   11  A    between atoms: C_18  and  C_19
REMARK   12  A    between atoms: C_21  and  O_22
REMARK   13  A    between atoms: C_35  and  C_36
REMARK                            x       y       z     vdW  Elec       q    Type
REMARK                         _______ _______ _______ _____ _____    ______ ____
ROOT
ATOM      1  C   UNL     1      -4.712   3.740 126.888  0.00  0.00    +0.000 C 
ATOM      2  C   UNL     1      -3.451   3.396 126.339  0.00  0.00    +0.000 C 
ATOM      3  C   UNL     1      -4.607   2.498 125.992  0.00  0.00    +0.000 C 
ATOM      4  C   UNL     1      -6.523   3.250 126.253  0.00  0.00    +0.000 C 
ATOM      5  C   UNL     1      -5.624   3.365 125.253  0.00  0.00    +0.000 C 
ATOM      6  C   UNL     1      -5.460   4.443 124.248  0.00  0.00    +0.000 C 
ATOM      7  C   UNL     1      -6.202   1.598 124.948  0.00  0.00    +0.000 C 
ATOM      8  C   UNL     1      -6.540   0.803 126.436  0.00  0.00    +0.000 C 
ATOM      9  C   UNL     1      -5.502   0.939 127.729  0.00  0.00    +0.000 C 
ATOM     10  C   UNL     1      -5.199   2.562 128.192  0.00  0.00    +0.000 C 
ATOM     11  C   UNL     1      -4.106   2.622 129.239  0.00  0.00    +0.000 C 
ATOM     12  C   UNL     1      -4.370   1.690 130.399  0.00  0.00    +0.000 C 
ATOM     13  C   UNL     1      -4.700   0.264 130.048  0.00  0.00    +0.000 C 
ATOM     14  C   UNL     1      -4.191  -0.792 130.709  0.00  0.00    +0.000 C 
ATOM     15  C   UNL     1      -4.789  -2.089 130.296  0.00  0.00    +0.000 C 
ATOM     16  O   UNL     1      -5.599  -2.770 130.909  0.00  0.00    +0.000 OA
ATOM     17  C   UNL     1      -4.417  -2.438 128.881  0.00  0.00    +0.000 C 
ATOM     18  C   UNL     1      -5.339  -1.546 128.424  0.00  0.00    +0.000 C 
ATOM     19  C   UNL     1      -5.710  -0.028 128.933  0.00  0.00    +0.000 C 
ATOM     20  C   UNL     1      -7.083   0.365 129.498  0.00  0.00    +0.000 C 
ENDROOT
BRANCH   4  21
ATOM     21  O   UNL     1      -6.708   4.617 126.838  0.00  0.00    +0.000 OA
ATOM     22  H   UNL     1      -6.053   5.263 126.543  0.00  0.00    +0.000 HD
ENDBRANCH   4  21
BRANCH   4  23
ATOM     23  C   UNL     1      -8.047   3.446 125.191  0.00  0.00    +0.000 C 
ATOM     24  O   UNL     1      -8.975   4.212 125.507  0.00  0.00    +0.000 OA
BRANCH  23  25
ATOM     25  C   UNL     1      -8.420   2.597 123.842  0.00  0.00    +0.000 C 
BRANCH  25  26
ATOM     26  O   UNL     1      -9.408   1.483 124.218  0.00  0.00    +0.000 OA
BRANCH  26  27
ATOM     27  C   UNL     1      -9.598   0.429 123.360  0.00  0.00    +0.000 C 
ATOM     28  O   UNL     1     -10.651   0.302 122.745  0.00  0.00    +0.000 OA
BRANCH  27  29
ATOM     29  C   UNL     1      -8.397  -0.579 123.243  0.00  0.00    +0.000 C 
BRANCH  29  30
ATOM     30  C   UNL     1      -8.561  -1.887 124.114  0.00  0.00    +0.000 C 
ATOM     31  C   UNL     1      -9.238  -1.550 125.455  0.00  0.00    +0.000 C 
ATOM     32  C   UNL     1      -9.377  -2.941 123.346  0.00  0.00    +0.000 C 
ATOM     33  C   UNL     1      -7.196  -2.541 124.456  0.00  0.00    +0.000 C 
ENDBRANCH  29  30
ENDBRANCH  27  29
ENDBRANCH  26  27
ENDBRANCH  25  26
ENDBRANCH  23  25
ENDBRANCH   4  23
BRANCH   8  34
ATOM     34  O   UNL     1      -7.860   1.247 126.820  0.00  0.00    +0.000 OA
ATOM     35  H   UNL     1      -8.398   0.494 127.126  0.00  0.00    +0.000 HD
ENDBRANCH   8  34
TORSDOF 8
ENDMDL
MODEL 5
REMARK VINA RESULT:      -8.4      2.607      3.494
REMARK  Name = Prednisolone tebutate
REMARK  13 active torsions:
REMARK  status: ('A' for Active; 'I' for Inactive)
REMARK    1  A    between atoms: C_5  and  O_6
REMARK    2  A    between atoms: C_5  and  C_7
REMARK    3  A    between atoms: C_7  and  C_9
REMARK    4  A    between atoms: C_9  and  O_10
REMARK    5  A    between atoms: O_10  and  C_11
REMARK    6  A    between atoms: C_11  and  C_13
REMARK    7  A    between atoms: C_13  and  C_14
REMARK    8  A    between atoms: C_14  and  C_15
REMARK    9  A    between atoms: C_14  and  C_16
REMARK   10  A    between atoms: C_14  and  C_17
REMARK   11  A    between atoms: C_18  and  C_19
REMARK   12  A    between atoms: C_21  and  O_22
REMARK   13  A    between atoms: C_35  and  C_36
REMARK                            x       y       z     vdW  Elec       q    Type
REMARK                         _______ _______ _______ _____ _____    ______ ____
ROOT
ATOM      1  C   UNL     1      -7.457  -2.561 130.582  0.00  0.00    +0.000 C 
ATOM      2  C   UNL     1      -6.506  -3.608 130.686  0.00  0.00    +0.000 C 
ATOM      3  C   UNL     1      -6.040  -2.332 130.040  0.00  0.00    +0.000 C 
ATOM      4  C   UNL     1      -7.149  -0.614 130.386  0.00  0.00    +0.000 C 
ATOM      5  C   UNL     1      -6.181  -1.235 131.093  0.00  0.00    +0.000 C 
ATOM      6  C   UNL     1      -5.921  -1.226 132.552  0.00  0.00    +0.000 C 
ATOM      7  C   UNL     1      -5.126  -0.457 129.740  0.00  0.00    +0.000 C 
ATOM      8  C   UNL     1      -5.971  -0.445 128.241  0.00  0.00    +0.000 C 
ATOM      9  C   UNL     1      -6.811  -1.785 127.727  0.00  0.00    +0.000 C 
ATOM     10  C   UNL     1      -7.985  -2.327 128.852  0.00  0.00    +0.000 C 
ATOM     11  C   UNL     1      -8.572  -3.653 128.412  0.00  0.00    +0.000 C 
ATOM     12  C   UNL     1      -9.061  -3.617 126.983  0.00  0.00    +0.000 C 
ATOM     13  C   UNL     1      -8.092  -3.093 125.959  0.00  0.00    +0.000 C 
ATOM     14  C   UNL     1      -7.915  -3.666 124.753  0.00  0.00    +0.000 C 
ATOM     15  C   UNL     1      -7.035  -2.878 123.851  0.00  0.00    +0.000 C 
ATOM     16  O   UNL     1      -7.363  -2.198 122.889  0.00  0.00    +0.000 OA
ATOM     17  C   UNL     1      -5.618  -2.847 124.357  0.00  0.00    +0.000 C 
ATOM     18  C   UNL     1      -5.975  -1.916 125.283  0.00  0.00    +0.000 C 
ATOM     19  C   UNL     1      -7.301  -1.812 126.247  0.00  0.00    +0.000 C 
ATOM     20  C   UNL     1      -8.320  -0.665 126.168  0.00  0.00    +0.000 C 
ENDROOT
BRANCH   4  21
ATOM     21  O   UNL     1      -8.407  -0.697 131.197  0.00  0.00    +0.000 OA
ATOM     22  H   UNL     1      -8.288  -0.483 132.131  0.00  0.00    +0.000 HD
ENDBRANCH   4  21
BRANCH   4  23
ATOM     23  C   UNL     1      -6.798   1.108 131.017  0.00  0.00    +0.000 C 
ATOM     24  O   UNL     1      -5.713   1.678 130.805  0.00  0.00    +0.000 OA
BRANCH  23  25
ATOM     25  C   UNL     1      -7.756   2.012 131.991  0.00  0.00    +0.000 C 
BRANCH  25  26
ATOM     26  O   UNL     1      -9.051   2.346 131.235  0.00  0.00    +0.000 OA
BRANCH  26  27
ATOM     27  C   UNL     1      -8.990   3.091 130.084  0.00  0.00    +0.000 C 
ATOM     28  O   UNL     1      -9.255   2.589 128.998  0.00  0.00    +0.000 OA
BRANCH  27  29
ATOM     29  C   UNL     1      -8.556   4.591 130.266  0.00  0.00    +0.000 C 
BRANCH  29  30
ATOM     30  C   UNL     1      -9.682   5.524 130.864  0.00  0.00    +0.000 C 
ATOM     31  C   UNL     1     -11.072   5.014 130.445  0.00  0.00    +0.000 C 
ATOM     32  C   UNL     1      -9.567   5.583 132.398  0.00  0.00    +0.000 C 
ATOM     33  C   UNL     1      -9.569   6.985 130.351  0.00  0.00    +0.000 C 
ENDBRANCH  29  30
ENDBRANCH  27  29
ENDBRANCH  26  27
ENDBRANCH  25  26
ENDBRANCH  23  25
ENDBRANCH   4  23
BRANCH   8  34
ATOM     34  O   UNL     1      -6.858   0.693 128.307  0.00  0.00    +0.000 OA
ATOM     35  H   UNL     1      -6.992   0.970 129.232  0.00  0.00    +0.000 HD
ENDBRANCH   8  34
TORSDOF 8
ENDMDL
MODEL 6
REMARK VINA RESULT:      -8.3      3.251      8.697
REMARK  Name = Prednisolone tebutate
REMARK  13 active torsions:
REMARK  status: ('A' for Active; 'I' for Inactive)
REMARK    1  A    between atoms: C_5  and  O_6
REMARK    2  A    between atoms: C_5  and  C_7
REMARK    3  A    between atoms: C_7  and  C_9
REMARK    4  A    between atoms: C_9  and  O_10
REMARK    5  A    between atoms: O_10  and  C_11
REMARK    6  A    between atoms: C_11  and  C_13
REMARK    7  A    between atoms: C_13  and  C_14
REMARK    8  A    between atoms: C_14  and  C_15
REMARK    9  A    between atoms: C_14  and  C_16
REMARK   10  A    between atoms: C_14  and  C_17
REMARK   11  A    between atoms: C_18  and  C_19
REMARK   12  A    between atoms: C_21  and  O_22
REMARK   13  A    between atoms: C_35  and  C_36
REMARK                            x       y       z     vdW  Elec       q    Type
REMARK                         _______ _______ _______ _____ _____    ______ ____
ROOT
ATOM      1  C   UNL     1      -3.914   4.193 126.652  0.00  0.00    +0.000 C 
ATOM      2  C   UNL     1      -2.892   3.221 126.507  0.00  0.00    +0.000 C 
ATOM      3  C   UNL     1      -3.971   2.923 127.512  0.00  0.00    +0.000 C 
ATOM      4  C   UNL     1      -5.755   3.970 127.353  0.00  0.00    +0.000 C 
ATOM      5  C   UNL     1      -5.285   2.866 126.736  0.00  0.00    +0.000 C 
ATOM      6  C   UNL     1      -5.623   2.310 125.403  0.00  0.00    +0.000 C 
ATOM      7  C   UNL     1      -5.700   2.128 128.419  0.00  0.00    +0.000 C 
ATOM      8  C   UNL     1      -5.391   3.264 129.674  0.00  0.00    +0.000 C 
ATOM      9  C   UNL     1      -3.993   4.166 129.680  0.00  0.00    +0.000 C 
ATOM     10  C   UNL     1      -3.759   5.071 128.243  0.00  0.00    +0.000 C 
ATOM     11  C   UNL     1      -2.385   5.711 128.234  0.00  0.00    +0.000 C 
ATOM     12  C   UNL     1      -2.105   6.485 129.501  0.00  0.00    +0.000 C 
ATOM     13  C   UNL     1      -2.350   5.758 130.796  0.00  0.00    +0.000 C 
ATOM     14  C   UNL     1      -1.510   5.823 131.846  0.00  0.00    +0.000 C 
ATOM     15  C   UNL     1      -2.044   5.164 133.067  0.00  0.00    +0.000 C 
ATOM     16  O   UNL     1      -2.493   5.697 134.071  0.00  0.00    +0.000 OA
ATOM     17  C   UNL     1      -2.148   3.674 132.884  0.00  0.00    +0.000 C 
ATOM     18  C   UNL     1      -3.278   3.850 132.146  0.00  0.00    +0.000 C 
ATOM     19  C   UNL     1      -3.640   4.951 130.980  0.00  0.00    +0.000 C 
ATOM     20  C   UNL     1      -4.766   5.986 131.112  0.00  0.00    +0.000 C 
ENDROOT
BRANCH   4  21
ATOM     21  O   UNL     1      -5.897   5.032 126.305  0.00  0.00    +0.000 OA
ATOM     22  H   UNL     1      -5.497   5.878 126.545  0.00  0.00    +0.000 HD
ENDBRANCH   4  21
BRANCH   4  23
ATOM     23  C   UNL     1      -7.565   3.531 127.223  0.00  0.00    +0.000 C 
ATOM     24  O   UNL     1      -8.461   4.367 127.438  0.00  0.00    +0.000 OA
BRANCH  23  25
ATOM     25  C   UNL     1      -8.198   2.046 126.953  0.00  0.00    +0.000 C 
BRANCH  25  26
ATOM     26  O   UNL     1      -9.038   2.094 125.669  0.00  0.00    +0.000 OA
BRANCH  26  27
ATOM     27  C   UNL     1      -9.448   0.923 125.083  0.00  0.00    +0.000 C 
ATOM     28  O   UNL     1     -10.373   0.274 125.559  0.00  0.00    +0.000 OA
BRANCH  27  29
ATOM     29  C   UNL     1      -8.652   0.488 123.799  0.00  0.00    +0.000 C 
BRANCH  29  30
ATOM     30  C   UNL     1      -7.928  -0.911 123.928  0.00  0.00    +0.000 C 
ATOM     31  C   UNL     1      -8.894  -2.046 123.546  0.00  0.00    +0.000 C 
ATOM     32  C   UNL     1      -6.673  -0.945 123.037  0.00  0.00    +0.000 C 
ATOM     33  C   UNL     1      -7.455  -1.196 125.378  0.00  0.00    +0.000 C 
ENDBRANCH  29  30
ENDBRANCH  27  29
ENDBRANCH  26  27
ENDBRANCH  25  26
ENDBRANCH  23  25
ENDBRANCH   4  23
BRANCH   8  34
ATOM     34  O   UNL     1      -6.538   4.141 129.692  0.00  0.00    +0.000 OA
ATOM     35  H   UNL     1      -7.140   3.902 130.421  0.00  0.00    +0.000 HD
ENDBRANCH   8  34
TORSDOF 8
ENDMDL
MODEL 7
REMARK VINA RESULT:      -8.1      2.448      3.341
REMARK  Name = Prednisolone tebutate
REMARK  13 active torsions:
REMARK  status: ('A' for Active; 'I' for Inactive)
REMARK    1  A    between atoms: C_5  and  O_6
REMARK    2  A    between atoms: C_5  and  C_7
REMARK    3  A    between atoms: C_7  and  C_9
REMARK    4  A    between atoms: C_9  and  O_10
REMARK    5  A    between atoms: O_10  and  C_11
REMARK    6  A    between atoms: C_11  and  C_13
REMARK    7  A    between atoms: C_13  and  C_14
REMARK    8  A    between atoms: C_14  and  C_15
REMARK    9  A    between atoms: C_14  and  C_16
REMARK   10  A    between atoms: C_14  and  C_17
REMARK   11  A    between atoms: C_18  and  C_19
REMARK   12  A    between atoms: C_21  and  O_22
REMARK   13  A    between atoms: C_35  and  C_36
REMARK                            x       y       z     vdW  Elec       q    Type
REMARK                         _______ _______ _______ _____ _____    ______ ____
ROOT
ATOM      1  C   UNL     1      -6.650  -3.517 130.834  0.00  0.00    +0.000 C 
ATOM      2  C   UNL     1      -5.896  -4.694 130.596  0.00  0.00    +0.000 C 
ATOM      3  C   UNL     1      -5.302  -3.400 130.109  0.00  0.00    +0.000 C 
ATOM      4  C   UNL     1      -6.030  -1.638 130.925  0.00  0.00    +0.000 C 
ATOM      5  C   UNL     1      -5.101  -2.523 131.342  0.00  0.00    +0.000 C 
ATOM      6  C   UNL     1      -4.646  -2.840 132.717  0.00  0.00    +0.000 C 
ATOM      7  C   UNL     1      -4.119  -1.660 129.985  0.00  0.00    +0.000 C 
ATOM      8  C   UNL     1      -5.147  -1.228 128.674  0.00  0.00    +0.000 C 
ATOM      9  C   UNL     1      -6.274  -2.300 128.086  0.00  0.00    +0.000 C 
ATOM     10  C   UNL     1      -7.360  -2.872 129.283  0.00  0.00    +0.000 C 
ATOM     11  C   UNL     1      -8.229  -3.982 128.728  0.00  0.00    +0.000 C 
ATOM     12  C   UNL     1      -8.895  -3.594 127.428  0.00  0.00    +0.000 C 
ATOM     13  C   UNL     1      -7.997  -3.029 126.361  0.00  0.00    +0.000 C 
ATOM     14  C   UNL     1      -8.093  -3.373 125.063  0.00  0.00    +0.000 C 
ATOM     15  C   UNL     1      -7.219  -2.564 124.174  0.00  0.00    +0.000 C 
ATOM     16  O   UNL     1      -7.549  -1.667 123.412  0.00  0.00    +0.000 OA
ATOM     17  C   UNL     1      -5.763  -2.845 124.432  0.00  0.00    +0.000 C 
ATOM     18  C   UNL     1      -5.818  -2.071 125.551  0.00  0.00    +0.000 C 
ATOM     19  C   UNL     1      -6.960  -1.962 126.728  0.00  0.00    +0.000 C 
ATOM     20  C   UNL     1      -7.759  -0.684 127.018  0.00  0.00    +0.000 C 
ENDROOT
BRANCH   4  21
ATOM     21  O   UNL     1      -7.160  -1.690 131.909  0.00  0.00    +0.000 OA
ATOM     22  H   UNL     1      -6.881  -1.850 132.820  0.00  0.00    +0.000 HD
ENDBRANCH   4  21
BRANCH   4  23
ATOM     23  C   UNL     1      -5.296  -0.145 131.774  0.00  0.00    +0.000 C 
ATOM     24  O   UNL     1      -4.369   0.510 131.266  0.00  0.00    +0.000 OA
BRANCH  23  25
ATOM     25  C   UNL     1      -5.653   0.407 133.273  0.00  0.00    +0.000 C 
BRANCH  25  26
ATOM     26  O   UNL     1      -7.154   0.725 133.337  0.00  0.00    +0.000 OA
BRANCH  26  27
ATOM     27  C   UNL     1      -7.567   2.032 133.400  0.00  0.00    +0.000 C 
ATOM     28  O   UNL     1      -6.925   2.863 134.032  0.00  0.00    +0.000 OA
BRANCH  27  29
ATOM     29  C   UNL     1      -8.897   2.365 132.630  0.00  0.00    +0.000 C 
BRANCH  29  30
ATOM     30  C   UNL     1      -8.724   2.495 131.064  0.00  0.00    +0.000 C 
ATOM     31  C   UNL     1      -8.671   1.098 130.419  0.00  0.00    +0.000 C 
ATOM     32  C   UNL     1      -9.875   3.324 130.468  0.00  0.00    +0.000 C 
ATOM     33  C   UNL     1      -7.406   3.216 130.677  0.00  0.00    +0.000 C 
ENDBRANCH  29  30
ENDBRANCH  27  29
ENDBRANCH  26  27
ENDBRANCH  25  26
ENDBRANCH  23  25
ENDBRANCH   4  23
BRANCH   8  34
ATOM     34  O   UNL     1      -5.800  -0.006 129.081  0.00  0.00    +0.000 OA
ATOM     35  H   UNL     1      -5.161   0.729 129.115  0.00  0.00    +0.000 HD
ENDBRANCH   8  34
TORSDOF 8
ENDMDL
MODEL 8
REMARK VINA RESULT:      -8.0      2.925      6.550
REMARK  Name = Prednisolone tebutate
REMARK  13 active torsions:
REMARK  status: ('A' for Active; 'I' for Inactive)
REMARK    1  A    between atoms: C_5  and  O_6
REMARK    2  A    between atoms: C_5  and  C_7
REMARK    3  A    between atoms: C_7  and  C_9
REMARK    4  A    between atoms: C_9  and  O_10
REMARK    5  A    between atoms: O_10  and  C_11
REMARK    6  A    between atoms: C_11  and  C_13
REMARK    7  A    between atoms: C_13  and  C_14
REMARK    8  A    between atoms: C_14  and  C_15
REMARK    9  A    between atoms: C_14  and  C_16
REMARK   10  A    between atoms: C_14  and  C_17
REMARK   11  A    between atoms: C_18  and  C_19
REMARK   12  A    between atoms: C_21  and  O_22
REMARK   13  A    between atoms: C_35  and  C_36
REMARK                            x       y       z     vdW  Elec       q    Type
REMARK                         _______ _______ _______ _____ _____    ______ ____
ROOT
ATOM      1  C   UNL     1      -6.747  -2.951 128.723  0.00  0.00    +0.000 C 
ATOM      2  C   UNL     1      -8.003  -3.595 128.595  0.00  0.00    +0.000 C 
ATOM      3  C   UNL     1      -7.947  -2.395 129.500  0.00  0.00    +0.000 C 
ATOM      4  C   UNL     1      -6.351  -1.090 129.274  0.00  0.00    +0.000 C 
ATOM      5  C   UNL     1      -7.531  -1.213 128.629  0.00  0.00    +0.000 C 
ATOM      6  C   UNL     1      -7.897  -0.826 127.245  0.00  0.00    +0.000 C 
ATOM      7  C   UNL     1      -8.134  -0.427 130.232  0.00  0.00    +0.000 C 
ATOM      8  C   UNL     1      -7.209  -0.989 131.570  0.00  0.00    +0.000 C 
ATOM      9  C   UNL     1      -6.838  -2.602 131.730  0.00  0.00    +0.000 C 
ATOM     10  C   UNL     1      -6.023  -3.253 130.369  0.00  0.00    +0.000 C 
ATOM     11  C   UNL     1      -5.889  -4.757 130.498  0.00  0.00    +0.000 C 
ATOM     12  C   UNL     1      -5.295  -5.169 131.824  0.00  0.00    +0.000 C 
ATOM     13  C   UNL     1      -5.934  -4.580 133.053  0.00  0.00    +0.000 C 
ATOM     14  C   UNL     1      -6.191  -5.297 134.164  0.00  0.00    +0.000 C 
ATOM     15  C   UNL     1      -6.667  -4.468 135.302  0.00  0.00    +0.000 C 
ATOM     16  O   UNL     1      -6.043  -4.138 136.301  0.00  0.00    +0.000 OA
ATOM     17  C   UNL     1      -8.025  -3.884 135.025  0.00  0.00    +0.000 C 
ATOM     18  C   UNL     1      -7.453  -2.949 134.218  0.00  0.00    +0.000 C 
ATOM     19  C   UNL     1      -6.260  -3.083 133.096  0.00  0.00    +0.000 C 
ATOM     20  C   UNL     1      -4.908  -2.364 133.206  0.00  0.00    +0.000 C 
ENDROOT
BRANCH   4  21
ATOM     21  O   UNL     1      -5.273  -1.406 128.282  0.00  0.00    +0.000 OA
ATOM     22  H   UNL     1      -4.378  -1.243 128.609  0.00  0.00    +0.000 HD
ENDBRANCH   4  21
BRANCH   4  23
ATOM     23  C   UNL     1      -6.144   0.744 128.988  0.00  0.00    +0.000 C 
ATOM     24  O   UNL     1      -5.033   1.299 129.058  0.00  0.00    +0.000 OA
BRANCH  23  25
ATOM     25  C   UNL     1      -7.335   1.842 128.748  0.00  0.00    +0.000 C 
BRANCH  25  26
ATOM     26  O   UNL     1      -7.268   2.893 129.865  0.00  0.00    +0.000 OA
BRANCH  26  27
ATOM     27  C   UNL     1      -8.413   3.541 130.255  0.00  0.00    +0.000 C 
ATOM     28  O   UNL     1      -9.379   3.615 129.504  0.00  0.00    +0.000 OA
BRANCH  27  29
ATOM     29  C   UNL     1      -8.383   4.170 131.696  0.00  0.00    +0.000 C 
BRANCH  29  30
ATOM     30  C   UNL     1      -8.710   3.149 132.857  0.00  0.00    +0.000 C 
ATOM     31  C   UNL     1      -9.254   3.899 134.086  0.00  0.00    +0.000 C 
ATOM     32  C   UNL     1      -9.725   2.098 132.372  0.00  0.00    +0.000 C 
ATOM     33  C   UNL     1      -7.453   2.372 133.328  0.00  0.00    +0.000 C 
ENDBRANCH  29  30
ENDBRANCH  27  29
ENDBRANCH  26  27
ENDBRANCH  25  26
ENDBRANCH  23  25
ENDBRANCH   4  23
BRANCH   8  34
ATOM     34  O   UNL     1      -5.995  -0.207 131.557  0.00  0.00    +0.000 OA
ATOM     35  H   UNL     1      -5.786   0.084 130.650  0.00  0.00    +0.000 HD
ENDBRANCH   8  34
TORSDOF 8
ENDMDL
MODEL 9
REMARK VINA RESULT:      -7.8      2.476      5.862
REMARK  Name = Prednisolone tebutate
REMARK  13 active torsions:
REMARK  status: ('A' for Active; 'I' for Inactive)
REMARK    1  A    between atoms: C_5  and  O_6
REMARK    2  A    between atoms: C_5  and  C_7
REMARK    3  A    between atoms: C_7  and  C_9
REMARK    4  A    between atoms: C_9  and  O_10
REMARK    5  A    between atoms: O_10  and  C_11
REMARK    6  A    between atoms: C_11  and  C_13
REMARK    7  A    between atoms: C_13  and  C_14
REMARK    8  A    between atoms: C_14  and  C_15
REMARK    9  A    between atoms: C_14  and  C_16
REMARK   10  A    between atoms: C_14  and  C_17
REMARK   11  A    between atoms: C_18  and  C_19
REMARK   12  A    between atoms: C_21  and  O_22
REMARK   13  A    between atoms: C_35  and  C_36
REMARK                            x       y       z     vdW  Elec       q    Type
REMARK                         _______ _______ _______ _____ _____    ______ ____
ROOT
ATOM      1  C   UNL     1      -6.582  -2.815 129.230  0.00  0.00    +0.000 C 
ATOM      2  C   UNL     1      -7.745  -3.558 128.905  0.00  0.00    +0.000 C 
ATOM      3  C   UNL     1      -7.908  -2.454 129.913  0.00  0.00    +0.000 C 
ATOM      4  C   UNL     1      -6.441  -0.988 129.984  0.00  0.00    +0.000 C 
ATOM      5  C   UNL     1      -7.529  -1.157 129.202  0.00  0.00    +0.000 C 
ATOM      6  C   UNL     1      -7.788  -0.671 127.826  0.00  0.00    +0.000 C 
ATOM      7  C   UNL     1      -8.373  -0.594 130.790  0.00  0.00    +0.000 C 
ATOM      8  C   UNL     1      -7.538  -1.196 132.169  0.00  0.00    +0.000 C 
ATOM      9  C   UNL     1      -7.019  -2.775 132.227  0.00  0.00    +0.000 C 
ATOM     10  C   UNL     1      -6.005  -3.209 130.914  0.00  0.00    +0.000 C 
ATOM     11  C   UNL     1      -5.729  -4.699 130.924  0.00  0.00    +0.000 C 
ATOM     12  C   UNL     1      -5.236  -5.183 132.268  0.00  0.00    +0.000 C 
ATOM     13  C   UNL     1      -6.056  -4.781 133.463  0.00  0.00    +0.000 C 
ATOM     14  C   UNL     1      -6.351  -5.625 134.470  0.00  0.00    +0.000 C 
ATOM     15  C   UNL     1      -7.025  -4.961 135.616  0.00  0.00    +0.000 C 
ATOM     16  O   UNL     1      -6.546  -4.674 136.704  0.00  0.00    +0.000 OA
ATOM     17  C   UNL     1      -8.401  -4.483 135.241  0.00  0.00    +0.000 C 
ATOM     18  C   UNL     1      -7.849  -3.423 134.589  0.00  0.00    +0.000 C 
ATOM     19  C   UNL     1      -6.539  -3.333 133.601  0.00  0.00    +0.000 C 
ATOM     20  C   UNL     1      -5.287  -2.504 133.926  0.00  0.00    +0.000 C 
ENDROOT
BRANCH   4  21
ATOM     21  O   UNL     1      -5.239  -1.102 129.096  0.00  0.00    +0.000 OA
ATOM     22  H   UNL     1      -5.340  -1.740 128.378  0.00  0.00    +0.000 HD
ENDBRANCH   4  21
BRANCH   4  23
ATOM     23  C   UNL     1      -6.397   0.876 129.886  0.00  0.00    +0.000 C 
ATOM     24  O   UNL     1      -5.834   1.567 130.754  0.00  0.00    +0.000 OA
BRANCH  23  25
ATOM     25  C   UNL     1      -7.157   1.820 128.785  0.00  0.00    +0.000 C 
BRANCH  25  26
ATOM     26  O   UNL     1      -6.100   2.608 127.998  0.00  0.00    +0.000 OA
BRANCH  26  27
ATOM     27  C   UNL     1      -4.972   1.967 127.551  0.00  0.00    +0.000 C 
ATOM     28  O   UNL     1      -5.053   1.017 126.781  0.00  0.00    +0.000 OA
BRANCH  27  29
ATOM     29  C   UNL     1      -3.608   2.526 128.100  0.00  0.00    +0.000 C 
BRANCH  29  30
ATOM     30  C   UNL     1      -2.905   3.571 127.146  0.00  0.00    +0.000 C 
ATOM     31  C   UNL     1      -1.576   2.998 126.620  0.00  0.00    +0.000 C 
ATOM     32  C   UNL     1      -3.836   3.937 125.977  0.00  0.00    +0.000 C 
ATOM     33  C   UNL     1      -2.562   4.896 127.877  0.00  0.00    +0.000 C 
ENDBRANCH  29  30
ENDBRANCH  27  29
ENDBRANCH  26  27
ENDBRANCH  25  26
ENDBRANCH  23  25
ENDBRANCH   4  23
BRANCH   8  34
ATOM     34  O   UNL     1      -6.417  -0.306 132.361  0.00  0.00    +0.000 OA
ATOM     35  H   UNL     1      -5.911  -0.560 133.155  0.00  0.00    +0.000 HD
ENDBRANCH   8  34
TORSDOF 8
ENDMDL
