MODEL 1
REMARK VINA RESULT:      -5.2      0.000      0.000
REMARK  Name = Pregabalin
REMARK  9 active torsions:
REMARK  status: ('A' for Active; 'I' for Inactive)
REMARK    1  A    between atoms: C_1  and  C_2
REMARK    2  A    between atoms: C_2  and  C_3
REMARK    3  A    between atoms: C_2  and  C_4
REMARK    4  A    between atoms: C_4  and  C_5
REMARK    5  A    between atoms: C_5  and  C_6
REMARK    6  A    between atoms: C_5  and  C_8
REMARK    7  A    between atoms: C_6  and  N_7
REMARK    8  A    between atoms: C_8  and  C_9
REMARK    9  A    between atoms: C_9  and  O_10
REMARK                            x       y       z     vdW  Elec       q    Type
REMARK                         _______ _______ _______ _____ _____    ______ ____
ROOT
ATOM      1  C   UNL     1     -11.979   8.312 128.945  0.00  0.00    +0.000 C 
ENDROOT
BRANCH   1   2
ATOM      2  C   UNL     1     -12.284   6.848 129.334  0.00  0.00    +0.000 C 
BRANCH   2   4
ATOM      3  C   UNL     1     -10.675   6.520 131.283  0.00  0.00    +0.000 C 
ATOM      4  C   UNL     1     -12.125   6.537 130.830  0.00  0.00    +0.000 C 
ATOM      5  C   UNL     1     -12.859   7.594 131.644  0.00  0.00    +0.000 C 
ENDBRANCH   2   4
ENDBRANCH   1   2
BRANCH   1   6
ATOM      6  C   UNL     1     -13.201   9.086 128.393  0.00  0.00    +0.000 C 
BRANCH   6   7
ATOM      7  N   UNL     1     -13.277  10.401 129.014  0.00  0.00    +0.000 NA
ATOM      8  H   UNL     1     -13.163  10.326 130.021  0.00  0.00    +0.000 HD
ATOM      9  H   UNL     1     -14.215  10.774 128.857  0.00  0.00    +0.000 HD
ENDBRANCH   6   7
ENDBRANCH   1   6
BRANCH   1  10
ATOM     10  C   UNL     1     -10.892   8.343 127.854  0.00  0.00    +0.000 C 
BRANCH  10  11
ATOM     11  C   UNL     1     -10.682   7.136 126.973  0.00  0.00    +0.000 C 
ATOM     12  O   UNL     1      -9.704   6.424 127.107  0.00  0.00    +0.000 OA
BRANCH  11  13
ATOM     13  O   UNL     1     -11.642   6.844 126.077  0.00  0.00    +0.000 OA
ATOM     14  H   UNL     1     -11.999   5.940 126.073  0.00  0.00    +0.000 HD
ENDBRANCH  11  13
ENDBRANCH  10  11
ENDBRANCH   1  10
TORSDOF 7
ENDMDL
MODEL 2
REMARK VINA RESULT:      -4.9      1.919      2.576
REMARK  Name = Pregabalin
REMARK  9 active torsions:
REMARK  status: ('A' for Active; 'I' for Inactive)
REMARK    1  A    between atoms: C_1  and  C_2
REMARK    2  A    between atoms: C_2  and  C_3
REMARK    3  A    between atoms: C_2  and  C_4
REMARK    4  A    between atoms: C_4  and  C_5
REMARK    5  A    between atoms: C_5  and  C_6
REMARK    6  A    between atoms: C_5  and  C_8
REMARK    7  A    between atoms: C_6  and  N_7
REMARK    8  A    between atoms: C_8  and  C_9
REMARK    9  A    between atoms: C_9  and  O_10
REMARK                            x       y       z     vdW  Elec       q    Type
REMARK                         _______ _______ _______ _____ _____    ______ ____
ROOT
ATOM      1  C   UNL     1     -10.820   7.807 129.184  0.00  0.00    +0.000 C 
ENDROOT
BRANCH   1   2
ATOM      2  C   UNL     1      -9.754   6.768 129.596  0.00  0.00    +0.000 C 
BRANCH   2   4
ATOM      3  C   UNL     1      -9.872   5.966 132.013  0.00  0.00    +0.000 C 
ATOM      4  C   UNL     1      -9.226   6.928 131.030  0.00  0.00    +0.000 C 
ATOM      5  C   UNL     1      -7.723   6.674 131.044  0.00  0.00    +0.000 C 
ENDBRANCH   2   4
ENDBRANCH   1   2
BRANCH   1   6
ATOM      6  C   UNL     1     -12.278   7.328 129.382  0.00  0.00    +0.000 C 
BRANCH   6   7
ATOM      7  N   UNL     1     -12.347   5.879 129.249  0.00  0.00    +0.000 NA
ATOM      8  H   UNL     1     -12.098   5.597 128.306  0.00  0.00    +0.000 HD
ATOM      9  H   UNL     1     -13.318   5.592 129.389  0.00  0.00    +0.000 HD
ENDBRANCH   6   7
ENDBRANCH   1   6
BRANCH   1  10
ATOM     10  C   UNL     1     -10.655   8.155 127.692  0.00  0.00    +0.000 C 
BRANCH  10  11
ATOM     11  C   UNL     1     -10.712   7.058 126.658  0.00  0.00    +0.000 C 
ATOM     12  O   UNL     1      -9.710   6.445 126.338  0.00  0.00    +0.000 OA
BRANCH  11  13
ATOM     13  O   UNL     1     -11.916   6.742 126.149  0.00  0.00    +0.000 OA
ATOM     14  H   UNL     1     -12.591   7.440 126.112  0.00  0.00    +0.000 HD
ENDBRANCH  11  13
ENDBRANCH  10  11
ENDBRANCH   1  10
TORSDOF 7
ENDMDL
MODEL 3
REMARK VINA RESULT:      -4.8      2.699      3.409
REMARK  Name = Pregabalin
REMARK  9 active torsions:
REMARK  status: ('A' for Active; 'I' for Inactive)
REMARK    1  A    between atoms: C_1  and  C_2
REMARK    2  A    between atoms: C_2  and  C_3
REMARK    3  A    between atoms: C_2  and  C_4
REMARK    4  A    between atoms: C_4  and  C_5
REMARK    5  A    between atoms: C_5  and  C_6
REMARK    6  A    between atoms: C_5  and  C_8
REMARK    7  A    between atoms: C_6  and  N_7
REMARK    8  A    between atoms: C_8  and  C_9
REMARK    9  A    between atoms: C_9  and  O_10
REMARK                            x       y       z     vdW  Elec       q    Type
REMARK                         _______ _______ _______ _____ _____    ______ ____
ROOT
ATOM      1  C   UNL     1     -10.852   7.232 128.628  0.00  0.00    +0.000 C 
ENDROOT
BRANCH   1   2
ATOM      2  C   UNL     1     -12.260   6.702 128.980  0.00  0.00    +0.000 C 
BRANCH   2   4
ATOM      3  C   UNL     1     -12.934   7.482 131.310  0.00  0.00    +0.000 C 
ATOM      4  C   UNL     1     -13.117   7.666 129.814  0.00  0.00    +0.000 C 
ATOM      5  C   UNL     1     -12.740   9.101 129.467  0.00  0.00    +0.000 C 
ENDBRANCH   2   4
ENDBRANCH   1   2
BRANCH   1   6
ATOM      6  C   UNL     1     -10.536   7.227 127.113  0.00  0.00    +0.000 C 
BRANCH   6   7
ATOM      7  N   UNL     1     -11.681   6.721 126.369  0.00  0.00    +0.000 NA
ATOM      8  H   UNL     1     -12.343   7.469 126.183  0.00  0.00    +0.000 HD
ATOM      9  H   UNL     1     -12.171   6.045 126.958  0.00  0.00    +0.000 HD
ENDBRANCH   6   7
ENDBRANCH   1   6
BRANCH   1  10
ATOM     10  C   UNL     1      -9.783   6.362 129.318  0.00  0.00    +0.000 C 
BRANCH  10  11
ATOM     11  C   UNL     1      -9.031   6.904 130.508  0.00  0.00    +0.000 C 
ATOM     12  O   UNL     1      -8.002   7.538 130.364  0.00  0.00    +0.000 OA
BRANCH  11  13
ATOM     13  O   UNL     1      -9.570   6.714 131.726  0.00  0.00    +0.000 OA
ATOM     14  H   UNL     1     -10.538   6.650 131.789  0.00  0.00    +0.000 HD
ENDBRANCH  11  13
ENDBRANCH  10  11
ENDBRANCH   1  10
TORSDOF 7
ENDMDL
MODEL 4
REMARK VINA RESULT:      -4.8      2.466      3.544
REMARK  Name = Pregabalin
REMARK  9 active torsions:
REMARK  status: ('A' for Active; 'I' for Inactive)
REMARK    1  A    between atoms: C_1  and  C_2
REMARK    2  A    between atoms: C_2  and  C_3
REMARK    3  A    between atoms: C_2  and  C_4
REMARK    4  A    between atoms: C_4  and  C_5
REMARK    5  A    between atoms: C_5  and  C_6
REMARK    6  A    between atoms: C_5  and  C_8
REMARK    7  A    between atoms: C_6  and  N_7
REMARK    8  A    between atoms: C_8  and  C_9
REMARK    9  A    between atoms: C_9  and  O_10
REMARK                            x       y       z     vdW  Elec       q    Type
REMARK                         _______ _______ _______ _____ _____    ______ ____
ROOT
ATOM      1  C   UNL     1     -11.706   6.775 130.660  0.00  0.00    +0.000 C 
ENDROOT
BRANCH   1   2
ATOM      2  C   UNL     1     -12.735   7.924 130.570  0.00  0.00    +0.000 C 
BRANCH   2   4
ATOM      3  C   UNL     1     -13.503   8.103 128.147  0.00  0.00    +0.000 C 
ATOM      4  C   UNL     1     -12.683   8.728 129.262  0.00  0.00    +0.000 C 
ATOM      5  C   UNL     1     -13.223  10.131 129.512  0.00  0.00    +0.000 C 
ENDBRANCH   2   4
ENDBRANCH   1   2
BRANCH   1   6
ATOM      6  C   UNL     1     -11.276   6.424 132.105  0.00  0.00    +0.000 C 
BRANCH   6   7
ATOM      7  N   UNL     1     -10.569   5.151 132.117  0.00  0.00    +0.000 NA
ATOM      8  H   UNL     1      -9.989   5.059 131.289  0.00  0.00    +0.000 HD
ATOM      9  H   UNL     1     -11.261   4.401 132.069  0.00  0.00    +0.000 HD
ENDBRANCH   6   7
ENDBRANCH   1   6
BRANCH   1  10
ATOM     10  C   UNL     1     -10.430   7.160 129.888  0.00  0.00    +0.000 C 
BRANCH  10  11
ATOM     11  C   UNL     1      -9.878   6.225 128.840  0.00  0.00    +0.000 C 
ATOM     12  O   UNL     1      -9.457   5.123 129.142  0.00  0.00    +0.000 OA
BRANCH  11  13
ATOM     13  O   UNL     1      -9.924   6.627 127.557  0.00  0.00    +0.000 OA
ATOM     14  H   UNL     1     -10.750   6.482 127.065  0.00  0.00    +0.000 HD
ENDBRANCH  11  13
ENDBRANCH  10  11
ENDBRANCH   1  10
TORSDOF 7
ENDMDL
MODEL 5
REMARK VINA RESULT:      -4.7      3.077      4.414
REMARK  Name = Pregabalin
REMARK  9 active torsions:
REMARK  status: ('A' for Active; 'I' for Inactive)
REMARK    1  A    between atoms: C_1  and  C_2
REMARK    2  A    between atoms: C_2  and  C_3
REMARK    3  A    between atoms: C_2  and  C_4
REMARK    4  A    between atoms: C_4  and  C_5
REMARK    5  A    between atoms: C_5  and  C_6
REMARK    6  A    between atoms: C_5  and  C_8
REMARK    7  A    between atoms: C_6  and  N_7
REMARK    8  A    between atoms: C_8  and  C_9
REMARK    9  A    between atoms: C_9  and  O_10
REMARK                            x       y       z     vdW  Elec       q    Type
REMARK                         _______ _______ _______ _____ _____    ______ ____
ROOT
ATOM      1  C   UNL     1     -11.613   7.341 129.995  0.00  0.00    +0.000 C 
ENDROOT
BRANCH   1   2
ATOM      2  C   UNL     1     -12.487   6.453 129.081  0.00  0.00    +0.000 C 
BRANCH   2   4
ATOM      3  C   UNL     1     -13.387   8.713 128.323  0.00  0.00    +0.000 C 
ATOM      4  C   UNL     1     -13.309   7.223 128.037  0.00  0.00    +0.000 C 
ATOM      5  C   UNL     1     -12.677   7.040 126.663  0.00  0.00    +0.000 C 
ENDBRANCH   2   4
ENDBRANCH   1   2
BRANCH   1   6
ATOM      6  C   UNL     1     -10.110   7.344 129.624  0.00  0.00    +0.000 C 
BRANCH   6   7
ATOM      7  N   UNL     1      -9.822   6.243 128.715  0.00  0.00    +0.000 NA
ATOM      8  H   UNL     1      -8.911   5.844 128.917  0.00  0.00    +0.000 HD
ATOM      9  H   UNL     1      -9.767   6.619 127.766  0.00  0.00    +0.000 HD
ENDBRANCH   6   7
ENDBRANCH   1   6
BRANCH   1  10
ATOM     10  C   UNL     1     -11.721   6.850 131.451  0.00  0.00    +0.000 C 
BRANCH  10  11
ATOM     11  C   UNL     1     -10.624   5.993 132.034  0.00  0.00    +0.000 C 
ATOM     12  O   UNL     1      -9.889   6.422 132.904  0.00  0.00    +0.000 OA
BRANCH  11  13
ATOM     13  O   UNL     1     -10.529   4.723 131.602  0.00  0.00    +0.000 OA
ATOM     14  H   UNL     1      -9.665   4.282 131.676  0.00  0.00    +0.000 HD
ENDBRANCH  11  13
ENDBRANCH  10  11
ENDBRANCH   1  10
TORSDOF 7
ENDMDL
MODEL 6
REMARK VINA RESULT:      -4.7      3.019      3.738
REMARK  Name = Pregabalin
REMARK  9 active torsions:
REMARK  status: ('A' for Active; 'I' for Inactive)
REMARK    1  A    between atoms: C_1  and  C_2
REMARK    2  A    between atoms: C_2  and  C_3
REMARK    3  A    between atoms: C_2  and  C_4
REMARK    4  A    between atoms: C_4  and  C_5
REMARK    5  A    between atoms: C_5  and  C_6
REMARK    6  A    between atoms: C_5  and  C_8
REMARK    7  A    between atoms: C_6  and  N_7
REMARK    8  A    between atoms: C_8  and  C_9
REMARK    9  A    between atoms: C_9  and  O_10
REMARK                            x       y       z     vdW  Elec       q    Type
REMARK                         _______ _______ _______ _____ _____    ______ ____
ROOT
ATOM      1  C   UNL     1     -10.715   6.792 128.813  0.00  0.00    +0.000 C 
ENDROOT
BRANCH   1   2
ATOM      2  C   UNL     1      -9.855   7.409 129.939  0.00  0.00    +0.000 C 
BRANCH   2   4
ATOM      3  C   UNL     1      -7.634   6.854 131.059  0.00  0.00    +0.000 C 
ATOM      4  C   UNL     1      -9.049   6.390 130.759  0.00  0.00    +0.000 C 
ATOM      5  C   UNL     1      -9.754   6.143 132.087  0.00  0.00    +0.000 C 
ENDBRANCH   2   4
ENDBRANCH   1   2
BRANCH   1   6
ATOM      6  C   UNL     1     -10.704   7.602 127.494  0.00  0.00    +0.000 C 
BRANCH   6   7
ATOM      7  N   UNL     1     -11.011   6.727 126.372  0.00  0.00    +0.000 NA
ATOM      8  H   UNL     1     -11.321   7.271 125.572  0.00  0.00    +0.000 HD
ATOM      9  H   UNL     1     -11.797   6.132 126.637  0.00  0.00    +0.000 HD
ENDBRANCH   6   7
ENDBRANCH   1   6
BRANCH   1  10
ATOM     10  C   UNL     1     -12.182   6.697 129.275  0.00  0.00    +0.000 C 
BRANCH  10  11
ATOM     11  C   UNL     1     -12.711   7.676 130.294  0.00  0.00    +0.000 C 
ATOM     12  O   UNL     1     -12.827   8.857 130.026  0.00  0.00    +0.000 OA
BRANCH  11  13
ATOM     13  O   UNL     1     -13.104   7.186 131.483  0.00  0.00    +0.000 OA
ATOM     14  H   UNL     1     -13.382   6.255 131.522  0.00  0.00    +0.000 HD
ENDBRANCH  11  13
ENDBRANCH  10  11
ENDBRANCH   1  10
TORSDOF 7
ENDMDL
MODEL 7
REMARK VINA RESULT:      -4.6      2.496      3.297
REMARK  Name = Pregabalin
REMARK  9 active torsions:
REMARK  status: ('A' for Active; 'I' for Inactive)
REMARK    1  A    between atoms: C_1  and  C_2
REMARK    2  A    between atoms: C_2  and  C_3
REMARK    3  A    between atoms: C_2  and  C_4
REMARK    4  A    between atoms: C_4  and  C_5
REMARK    5  A    between atoms: C_5  and  C_6
REMARK    6  A    between atoms: C_5  and  C_8
REMARK    7  A    between atoms: C_6  and  N_7
REMARK    8  A    between atoms: C_8  and  C_9
REMARK    9  A    between atoms: C_9  and  O_10
REMARK                            x       y       z     vdW  Elec       q    Type
REMARK                         _______ _______ _______ _____ _____    ______ ____
ROOT
ATOM      1  C   UNL     1     -11.053   7.471 128.531  0.00  0.00    +0.000 C 
ENDROOT
BRANCH   1   2
ATOM      2  C   UNL     1      -9.929   7.397 129.589  0.00  0.00    +0.000 C 
BRANCH   2   4
ATOM      3  C   UNL     1     -11.139   5.431 130.668  0.00  0.00    +0.000 C 
ATOM      4  C   UNL     1     -10.326   6.694 130.896  0.00  0.00    +0.000 C 
ATOM      5  C   UNL     1      -9.067   6.311 131.663  0.00  0.00    +0.000 C 
ENDBRANCH   2   4
ENDBRANCH   1   2
BRANCH   1   6
ATOM      6  C   UNL     1     -10.558   7.315 127.073  0.00  0.00    +0.000 C 
BRANCH   6   7
ATOM      7  N   UNL     1     -11.597   6.697 126.260  0.00  0.00    +0.000 NA
ATOM      8  H   UNL     1     -11.483   5.688 126.244  0.00  0.00    +0.000 HD
ATOM      9  H   UNL     1     -11.480   7.016 125.296  0.00  0.00    +0.000 HD
ENDBRANCH   6   7
ENDBRANCH   1   6
BRANCH   1  10
ATOM     10  C   UNL     1     -11.764   8.835 128.626  0.00  0.00    +0.000 C 
BRANCH  10  11
ATOM     11  C   UNL     1     -13.255   8.918 128.403  0.00  0.00    +0.000 C 
ATOM     12  O   UNL     1     -13.851   9.969 128.544  0.00  0.00    +0.000 OA
BRANCH  11  13
ATOM     13  O   UNL     1     -13.886   7.806 127.985  0.00  0.00    +0.000 OA
ATOM     14  H   UNL     1     -14.188   7.775 127.061  0.00  0.00    +0.000 HD
ENDBRANCH  11  13
ENDBRANCH  10  11
ENDBRANCH   1  10
TORSDOF 7
ENDMDL
MODEL 8
REMARK VINA RESULT:      -4.6      2.466      3.675
REMARK  Name = Pregabalin
REMARK  9 active torsions:
REMARK  status: ('A' for Active; 'I' for Inactive)
REMARK    1  A    between atoms: C_1  and  C_2
REMARK    2  A    between atoms: C_2  and  C_3
REMARK    3  A    between atoms: C_2  and  C_4
REMARK    4  A    between atoms: C_4  and  C_5
REMARK    5  A    between atoms: C_5  and  C_6
REMARK    6  A    between atoms: C_5  and  C_8
REMARK    7  A    between atoms: C_6  and  N_7
REMARK    8  A    between atoms: C_8  and  C_9
REMARK    9  A    between atoms: C_9  and  O_10
REMARK                            x       y       z     vdW  Elec       q    Type
REMARK                         _______ _______ _______ _____ _____    ______ ____
ROOT
ATOM      1  C   UNL     1     -11.670   7.158 129.950  0.00  0.00    +0.000 C 
ENDROOT
BRANCH   1   2
ATOM      2  C   UNL     1     -11.858   8.469 129.154  0.00  0.00    +0.000 C 
BRANCH   2   4
ATOM      3  C   UNL     1     -11.054   7.879 126.809  0.00  0.00    +0.000 C 
ATOM      4  C   UNL     1     -12.236   8.271 127.678  0.00  0.00    +0.000 C 
ATOM      5  C   UNL     1     -13.285   7.171 127.571  0.00  0.00    +0.000 C 
ENDBRANCH   2   4
ENDBRANCH   1   2
BRANCH   1   6
ATOM      6  C   UNL     1     -12.408   7.135 131.311  0.00  0.00    +0.000 C 
BRANCH   6   7
ATOM      7  N   UNL     1     -11.913   6.034 132.125  0.00  0.00    +0.000 NA
ATOM      8  H   UNL     1     -12.331   6.060 133.050  0.00  0.00    +0.000 HD
ATOM      9  H   UNL     1     -10.909   6.163 132.260  0.00  0.00    +0.000 HD
ENDBRANCH   6   7
ENDBRANCH   1   6
BRANCH   1  10
ATOM     10  C   UNL     1     -10.173   6.939 130.242  0.00  0.00    +0.000 C 
BRANCH  10  11
ATOM     11  C   UNL     1      -9.486   5.695 129.735  0.00  0.00    +0.000 C 
ATOM     12  O   UNL     1      -8.326   5.724 129.370  0.00  0.00    +0.000 OA
BRANCH  11  13
ATOM     13  O   UNL     1     -10.183   4.544 129.760  0.00  0.00    +0.000 OA
ATOM     14  H   UNL     1     -11.055   4.550 130.189  0.00  0.00    +0.000 HD
ENDBRANCH  11  13
ENDBRANCH  10  11
ENDBRANCH   1  10
TORSDOF 7
ENDMDL
MODEL 9
REMARK VINA RESULT:      -4.6      3.010      4.201
REMARK  Name = Pregabalin
REMARK  9 active torsions:
REMARK  status: ('A' for Active; 'I' for Inactive)
REMARK    1  A    between atoms: C_1  and  C_2
REMARK    2  A    between atoms: C_2  and  C_3
REMARK    3  A    between atoms: C_2  and  C_4
REMARK    4  A    between atoms: C_4  and  C_5
REMARK    5  A    between atoms: C_5  and  C_6
REMARK    6  A    between atoms: C_5  and  C_8
REMARK    7  A    between atoms: C_6  and  N_7
REMARK    8  A    between atoms: C_8  and  C_9
REMARK    9  A    between atoms: C_9  and  O_10
REMARK                            x       y       z     vdW  Elec       q    Type
REMARK                         _______ _______ _______ _____ _____    ______ ____
ROOT
ATOM      1  C   UNL     1     -11.761   5.829 130.440  0.00  0.00    +0.000 C 
ENDROOT
BRANCH   1   2
ATOM      2  C   UNL     1     -12.096   6.667 129.186  0.00  0.00    +0.000 C 
BRANCH   2   4
ATOM      3  C   UNL     1     -10.559   8.463 128.232  0.00  0.00    +0.000 C 
ATOM      4  C   UNL     1     -11.634   8.131 129.253  0.00  0.00    +0.000 C 
ATOM      5  C   UNL     1     -12.825   9.046 128.995  0.00  0.00    +0.000 C 
ENDBRANCH   2   4
ENDBRANCH   1   2
BRANCH   1   6
ATOM      6  C   UNL     1     -11.788   6.634 131.762  0.00  0.00    +0.000 C 
BRANCH   6   7
ATOM      7  N   UNL     1     -10.707   6.193 132.633  0.00  0.00    +0.000 NA
ATOM      8  H   UNL     1     -10.252   5.371 132.247  0.00  0.00    +0.000 HD
ATOM      9  H   UNL     1     -11.114   5.904 133.525  0.00  0.00    +0.000 HD
ENDBRANCH   6   7
ENDBRANCH   1   6
BRANCH   1  10
ATOM     10  C   UNL     1     -10.349   5.230 130.301  0.00  0.00    +0.000 C 
BRANCH  10  11
ATOM     11  C   UNL     1     -10.158   3.736 130.396  0.00  0.00    +0.000 C 
ATOM     12  O   UNL     1      -9.693   3.103 129.466  0.00  0.00    +0.000 OA
BRANCH  11  13
ATOM     13  O   UNL     1     -10.463   3.141 131.563  0.00  0.00    +0.000 OA
ATOM     14  H   UNL     1     -10.436   2.169 131.599  0.00  0.00    +0.000 HD
ENDBRANCH  11  13
ENDBRANCH  10  11
ENDBRANCH   1  10
TORSDOF 7
ENDMDL
