MODEL 1
REMARK VINA RESULT:      -8.0      0.000      0.000
REMARK  Name = Pregnenolone
REMARK  5 active torsions:
REMARK  status: ('A' for Active; 'I' for Inactive)
REMARK    1  A    between atoms: C_5  and  C_6
REMARK    2  A    between atoms: C_6  and  C_7
REMARK    3  A    between atoms: C_9  and  C_10
REMARK    4  A    between atoms: C_21  and  O_22
REMARK    5  A    between atoms: C_25  and  C_26
REMARK                            x       y       z     vdW  Elec       q    Type
REMARK                         _______ _______ _______ _____ _____    ______ ____
ROOT
ATOM      1  C   UNL     1      -6.487  -2.627 126.390  0.00  0.00    +0.000 C 
ATOM      2  C   UNL     1      -5.712  -1.985 125.261  0.00  0.00    +0.000 C 
ATOM      3  C   UNL     1      -6.442  -2.449 124.005  0.00  0.00    +0.000 C 
ATOM      4  C   UNL     1      -7.769  -3.112 124.445  0.00  0.00    +0.000 C 
ATOM      5  C   UNL     1      -7.954  -2.632 125.912  0.00  0.00    +0.000 C 
ATOM      6  C   UNL     1      -8.641  -1.245 125.917  0.00  0.00    +0.000 C 
ATOM      7  C   UNL     1      -8.698  -3.594 126.861  0.00  0.00    +0.000 C 
ATOM      8  C   UNL     1      -8.578  -3.130 128.326  0.00  0.00    +0.000 C 
ATOM      9  C   UNL     1      -7.119  -2.875 128.800  0.00  0.00    +0.000 C 
ATOM     10  C   UNL     1      -6.307  -2.032 127.784  0.00  0.00    +0.000 C 
ATOM     11  C   UNL     1      -4.823  -2.013 128.170  0.00  0.00    +0.000 C 
ATOM     12  C   UNL     1      -4.600  -1.770 129.625  0.00  0.00    +0.000 C 
ATOM     13  C   UNL     1      -5.559  -1.849 130.563  0.00  0.00    +0.000 C 
ATOM     14  C   UNL     1      -5.237  -1.527 132.004  0.00  0.00    +0.000 C 
ATOM     15  C   UNL     1      -5.702  -2.626 132.961  0.00  0.00    +0.000 C 
ATOM     16  C   UNL     1      -7.168  -2.984 132.731  0.00  0.00    +0.000 C 
ATOM     17  C   UNL     1      -7.419  -3.370 131.273  0.00  0.00    +0.000 C 
ATOM     18  C   UNL     1      -7.004  -2.272 130.253  0.00  0.00    +0.000 C 
ATOM     19  C   UNL     1      -7.916  -1.032 130.414  0.00  0.00    +0.000 C 
ENDROOT
BRANCH   4  20
ATOM     20  C   UNL     1      -8.982  -2.848 123.547  0.00  0.00    +0.000 C 
ATOM     21  C   UNL     1      -9.033  -1.657 122.620  0.00  0.00    +0.000 C 
ATOM     22  O   UNL     1      -9.963  -3.603 123.603  0.00  0.00    +0.000 OA
ENDBRANCH   4  20
BRANCH  15  23
ATOM     23  O   UNL     1      -5.521  -2.205 134.311  0.00  0.00    +0.000 OA
ATOM     24  H   UNL     1      -6.382  -2.264 134.761  0.00  0.00    +0.000 HD
ENDBRANCH  15  23
TORSDOF 2
ENDMDL
MODEL 2
REMARK VINA RESULT:      -7.9      1.427      7.228
REMARK  Name = Pregnenolone
REMARK  5 active torsions:
REMARK  status: ('A' for Active; 'I' for Inactive)
REMARK    1  A    between atoms: C_5  and  C_6
REMARK    2  A    between atoms: C_6  and  C_7
REMARK    3  A    between atoms: C_9  and  C_10
REMARK    4  A    between atoms: C_21  and  O_22
REMARK    5  A    between atoms: C_25  and  C_26
REMARK                            x       y       z     vdW  Elec       q    Type
REMARK                         _______ _______ _______ _____ _____    ______ ____
ROOT
ATOM      1  C   UNL     1      -6.234  -3.395 130.307  0.00  0.00    +0.000 C 
ATOM      2  C   UNL     1      -6.778  -3.618 131.700  0.00  0.00    +0.000 C 
ATOM      3  C   UNL     1      -5.543  -3.550 132.592  0.00  0.00    +0.000 C 
ATOM      4  C   UNL     1      -4.369  -3.019 131.735  0.00  0.00    +0.000 C 
ATOM      5  C   UNL     1      -5.067  -2.403 130.490  0.00  0.00    +0.000 C 
ATOM      6  C   UNL     1      -5.496  -0.950 130.808  0.00  0.00    +0.000 C 
ATOM      7  C   UNL     1      -4.274  -2.442 129.168  0.00  0.00    +0.000 C 
ATOM      8  C   UNL     1      -5.169  -2.055 127.974  0.00  0.00    +0.000 C 
ATOM      9  C   UNL     1      -6.490  -2.869 127.872  0.00  0.00    +0.000 C 
ATOM     10  C   UNL     1      -7.229  -2.966 129.232  0.00  0.00    +0.000 C 
ATOM     11  C   UNL     1      -8.385  -3.970 129.141  0.00  0.00    +0.000 C 
ATOM     12  C   UNL     1      -9.203  -3.810 127.903  0.00  0.00    +0.000 C 
ATOM     13  C   UNL     1      -8.829  -3.085 126.835  0.00  0.00    +0.000 C 
ATOM     14  C   UNL     1      -9.761  -2.942 125.654  0.00  0.00    +0.000 C 
ATOM     15  C   UNL     1      -9.072  -3.276 124.330  0.00  0.00    +0.000 C 
ATOM     16  C   UNL     1      -7.765  -2.503 124.170  0.00  0.00    +0.000 C 
ATOM     17  C   UNL     1      -6.835  -2.743 125.359  0.00  0.00    +0.000 C 
ATOM     18  C   UNL     1      -7.467  -2.381 126.733  0.00  0.00    +0.000 C 
ATOM     19  C   UNL     1      -7.703  -0.855 126.818  0.00  0.00    +0.000 C 
ENDROOT
BRANCH   4  20
ATOM     20  C   UNL     1      -3.400  -2.065 132.441  0.00  0.00    +0.000 C 
ATOM     21  C   UNL     1      -3.740  -1.437 133.772  0.00  0.00    +0.000 C 
ATOM     22  O   UNL     1      -2.327  -1.766 131.898  0.00  0.00    +0.000 OA
ENDBRANCH   4  20
BRANCH  15  23
ATOM     23  O   UNL     1      -9.940  -2.972 123.240  0.00  0.00    +0.000 OA
ATOM     24  H   UNL     1     -10.853  -3.139 123.530  0.00  0.00    +0.000 HD
ENDBRANCH  15  23
TORSDOF 2
ENDMDL
MODEL 3
REMARK VINA RESULT:      -7.8      1.702      3.011
REMARK  Name = Pregnenolone
REMARK  5 active torsions:
REMARK  status: ('A' for Active; 'I' for Inactive)
REMARK    1  A    between atoms: C_5  and  C_6
REMARK    2  A    between atoms: C_6  and  C_7
REMARK    3  A    between atoms: C_9  and  C_10
REMARK    4  A    between atoms: C_21  and  O_22
REMARK    5  A    between atoms: C_25  and  C_26
REMARK                            x       y       z     vdW  Elec       q    Type
REMARK                         _______ _______ _______ _____ _____    ______ ____
ROOT
ATOM      1  C   UNL     1      -7.907  -2.514 127.508  0.00  0.00    +0.000 C 
ATOM      2  C   UNL     1      -8.982  -3.474 127.049  0.00  0.00    +0.000 C 
ATOM      3  C   UNL     1      -9.597  -2.784 125.836  0.00  0.00    +0.000 C 
ATOM      4  C   UNL     1      -8.690  -1.588 125.461  0.00  0.00    +0.000 C 
ATOM      5  C   UNL     1      -7.361  -1.881 126.212  0.00  0.00    +0.000 C 
ATOM      6  C   UNL     1      -6.481  -2.822 125.353  0.00  0.00    +0.000 C 
ATOM      7  C   UNL     1      -6.541  -0.654 126.660  0.00  0.00    +0.000 C 
ATOM      8  C   UNL     1      -5.404  -1.068 127.616  0.00  0.00    +0.000 C 
ATOM      9  C   UNL     1      -5.866  -1.921 128.831  0.00  0.00    +0.000 C 
ATOM     10  C   UNL     1      -6.815  -3.074 128.415  0.00  0.00    +0.000 C 
ATOM     11  C   UNL     1      -7.434  -3.731 129.655  0.00  0.00    +0.000 C 
ATOM     12  C   UNL     1      -6.439  -3.992 130.736  0.00  0.00    +0.000 C 
ATOM     13  C   UNL     1      -5.205  -3.463 130.776  0.00  0.00    +0.000 C 
ATOM     14  C   UNL     1      -4.255  -3.838 131.890  0.00  0.00    +0.000 C 
ATOM     15  C   UNL     1      -3.645  -2.611 132.569  0.00  0.00    +0.000 C 
ATOM     16  C   UNL     1      -3.036  -1.653 131.548  0.00  0.00    +0.000 C 
ATOM     17  C   UNL     1      -4.063  -1.252 130.489  0.00  0.00    +0.000 C 
ATOM     18  C   UNL     1      -4.688  -2.458 129.733  0.00  0.00    +0.000 C 
ATOM     19  C   UNL     1      -3.608  -3.161 128.878  0.00  0.00    +0.000 C 
ENDROOT
BRANCH   4  20
ATOM     20  C   UNL     1      -8.513  -1.324 123.963  0.00  0.00    +0.000 C 
ATOM     21  C   UNL     1      -8.901  -2.354 122.928  0.00  0.00    +0.000 C 
ATOM     22  O   UNL     1      -8.005  -0.259 123.582  0.00  0.00    +0.000 OA
ENDBRANCH   4  20
BRANCH  15  23
ATOM     23  O   UNL     1      -2.642  -3.017 133.497  0.00  0.00    +0.000 OA
ATOM     24  H   UNL     1      -2.348  -3.911 133.248  0.00  0.00    +0.000 HD
ENDBRANCH  15  23
TORSDOF 2
ENDMDL
MODEL 4
REMARK VINA RESULT:      -7.6      4.711      6.059
REMARK  Name = Pregnenolone
REMARK  5 active torsions:
REMARK  status: ('A' for Active; 'I' for Inactive)
REMARK    1  A    between atoms: C_5  and  C_6
REMARK    2  A    between atoms: C_6  and  C_7
REMARK    3  A    between atoms: C_9  and  C_10
REMARK    4  A    between atoms: C_21  and  O_22
REMARK    5  A    between atoms: C_25  and  C_26
REMARK                            x       y       z     vdW  Elec       q    Type
REMARK                         _______ _______ _______ _____ _____    ______ ____
ROOT
ATOM      1  C   UNL     1      -7.198   1.074 124.354  0.00  0.00    +0.000 C 
ATOM      2  C   UNL     1      -8.548   1.304 123.714  0.00  0.00    +0.000 C 
ATOM      3  C   UNL     1      -8.938  -0.069 123.176  0.00  0.00    +0.000 C 
ATOM      4  C   UNL     1      -7.944  -1.104 123.755  0.00  0.00    +0.000 C 
ATOM      5  C   UNL     1      -7.272  -0.352 124.938  0.00  0.00    +0.000 C 
ATOM      6  C   UNL     1      -8.156  -0.489 126.202  0.00  0.00    +0.000 C 
ATOM      7  C   UNL     1      -5.817  -0.746 125.265  0.00  0.00    +0.000 C 
ATOM      8  C   UNL     1      -5.187   0.246 126.262  0.00  0.00    +0.000 C 
ATOM      9  C   UNL     1      -5.292   1.738 125.837  0.00  0.00    +0.000 C 
ATOM     10  C   UNL     1      -6.719   2.115 125.362  0.00  0.00    +0.000 C 
ATOM     11  C   UNL     1      -6.719   3.512 124.729  0.00  0.00    +0.000 C 
ATOM     12  C   UNL     1      -5.952   4.515 125.524  0.00  0.00    +0.000 C 
ATOM     13  C   UNL     1      -5.105   4.206 126.521  0.00  0.00    +0.000 C 
ATOM     14  C   UNL     1      -4.421   5.305 127.301  0.00  0.00    +0.000 C 
ATOM     15  C   UNL     1      -2.908   5.099 127.386  0.00  0.00    +0.000 C 
ATOM     16  C   UNL     1      -2.562   3.697 127.880  0.00  0.00    +0.000 C 
ATOM     17  C   UNL     1      -3.223   2.628 127.009  0.00  0.00    +0.000 C 
ATOM     18  C   UNL     1      -4.769   2.760 126.919  0.00  0.00    +0.000 C 
ATOM     19  C   UNL     1      -5.404   2.480 128.302  0.00  0.00    +0.000 C 
ENDROOT
BRANCH   4  20
ATOM     20  C   UNL     1      -8.537  -2.463 124.138  0.00  0.00    +0.000 C 
ATOM     21  C   UNL     1      -7.656  -3.659 124.415  0.00  0.00    +0.000 C 
ATOM     22  O   UNL     1      -9.767  -2.605 124.189  0.00  0.00    +0.000 OA
ENDBRANCH   4  20
BRANCH  15  23
ATOM     23  O   UNL     1      -2.334   6.067 128.261  0.00  0.00    +0.000 OA
ATOM     24  H   UNL     1      -1.444   6.278 127.931  0.00  0.00    +0.000 HD
ENDBRANCH  15  23
TORSDOF 2
ENDMDL
MODEL 5
REMARK VINA RESULT:      -7.4      3.488      7.256
REMARK  Name = Pregnenolone
REMARK  5 active torsions:
REMARK  status: ('A' for Active; 'I' for Inactive)
REMARK    1  A    between atoms: C_5  and  C_6
REMARK    2  A    between atoms: C_6  and  C_7
REMARK    3  A    between atoms: C_9  and  C_10
REMARK    4  A    between atoms: C_21  and  O_22
REMARK    5  A    between atoms: C_25  and  C_26
REMARK                            x       y       z     vdW  Elec       q    Type
REMARK                         _______ _______ _______ _____ _____    ______ ____
ROOT
ATOM      1  C   UNL     1      -5.356   0.506 128.198  0.00  0.00    +0.000 C 
ATOM      2  C   UNL     1      -5.223   0.525 129.704  0.00  0.00    +0.000 C 
ATOM      3  C   UNL     1      -4.130   1.558 129.962  0.00  0.00    +0.000 C 
ATOM      4  C   UNL     1      -3.857   2.301 128.633  0.00  0.00    +0.000 C 
ATOM      5  C   UNL     1      -5.095   1.960 127.757  0.00  0.00    +0.000 C 
ATOM      6  C   UNL     1      -6.241   2.950 128.079  0.00  0.00    +0.000 C 
ATOM      7  C   UNL     1      -4.862   1.899 126.234  0.00  0.00    +0.000 C 
ATOM      8  C   UNL     1      -6.083   1.294 125.511  0.00  0.00    +0.000 C 
ATOM      9  C   UNL     1      -6.545  -0.079 126.073  0.00  0.00    +0.000 C 
ATOM     10  C   UNL     1      -6.642  -0.080 127.621  0.00  0.00    +0.000 C 
ATOM     11  C   UNL     1      -6.861  -1.506 128.141  0.00  0.00    +0.000 C 
ATOM     12  C   UNL     1      -7.893  -2.258 127.370  0.00  0.00    +0.000 C 
ATOM     13  C   UNL     1      -8.379  -1.873 126.177  0.00  0.00    +0.000 C 
ATOM     14  C   UNL     1      -9.466  -2.681 125.507  0.00  0.00    +0.000 C 
ATOM     15  C   UNL     1      -9.122  -3.024 124.057  0.00  0.00    +0.000 C 
ATOM     16  C   UNL     1      -8.716  -1.780 123.270  0.00  0.00    +0.000 C 
ATOM     17  C   UNL     1      -7.565  -1.046 123.958  0.00  0.00    +0.000 C 
ATOM     18  C   UNL     1      -7.873  -0.632 125.425  0.00  0.00    +0.000 C 
ATOM     19  C   UNL     1      -8.991   0.436 125.448  0.00  0.00    +0.000 C 
ENDROOT
BRANCH   4  20
ATOM     20  C   UNL     1      -3.572   3.802 128.750  0.00  0.00    +0.000 C 
ATOM     21  C   UNL     1      -2.810   4.546 127.678  0.00  0.00    +0.000 C 
ATOM     22  O   UNL     1      -3.938   4.420 129.759  0.00  0.00    +0.000 OA
ENDBRANCH   4  20
BRANCH  15  23
ATOM     23  O   UNL     1     -10.240  -3.642 123.424  0.00  0.00    +0.000 OA
ATOM     24  H   UNL     1     -10.171  -3.480 122.468  0.00  0.00    +0.000 HD
ENDBRANCH  15  23
TORSDOF 2
ENDMDL
MODEL 6
REMARK VINA RESULT:      -7.3      3.060      7.358
REMARK  Name = Pregnenolone
REMARK  5 active torsions:
REMARK  status: ('A' for Active; 'I' for Inactive)
REMARK    1  A    between atoms: C_5  and  C_6
REMARK    2  A    between atoms: C_6  and  C_7
REMARK    3  A    between atoms: C_9  and  C_10
REMARK    4  A    between atoms: C_21  and  O_22
REMARK    5  A    between atoms: C_25  and  C_26
REMARK                            x       y       z     vdW  Elec       q    Type
REMARK                         _______ _______ _______ _____ _____    ______ ____
ROOT
ATOM      1  C   UNL     1      -7.552  -1.853 127.301  0.00  0.00    +0.000 C 
ATOM      2  C   UNL     1      -8.498  -2.920 127.806  0.00  0.00    +0.000 C 
ATOM      3  C   UNL     1      -7.692  -3.649 128.876  0.00  0.00    +0.000 C 
ATOM      4  C   UNL     1      -6.415  -2.820 129.153  0.00  0.00    +0.000 C 
ATOM      5  C   UNL     1      -6.735  -1.429 128.538  0.00  0.00    +0.000 C 
ATOM      6  C   UNL     1      -7.516  -0.578 129.569  0.00  0.00    +0.000 C 
ATOM      7  C   UNL     1      -5.536  -0.628 127.991  0.00  0.00    +0.000 C 
ATOM      8  C   UNL     1      -6.011   0.592 127.175  0.00  0.00    +0.000 C 
ATOM      9  C   UNL     1      -7.032   0.254 126.052  0.00  0.00    +0.000 C 
ATOM     10  C   UNL     1      -8.168  -0.676 126.550  0.00  0.00    +0.000 C 
ATOM     11  C   UNL     1      -9.006  -1.176 125.365  0.00  0.00    +0.000 C 
ATOM     12  C   UNL     1      -9.351  -0.096 124.396  0.00  0.00    +0.000 C 
ATOM     13  C   UNL     1      -8.772   1.116 124.372  0.00  0.00    +0.000 C 
ATOM     14  C   UNL     1      -9.238   2.159 123.382  0.00  0.00    +0.000 C 
ATOM     15  C   UNL     1      -8.078   2.767 122.593  0.00  0.00    +0.000 C 
ATOM     16  C   UNL     1      -6.970   3.262 123.520  0.00  0.00    +0.000 C 
ATOM     17  C   UNL     1      -6.489   2.145 124.447  0.00  0.00    +0.000 C 
ATOM     18  C   UNL     1      -7.620   1.515 125.309  0.00  0.00    +0.000 C 
ATOM     19  C   UNL     1      -8.156   2.557 126.318  0.00  0.00    +0.000 C 
ENDROOT
BRANCH   4  20
ATOM     20  C   UNL     1      -5.956  -2.763 130.614  0.00  0.00    +0.000 C 
ATOM     21  C   UNL     1      -6.849  -3.225 131.741  0.00  0.00    +0.000 C 
ATOM     22  O   UNL     1      -4.842  -2.294 130.890  0.00  0.00    +0.000 OA
ENDBRANCH   4  20
BRANCH  15  23
ATOM     23  O   UNL     1      -8.548   3.851 121.795  0.00  0.00    +0.000 OA
ATOM     24  H   UNL     1      -7.799   4.186 121.274  0.00  0.00    +0.000 HD
ENDBRANCH  15  23
TORSDOF 2
ENDMDL
MODEL 7
REMARK VINA RESULT:      -7.2      1.565      2.564
REMARK  Name = Pregnenolone
REMARK  5 active torsions:
REMARK  status: ('A' for Active; 'I' for Inactive)
REMARK    1  A    between atoms: C_5  and  C_6
REMARK    2  A    between atoms: C_6  and  C_7
REMARK    3  A    between atoms: C_9  and  C_10
REMARK    4  A    between atoms: C_21  and  O_22
REMARK    5  A    between atoms: C_25  and  C_26
REMARK                            x       y       z     vdW  Elec       q    Type
REMARK                         _______ _______ _______ _____ _____    ______ ____
ROOT
ATOM      1  C   UNL     1      -8.524  -2.414 126.782  0.00  0.00    +0.000 C 
ATOM      2  C   UNL     1      -8.445  -3.712 126.011  0.00  0.00    +0.000 C 
ATOM      3  C   UNL     1      -8.964  -3.347 124.624  0.00  0.00    +0.000 C 
ATOM      4  C   UNL     1      -9.067  -1.805 124.548  0.00  0.00    +0.000 C 
ATOM      5  C   UNL     1      -8.207  -1.316 125.747  0.00  0.00    +0.000 C 
ATOM      6  C   UNL     1      -6.722  -1.242 125.317  0.00  0.00    +0.000 C 
ATOM      7  C   UNL     1      -8.635   0.013 126.402  0.00  0.00    +0.000 C 
ATOM      8  C   UNL     1      -7.880   0.244 127.727  0.00  0.00    +0.000 C 
ATOM      9  C   UNL     1      -7.967  -0.941 128.730  0.00  0.00    +0.000 C 
ATOM     10  C   UNL     1      -7.685  -2.307 128.053  0.00  0.00    +0.000 C 
ATOM     11  C   UNL     1      -8.018  -3.457 129.012  0.00  0.00    +0.000 C 
ATOM     12  C   UNL     1      -7.501  -3.235 130.394  0.00  0.00    +0.000 C 
ATOM     13  C   UNL     1      -7.053  -2.055 130.855  0.00  0.00    +0.000 C 
ATOM     14  C   UNL     1      -6.497  -1.952 132.257  0.00  0.00    +0.000 C 
ATOM     15  C   UNL     1      -7.134  -0.809 133.050  0.00  0.00    +0.000 C 
ATOM     16  C   UNL     1      -7.079   0.506 132.277  0.00  0.00    +0.000 C 
ATOM     17  C   UNL     1      -7.721   0.359 130.896  0.00  0.00    +0.000 C 
ATOM     18  C   UNL     1      -7.086  -0.761 130.026  0.00  0.00    +0.000 C 
ATOM     19  C   UNL     1      -5.630  -0.384 129.661  0.00  0.00    +0.000 C 
ENDROOT
BRANCH   4  20
ATOM     20  C   UNL     1      -8.682  -1.172 123.207  0.00  0.00    +0.000 C 
ATOM     21  C   UNL     1      -9.133   0.220 122.833  0.00  0.00    +0.000 C 
ATOM     22  O   UNL     1      -8.018  -1.823 122.388  0.00  0.00    +0.000 OA
ENDBRANCH   4  20
BRANCH  15  23
ATOM     23  O   UNL     1      -6.466  -0.654 134.300  0.00  0.00    +0.000 OA
ATOM     24  H   UNL     1      -5.509  -0.722 134.139  0.00  0.00    +0.000 HD
ENDBRANCH  15  23
TORSDOF 2
ENDMDL
MODEL 8
REMARK VINA RESULT:      -7.2      2.773      3.799
REMARK  Name = Pregnenolone
REMARK  5 active torsions:
REMARK  status: ('A' for Active; 'I' for Inactive)
REMARK    1  A    between atoms: C_5  and  C_6
REMARK    2  A    between atoms: C_6  and  C_7
REMARK    3  A    between atoms: C_9  and  C_10
REMARK    4  A    between atoms: C_21  and  O_22
REMARK    5  A    between atoms: C_25  and  C_26
REMARK                            x       y       z     vdW  Elec       q    Type
REMARK                         _______ _______ _______ _____ _____    ______ ____
ROOT
ATOM      1  C   UNL     1      -8.758  -0.322 126.070  0.00  0.00    +0.000 C 
ATOM      2  C   UNL     1      -8.942  -0.853 124.666  0.00  0.00    +0.000 C 
ATOM      3  C   UNL     1      -9.372   0.372 123.865  0.00  0.00    +0.000 C 
ATOM      4  C   UNL     1      -9.159   1.619 124.755  0.00  0.00    +0.000 C 
ATOM      5  C   UNL     1      -8.221   1.111 125.886  0.00  0.00    +0.000 C 
ATOM      6  C   UNL     1      -6.750   1.196 125.411  0.00  0.00    +0.000 C 
ATOM      7  C   UNL     1      -8.373   1.793 127.261  0.00  0.00    +0.000 C 
ATOM      8  C   UNL     1      -7.591   1.027 128.348  0.00  0.00    +0.000 C 
ATOM      9  C   UNL     1      -7.920  -0.491 128.424  0.00  0.00    +0.000 C 
ATOM     10  C   UNL     1      -7.919  -1.164 127.027  0.00  0.00    +0.000 C 
ATOM     11  C   UNL     1      -8.481  -2.589 127.121  0.00  0.00    +0.000 C 
ATOM     12  C   UNL     1      -7.934  -3.359 128.276  0.00  0.00    +0.000 C 
ATOM     13  C   UNL     1      -7.258  -2.812 129.300  0.00  0.00    +0.000 C 
ATOM     14  C   UNL     1      -6.697  -3.692 130.393  0.00  0.00    +0.000 C 
ATOM     15  C   UNL     1      -7.091  -3.205 131.788  0.00  0.00    +0.000 C 
ATOM     16  C   UNL     1      -6.768  -1.725 131.976  0.00  0.00    +0.000 C 
ATOM     17  C   UNL     1      -7.422  -0.877 130.883  0.00  0.00    +0.000 C 
ATOM     18  C   UNL     1      -7.024  -1.299 129.441  0.00  0.00    +0.000 C 
ATOM     19  C   UNL     1      -5.522  -1.018 129.204  0.00  0.00    +0.000 C 
ENDROOT
BRANCH   4  20
ATOM     20  C   UNL     1      -8.650   2.875 124.042  0.00  0.00    +0.000 C 
ATOM     21  C   UNL     1      -8.276   2.854 122.578  0.00  0.00    +0.000 C 
ATOM     22  O   UNL     1      -8.502   3.927 124.679  0.00  0.00    +0.000 OA
ENDBRANCH   4  20
BRANCH  15  23
ATOM     23  O   UNL     1      -6.409  -3.969 132.781  0.00  0.00    +0.000 OA
ATOM     24  H   UNL     1      -7.077  -4.349 133.377  0.00  0.00    +0.000 HD
ENDBRANCH  15  23
TORSDOF 2
ENDMDL
MODEL 9
REMARK VINA RESULT:      -7.2      5.285      8.416
REMARK  Name = Pregnenolone
REMARK  5 active torsions:
REMARK  status: ('A' for Active; 'I' for Inactive)
REMARK    1  A    between atoms: C_5  and  C_6
REMARK    2  A    between atoms: C_6  and  C_7
REMARK    3  A    between atoms: C_9  and  C_10
REMARK    4  A    between atoms: C_21  and  O_22
REMARK    5  A    between atoms: C_25  and  C_26
REMARK                            x       y       z     vdW  Elec       q    Type
REMARK                         _______ _______ _______ _____ _____    ______ ____
ROOT
ATOM      1  C   UNL     1      -4.301   2.767 126.454  0.00  0.00    +0.000 C 
ATOM      2  C   UNL     1      -3.189   2.330 127.382  0.00  0.00    +0.000 C 
ATOM      3  C   UNL     1      -2.466   3.629 127.725  0.00  0.00    +0.000 C 
ATOM      4  C   UNL     1      -3.335   4.803 127.215  0.00  0.00    +0.000 C 
ATOM      5  C   UNL     1      -4.727   4.156 126.971  0.00  0.00    +0.000 C 
ATOM      6  C   UNL     1      -5.525   4.138 128.297  0.00  0.00    +0.000 C 
ATOM      7  C   UNL     1      -5.583   4.775 125.848  0.00  0.00    +0.000 C 
ATOM      8  C   UNL     1      -6.803   3.887 125.529  0.00  0.00    +0.000 C 
ATOM      9  C   UNL     1      -6.454   2.401 125.230  0.00  0.00    +0.000 C 
ATOM     10  C   UNL     1      -5.472   1.805 126.270  0.00  0.00    +0.000 C 
ATOM     11  C   UNL     1      -4.969   0.433 125.805  0.00  0.00    +0.000 C 
ATOM     12  C   UNL     1      -6.058  -0.442 125.281  0.00  0.00    +0.000 C 
ATOM     13  C   UNL     1      -7.291  -0.012 124.964  0.00  0.00    +0.000 C 
ATOM     14  C   UNL     1      -8.338  -0.994 124.494  0.00  0.00    +0.000 C 
ATOM     15  C   UNL     1      -9.007  -0.550 123.192  0.00  0.00    +0.000 C 
ATOM     16  C   UNL     1      -9.520   0.885 123.289  0.00  0.00    +0.000 C 
ATOM     17  C   UNL     1      -8.401   1.843 123.697  0.00  0.00    +0.000 C 
ATOM     18  C   UNL     1      -7.710   1.466 125.038  0.00  0.00    +0.000 C 
ATOM     19  C   UNL     1      -8.708   1.626 126.209  0.00  0.00    +0.000 C 
ENDROOT
BRANCH   4  20
ATOM     20  C   UNL     1      -3.374   6.046 128.110  0.00  0.00    +0.000 C 
ATOM     21  C   UNL     1      -2.628   6.098 129.422  0.00  0.00    +0.000 C 
ATOM     22  O   UNL     1      -4.061   7.022 127.776  0.00  0.00    +0.000 OA
ENDBRANCH   4  20
BRANCH  15  23
ATOM     23  O   UNL     1     -10.091  -1.422 122.880  0.00  0.00    +0.000 OA
ATOM     24  H   UNL     1     -10.912  -1.002 123.189  0.00  0.00    +0.000 HD
ENDBRANCH  15  23
TORSDOF 2
ENDMDL
