MODEL 1
REMARK VINA RESULT:      -8.1      0.000      0.000
REMARK  Name = Prenylamine
REMARK  9 active torsions:
REMARK  status: ('A' for Active; 'I' for Inactive)
REMARK    1  A    between atoms: C_1  and  C_2
REMARK    2  A    between atoms: C_2  and  C_3
REMARK    3  A    between atoms: C_2  and  N_10
REMARK    4  A    between atoms: C_3  and  C_4
REMARK    5  A    between atoms: N_10  and  C_11
REMARK    6  A    between atoms: C_11  and  C_12
REMARK    7  A    between atoms: C_12  and  C_13
REMARK    8  A    between atoms: C_13  and  C_14
REMARK    9  A    between atoms: C_13  and  C_20
REMARK                            x       y       z     vdW  Elec       q    Type
REMARK                         _______ _______ _______ _____ _____    ______ ____
ROOT
ATOM      1  C   UNL     1      -7.588   0.529 126.391  0.00  0.00    +0.000 C 
ENDROOT
BRANCH   1   2
ATOM      2  C   UNL     1      -8.290   1.702 125.743  0.00  0.00    +0.000 C 
BRANCH   2   3
ATOM      3  N   UNL     1      -7.597   2.949 126.054  0.00  0.00    +0.000 NA
ATOM      4  H   UNL     1      -8.156   3.495 126.710  0.00  0.00    +0.000 HD
BRANCH   3   6
ATOM      5  C   UNL     1      -6.575   4.989 125.189  0.00  0.00    +0.000 C 
ATOM      6  C   UNL     1      -7.366   3.731 124.830  0.00  0.00    +0.000 C 
BRANCH   6   7
ATOM      7  C   UNL     1      -6.612   2.923 123.749  0.00  0.00    +0.000 C 
BRANCH   7   8
ATOM      8  C   UNL     1      -7.018   3.232 122.333  0.00  0.00    +0.000 A 
ATOM      9  C   UNL     1      -6.067   3.649 121.390  0.00  0.00    +0.000 A 
ATOM     10  C   UNL     1      -6.471   4.106 120.141  0.00  0.00    +0.000 A 
ATOM     11  C   UNL     1      -7.823   4.118 119.817  0.00  0.00    +0.000 A 
ATOM     12  C   UNL     1      -8.773   3.670 120.735  0.00  0.00    +0.000 A 
ATOM     13  C   UNL     1      -8.373   3.234 121.996  0.00  0.00    +0.000 A 
ENDBRANCH   7   8
ENDBRANCH   6   7
ENDBRANCH   3   6
ENDBRANCH   2   3
ENDBRANCH   1   2
BRANCH   1  14
ATOM     14  C   UNL     1      -8.002  -0.823 125.758  0.00  0.00    +0.000 C 
BRANCH  14  15
ATOM     15  C   UNL     1      -6.963  -1.309 124.728  0.00  0.00    +0.000 A 
ATOM     16  C   UNL     1      -7.177  -1.197 123.341  0.00  0.00    +0.000 A 
ATOM     17  C   UNL     1      -6.399  -1.890 122.416  0.00  0.00    +0.000 A 
ATOM     18  C   UNL     1      -5.335  -2.652 122.850  0.00  0.00    +0.000 A 
ATOM     19  C   UNL     1      -5.039  -2.718 124.213  0.00  0.00    +0.000 A 
ATOM     20  C   UNL     1      -5.847  -2.048 125.145  0.00  0.00    +0.000 A 
ENDBRANCH  14  15
BRANCH  14  21
ATOM     21  C   UNL     1      -8.268  -1.809 126.890  0.00  0.00    +0.000 A 
ATOM     22  C   UNL     1      -7.816  -1.523 128.193  0.00  0.00    +0.000 A 
ATOM     23  C   UNL     1      -7.863  -2.482 129.195  0.00  0.00    +0.000 A 
ATOM     24  C   UNL     1      -8.520  -3.674 128.957  0.00  0.00    +0.000 A 
ATOM     25  C   UNL     1      -9.089  -3.929 127.706  0.00  0.00    +0.000 A 
ATOM     26  C   UNL     1      -8.937  -3.009 126.663  0.00  0.00    +0.000 A 
ENDBRANCH  14  21
ENDBRANCH   1  14
TORSDOF 8
ENDMDL
MODEL 2
REMARK VINA RESULT:      -8.1      1.353      6.520
REMARK  Name = Prenylamine
REMARK  9 active torsions:
REMARK  status: ('A' for Active; 'I' for Inactive)
REMARK    1  A    between atoms: C_1  and  C_2
REMARK    2  A    between atoms: C_2  and  C_3
REMARK    3  A    between atoms: C_2  and  N_10
REMARK    4  A    between atoms: C_3  and  C_4
REMARK    5  A    between atoms: N_10  and  C_11
REMARK    6  A    between atoms: C_11  and  C_12
REMARK    7  A    between atoms: C_12  and  C_13
REMARK    8  A    between atoms: C_13  and  C_14
REMARK    9  A    between atoms: C_13  and  C_20
REMARK                            x       y       z     vdW  Elec       q    Type
REMARK                         _______ _______ _______ _____ _____    ______ ____
ROOT
ATOM      1  C   UNL     1      -6.293   2.306 124.508  0.00  0.00    +0.000 C 
ENDROOT
BRANCH   1   2
ATOM      2  C   UNL     1      -6.610   2.632 125.952  0.00  0.00    +0.000 C 
BRANCH   2   3
ATOM      3  N   UNL     1      -6.185   1.543 126.826  0.00  0.00    +0.000 NA
ATOM      4  H   UNL     1      -5.753   0.807 126.269  0.00  0.00    +0.000 HD
BRANCH   3   6
ATOM      5  C   UNL     1      -8.198   2.154 128.061  0.00  0.00    +0.000 C 
ATOM      6  C   UNL     1      -7.334   0.995 127.564  0.00  0.00    +0.000 C 
BRANCH   6   7
ATOM      7  C   UNL     1      -8.184   0.034 126.703  0.00  0.00    +0.000 C 
BRANCH   7   8
ATOM      8  C   UNL     1      -8.217  -1.389 127.193  0.00  0.00    +0.000 A 
ATOM      9  C   UNL     1      -8.796  -2.402 126.414  0.00  0.00    +0.000 A 
ATOM     10  C   UNL     1      -8.987  -3.671 126.944  0.00  0.00    +0.000 A 
ATOM     11  C   UNL     1      -8.573  -3.946 128.241  0.00  0.00    +0.000 A 
ATOM     12  C   UNL     1      -7.963  -2.955 129.011  0.00  0.00    +0.000 A 
ATOM     13  C   UNL     1      -7.791  -1.675 128.491  0.00  0.00    +0.000 A 
ENDBRANCH   7   8
ENDBRANCH   6   7
ENDBRANCH   3   6
ENDBRANCH   2   3
ENDBRANCH   1   2
BRANCH   1  14
ATOM     14  C   UNL     1      -7.573   2.174 123.645  0.00  0.00    +0.000 C 
BRANCH  14  15
ATOM     15  C   UNL     1      -7.486   3.033 122.366  0.00  0.00    +0.000 A 
ATOM     16  C   UNL     1      -8.630   3.393 121.629  0.00  0.00    +0.000 A 
ATOM     17  C   UNL     1      -8.543   3.902 120.336  0.00  0.00    +0.000 A 
ATOM     18  C   UNL     1      -7.306   4.139 119.774  0.00  0.00    +0.000 A 
ATOM     19  C   UNL     1      -6.148   3.873 120.507  0.00  0.00    +0.000 A 
ATOM     20  C   UNL     1      -6.239   3.327 121.796  0.00  0.00    +0.000 A 
ENDBRANCH  14  15
BRANCH  14  21
ATOM     21  C   UNL     1      -7.813   0.691 123.386  0.00  0.00    +0.000 A 
ATOM     22  C   UNL     1      -6.723  -0.198 123.323  0.00  0.00    +0.000 A 
ATOM     23  C   UNL     1      -6.888  -1.507 122.892  0.00  0.00    +0.000 A 
ATOM     24  C   UNL     1      -8.165  -1.993 122.690  0.00  0.00    +0.000 A 
ATOM     25  C   UNL     1      -9.275  -1.161 122.870  0.00  0.00    +0.000 A 
ATOM     26  C   UNL     1      -9.097   0.189 123.189  0.00  0.00    +0.000 A 
ENDBRANCH  14  21
ENDBRANCH   1  14
TORSDOF 8
ENDMDL
MODEL 3
REMARK VINA RESULT:      -8.1      1.648      6.580
REMARK  Name = Prenylamine
REMARK  9 active torsions:
REMARK  status: ('A' for Active; 'I' for Inactive)
REMARK    1  A    between atoms: C_1  and  C_2
REMARK    2  A    between atoms: C_2  and  C_3
REMARK    3  A    between atoms: C_2  and  N_10
REMARK    4  A    between atoms: C_3  and  C_4
REMARK    5  A    between atoms: N_10  and  C_11
REMARK    6  A    between atoms: C_11  and  C_12
REMARK    7  A    between atoms: C_12  and  C_13
REMARK    8  A    between atoms: C_13  and  C_14
REMARK    9  A    between atoms: C_13  and  C_20
REMARK                            x       y       z     vdW  Elec       q    Type
REMARK                         _______ _______ _______ _____ _____    ______ ____
ROOT
ATOM      1  C   UNL     1      -7.661   3.002 124.605  0.00  0.00    +0.000 C 
ENDROOT
BRANCH   1   2
ATOM      2  C   UNL     1      -6.682   3.370 125.699  0.00  0.00    +0.000 C 
BRANCH   2   3
ATOM      3  N   UNL     1      -5.323   2.996 125.316  0.00  0.00    +0.000 NA
ATOM      4  H   UNL     1      -5.334   2.576 124.388  0.00  0.00    +0.000 HD
BRANCH   3   6
ATOM      5  C   UNL     1      -3.678   2.754 127.102  0.00  0.00    +0.000 C 
ATOM      6  C   UNL     1      -4.758   2.044 126.285  0.00  0.00    +0.000 C 
BRANCH   6   7
ATOM      7  C   UNL     1      -5.831   1.453 127.226  0.00  0.00    +0.000 C 
BRANCH   7   8
ATOM      8  C   UNL     1      -6.354   0.103 126.818  0.00  0.00    +0.000 A 
ATOM      9  C   UNL     1      -7.717  -0.206 126.941  0.00  0.00    +0.000 A 
ATOM     10  C   UNL     1      -8.163  -1.505 126.736  0.00  0.00    +0.000 A 
ATOM     11  C   UNL     1      -7.258  -2.496 126.375  0.00  0.00    +0.000 A 
ATOM     12  C   UNL     1      -5.906  -2.191 126.214  0.00  0.00    +0.000 A 
ATOM     13  C   UNL     1      -5.452  -0.895 126.442  0.00  0.00    +0.000 A 
ENDBRANCH   7   8
ENDBRANCH   6   7
ENDBRANCH   3   6
ENDBRANCH   2   3
ENDBRANCH   1   2
BRANCH   1  14
ATOM     14  C   UNL     1      -6.982   2.218 123.453  0.00  0.00    +0.000 C 
BRANCH  14  15
ATOM     15  C   UNL     1      -7.464   0.754 123.403  0.00  0.00    +0.000 A 
ATOM     16  C   UNL     1      -6.597  -0.307 123.080  0.00  0.00    +0.000 A 
ATOM     17  C   UNL     1      -7.074  -1.572 122.742  0.00  0.00    +0.000 A 
ATOM     18  C   UNL     1      -8.427  -1.831 122.795  0.00  0.00    +0.000 A 
ATOM     19  C   UNL     1      -9.311  -0.826 123.193  0.00  0.00    +0.000 A 
ATOM     20  C   UNL     1      -8.831   0.457 123.498  0.00  0.00    +0.000 A 
ENDBRANCH  14  15
BRANCH  14  21
ATOM     21  C   UNL     1      -7.206   2.995 122.161  0.00  0.00    +0.000 A 
ATOM     22  C   UNL     1      -8.515   3.300 121.741  0.00  0.00    +0.000 A 
ATOM     23  C   UNL     1      -8.761   3.823 120.480  0.00  0.00    +0.000 A 
ATOM     24  C   UNL     1      -7.694   4.212 119.692  0.00  0.00    +0.000 A 
ATOM     25  C   UNL     1      -6.382   4.035 120.142  0.00  0.00    +0.000 A 
ATOM     26  C   UNL     1      -6.138   3.399 121.364  0.00  0.00    +0.000 A 
ENDBRANCH  14  21
ENDBRANCH   1  14
TORSDOF 8
ENDMDL
MODEL 4
REMARK VINA RESULT:      -7.9      2.087      6.907
REMARK  Name = Prenylamine
REMARK  9 active torsions:
REMARK  status: ('A' for Active; 'I' for Inactive)
REMARK    1  A    between atoms: C_1  and  C_2
REMARK    2  A    between atoms: C_2  and  C_3
REMARK    3  A    between atoms: C_2  and  N_10
REMARK    4  A    between atoms: C_3  and  C_4
REMARK    5  A    between atoms: N_10  and  C_11
REMARK    6  A    between atoms: C_11  and  C_12
REMARK    7  A    between atoms: C_12  and  C_13
REMARK    8  A    between atoms: C_13  and  C_14
REMARK    9  A    between atoms: C_13  and  C_20
REMARK                            x       y       z     vdW  Elec       q    Type
REMARK                         _______ _______ _______ _____ _____    ______ ____
ROOT
ATOM      1  C   UNL     1      -8.294   1.684 123.095  0.00  0.00    +0.000 C 
ENDROOT
BRANCH   1   2
ATOM      2  C   UNL     1      -9.738   1.799 123.537  0.00  0.00    +0.000 C 
BRANCH   2   3
ATOM      3  N   UNL     1     -10.170   0.568 124.193  0.00  0.00    +0.000 NA
ATOM      4  H   UNL     1     -10.944   0.772 124.825  0.00  0.00    +0.000 HD
BRANCH   3   6
ATOM      5  C   UNL     1      -9.214   0.328 126.424  0.00  0.00    +0.000 C 
ATOM      6  C   UNL     1      -9.059  -0.032 124.947  0.00  0.00    +0.000 C 
BRANCH   6   7
ATOM      7  C   UNL     1      -8.995  -1.567 124.781  0.00  0.00    +0.000 C 
BRANCH   7   8
ATOM      8  C   UNL     1      -7.680  -2.093 124.273  0.00  0.00    +0.000 A 
ATOM      9  C   UNL     1      -6.769  -2.707 125.145  0.00  0.00    +0.000 A 
ATOM     10  C   UNL     1      -5.488  -3.025 124.711  0.00  0.00    +0.000 A 
ATOM     11  C   UNL     1      -5.120  -2.761 123.398  0.00  0.00    +0.000 A 
ATOM     12  C   UNL     1      -6.032  -2.184 122.512  0.00  0.00    +0.000 A 
ATOM     13  C   UNL     1      -7.308  -1.843 122.950  0.00  0.00    +0.000 A 
ENDBRANCH   7   8
ENDBRANCH   6   7
ENDBRANCH   3   6
ENDBRANCH   2   3
ENDBRANCH   1   2
BRANCH   1  14
ATOM     14  C   UNL     1      -7.451   2.909 123.531  0.00  0.00    +0.000 C 
BRANCH  14  15
ATOM     15  C   UNL     1      -6.479   2.550 124.673  0.00  0.00    +0.000 A 
ATOM     16  C   UNL     1      -5.999   1.240 124.862  0.00  0.00    +0.000 A 
ATOM     17  C   UNL     1      -5.373   0.848 126.042  0.00  0.00    +0.000 A 
ATOM     18  C   UNL     1      -5.138   1.776 127.035  0.00  0.00    +0.000 A 
ATOM     19  C   UNL     1      -5.524   3.104 126.848  0.00  0.00    +0.000 A 
ATOM     20  C   UNL     1      -6.187   3.489 125.673  0.00  0.00    +0.000 A 
ENDBRANCH  14  15
BRANCH  14  21
ATOM     21  C   UNL     1      -6.774   3.478 122.289  0.00  0.00    +0.000 A 
ATOM     22  C   UNL     1      -5.465   3.989 122.373  0.00  0.00    +0.000 A 
ATOM     23  C   UNL     1      -4.900   4.693 121.319  0.00  0.00    +0.000 A 
ATOM     24  C   UNL     1      -5.565   4.742 120.109  0.00  0.00    +0.000 A 
ATOM     25  C   UNL     1      -6.814   4.131 119.964  0.00  0.00    +0.000 A 
ATOM     26  C   UNL     1      -7.432   3.525 121.062  0.00  0.00    +0.000 A 
ENDBRANCH  14  21
ENDBRANCH   1  14
TORSDOF 8
ENDMDL
MODEL 5
REMARK VINA RESULT:      -7.9      2.143      7.069
REMARK  Name = Prenylamine
REMARK  9 active torsions:
REMARK  status: ('A' for Active; 'I' for Inactive)
REMARK    1  A    between atoms: C_1  and  C_2
REMARK    2  A    between atoms: C_2  and  C_3
REMARK    3  A    between atoms: C_2  and  N_10
REMARK    4  A    between atoms: C_3  and  C_4
REMARK    5  A    between atoms: N_10  and  C_11
REMARK    6  A    between atoms: C_11  and  C_12
REMARK    7  A    between atoms: C_12  and  C_13
REMARK    8  A    between atoms: C_13  and  C_14
REMARK    9  A    between atoms: C_13  and  C_20
REMARK                            x       y       z     vdW  Elec       q    Type
REMARK                         _______ _______ _______ _____ _____    ______ ____
ROOT
ATOM      1  C   UNL     1      -6.116   4.524 124.112  0.00  0.00    +0.000 C 
ENDROOT
BRANCH   1   2
ATOM      2  C   UNL     1      -5.149   4.353 125.264  0.00  0.00    +0.000 C 
BRANCH   2   3
ATOM      3  N   UNL     1      -5.721   4.888 126.496  0.00  0.00    +0.000 NA
ATOM      4  H   UNL     1      -5.131   5.641 126.847  0.00  0.00    +0.000 HD
BRANCH   3   6
ATOM      5  C   UNL     1      -5.710   4.466 128.899  0.00  0.00    +0.000 C 
ATOM      6  C   UNL     1      -5.834   3.832 127.514  0.00  0.00    +0.000 C 
BRANCH   6   7
ATOM      7  C   UNL     1      -7.163   3.050 127.407  0.00  0.00    +0.000 C 
BRANCH   7   8
ATOM      8  C   UNL     1      -7.012   1.594 127.056  0.00  0.00    +0.000 A 
ATOM      9  C   UNL     1      -8.093   0.710 127.184  0.00  0.00    +0.000 A 
ATOM     10  C   UNL     1      -7.902  -0.658 127.034  0.00  0.00    +0.000 A 
ATOM     11  C   UNL     1      -6.639  -1.147 126.723  0.00  0.00    +0.000 A 
ATOM     12  C   UNL     1      -5.565  -0.272 126.557  0.00  0.00    +0.000 A 
ATOM     13  C   UNL     1      -5.748   1.097 126.730  0.00  0.00    +0.000 A 
ENDBRANCH   7   8
ENDBRANCH   6   7
ENDBRANCH   3   6
ENDBRANCH   2   3
ENDBRANCH   1   2
BRANCH   1  14
ATOM     14  C   UNL     1      -6.118   3.298 123.165  0.00  0.00    +0.000 C 
BRANCH  14  15
ATOM     15  C   UNL     1      -7.233   2.298 123.532  0.00  0.00    +0.000 A 
ATOM     16  C   UNL     1      -7.086   0.912 123.339  0.00  0.00    +0.000 A 
ATOM     17  C   UNL     1      -8.173   0.042 123.384  0.00  0.00    +0.000 A 
ATOM     18  C   UNL     1      -9.425   0.526 123.702  0.00  0.00    +0.000 A 
ATOM     19  C   UNL     1      -9.594   1.883 123.983  0.00  0.00    +0.000 A 
ATOM     20  C   UNL     1      -8.503   2.762 123.903  0.00  0.00    +0.000 A 
ENDBRANCH  14  15
BRANCH  14  21
ATOM     21  C   UNL     1      -6.189   3.814 121.732  0.00  0.00    +0.000 A 
ATOM     22  C   UNL     1      -5.090   4.496 121.173  0.00  0.00    +0.000 A 
ATOM     23  C   UNL     1      -5.195   5.150 119.954  0.00  0.00    +0.000 A 
ATOM     24  C   UNL     1      -6.339   4.983 119.197  0.00  0.00    +0.000 A 
ATOM     25  C   UNL     1      -7.397   4.204 119.677  0.00  0.00    +0.000 A 
ATOM     26  C   UNL     1      -7.334   3.644 120.956  0.00  0.00    +0.000 A 
ENDBRANCH  14  21
ENDBRANCH   1  14
TORSDOF 8
ENDMDL
MODEL 6
REMARK VINA RESULT:      -7.8      2.153      6.183
REMARK  Name = Prenylamine
REMARK  9 active torsions:
REMARK  status: ('A' for Active; 'I' for Inactive)
REMARK    1  A    between atoms: C_1  and  C_2
REMARK    2  A    between atoms: C_2  and  C_3
REMARK    3  A    between atoms: C_2  and  N_10
REMARK    4  A    between atoms: C_3  and  C_4
REMARK    5  A    between atoms: N_10  and  C_11
REMARK    6  A    between atoms: C_11  and  C_12
REMARK    7  A    between atoms: C_12  and  C_13
REMARK    8  A    between atoms: C_13  and  C_14
REMARK    9  A    between atoms: C_13  and  C_20
REMARK                            x       y       z     vdW  Elec       q    Type
REMARK                         _______ _______ _______ _____ _____    ______ ____
ROOT
ATOM      1  C   UNL     1      -6.989   0.653 127.555  0.00  0.00    +0.000 C 
ENDROOT
BRANCH   1   2
ATOM      2  C   UNL     1      -6.721  -0.778 127.970  0.00  0.00    +0.000 C 
BRANCH   2   3
ATOM      3  N   UNL     1      -7.976  -1.482 128.218  0.00  0.00    +0.000 NA
ATOM      4  H   UNL     1      -8.046  -1.714 129.208  0.00  0.00    +0.000 HD
BRANCH   3   6
ATOM      5  C   UNL     1      -8.605  -3.838 128.284  0.00  0.00    +0.000 C 
ATOM      6  C   UNL     1      -8.044  -2.712 127.415  0.00  0.00    +0.000 C 
BRANCH   6   7
ATOM      7  C   UNL     1      -8.911  -2.541 126.147  0.00  0.00    +0.000 C 
BRANCH   7   8
ATOM      8  C   UNL     1      -8.135  -2.449 124.860  0.00  0.00    +0.000 A 
ATOM      9  C   UNL     1      -6.734  -2.522 124.861  0.00  0.00    +0.000 A 
ATOM     10  C   UNL     1      -6.017  -2.255 123.701  0.00  0.00    +0.000 A 
ATOM     11  C   UNL     1      -6.695  -1.947 122.528  0.00  0.00    +0.000 A 
ATOM     12  C   UNL     1      -8.090  -1.908 122.509  0.00  0.00    +0.000 A 
ATOM     13  C   UNL     1      -8.810  -2.151 123.675  0.00  0.00    +0.000 A 
ENDBRANCH   7   8
ENDBRANCH   6   7
ENDBRANCH   3   6
ENDBRANCH   2   3
ENDBRANCH   1   2
BRANCH   1  14
ATOM     14  C   UNL     1      -6.368   0.988 126.176  0.00  0.00    +0.000 C 
BRANCH  14  15
ATOM     15  C   UNL     1      -7.450   1.138 125.088  0.00  0.00    +0.000 A 
ATOM     16  C   UNL     1      -7.132   1.479 123.760  0.00  0.00    +0.000 A 
ATOM     17  C   UNL     1      -8.102   1.905 122.855  0.00  0.00    +0.000 A 
ATOM     18  C   UNL     1      -9.429   1.926 123.232  0.00  0.00    +0.000 A 
ATOM     19  C   UNL     1      -9.792   1.513 124.516  0.00  0.00    +0.000 A 
ATOM     20  C   UNL     1      -8.809   1.119 125.435  0.00  0.00    +0.000 A 
ENDBRANCH  14  15
BRANCH  14  21
ATOM     21  C   UNL     1      -5.479   2.215 126.347  0.00  0.00    +0.000 A 
ATOM     22  C   UNL     1      -4.079   2.072 126.378  0.00  0.00    +0.000 A 
ATOM     23  C   UNL     1      -3.256   3.131 126.733  0.00  0.00    +0.000 A 
ATOM     24  C   UNL     1      -3.807   4.389 126.888  0.00  0.00    +0.000 A 
ATOM     25  C   UNL     1      -5.184   4.580 126.738  0.00  0.00    +0.000 A 
ATOM     26  C   UNL     1      -6.024   3.488 126.497  0.00  0.00    +0.000 A 
ENDBRANCH  14  21
ENDBRANCH   1  14
TORSDOF 8
ENDMDL
MODEL 7
REMARK VINA RESULT:      -7.8      2.680      6.389
REMARK  Name = Prenylamine
REMARK  9 active torsions:
REMARK  status: ('A' for Active; 'I' for Inactive)
REMARK    1  A    between atoms: C_1  and  C_2
REMARK    2  A    between atoms: C_2  and  C_3
REMARK    3  A    between atoms: C_2  and  N_10
REMARK    4  A    between atoms: C_3  and  C_4
REMARK    5  A    between atoms: N_10  and  C_11
REMARK    6  A    between atoms: C_11  and  C_12
REMARK    7  A    between atoms: C_12  and  C_13
REMARK    8  A    between atoms: C_13  and  C_14
REMARK    9  A    between atoms: C_13  and  C_20
REMARK                            x       y       z     vdW  Elec       q    Type
REMARK                         _______ _______ _______ _____ _____    ______ ____
ROOT
ATOM      1  C   UNL     1      -6.006  -0.529 127.260  0.00  0.00    +0.000 C 
ENDROOT
BRANCH   1   2
ATOM      2  C   UNL     1      -6.888  -0.007 128.374  0.00  0.00    +0.000 C 
BRANCH   2   3
ATOM      3  N   UNL     1      -7.495  -1.116 129.106  0.00  0.00    +0.000 NA
ATOM      4  H   UNL     1      -7.172  -1.102 130.073  0.00  0.00    +0.000 HD
BRANCH   3   6
ATOM      5  C   UNL     1      -6.413  -3.264 129.514  0.00  0.00    +0.000 C 
ATOM      6  C   UNL     1      -7.141  -2.400 128.484  0.00  0.00    +0.000 C 
BRANCH   6   7
ATOM      7  C   UNL     1      -8.376  -3.153 127.940  0.00  0.00    +0.000 C 
BRANCH   7   8
ATOM      8  C   UNL     1      -8.588  -3.028 126.456  0.00  0.00    +0.000 A 
ATOM      9  C   UNL     1      -9.261  -1.921 125.918  0.00  0.00    +0.000 A 
ATOM     10  C   UNL     1      -9.613  -1.899 124.574  0.00  0.00    +0.000 A 
ATOM     11  C   UNL     1      -9.267  -2.966 123.754  0.00  0.00    +0.000 A 
ATOM     12  C   UNL     1      -8.564  -4.055 124.271  0.00  0.00    +0.000 A 
ATOM     13  C   UNL     1      -8.231  -4.091 125.623  0.00  0.00    +0.000 A 
ENDBRANCH   7   8
ENDBRANCH   6   7
ENDBRANCH   3   6
ENDBRANCH   2   3
ENDBRANCH   1   2
BRANCH   1  14
ATOM     14  C   UNL     1      -6.317   0.150 125.902  0.00  0.00    +0.000 C 
BRANCH  14  15
ATOM     15  C   UNL     1      -5.595   1.506 125.768  0.00  0.00    +0.000 A 
ATOM     16  C   UNL     1      -4.353   1.756 126.383  0.00  0.00    +0.000 A 
ATOM     17  C   UNL     1      -3.843   3.045 126.518  0.00  0.00    +0.000 A 
ATOM     18  C   UNL     1      -4.524   4.112 125.971  0.00  0.00    +0.000 A 
ATOM     19  C   UNL     1      -5.717   3.893 125.280  0.00  0.00    +0.000 A 
ATOM     20  C   UNL     1      -6.246   2.598 125.176  0.00  0.00    +0.000 A 
ENDBRANCH  14  15
BRANCH  14  21
ATOM     21  C   UNL     1      -5.989  -0.845 124.794  0.00  0.00    +0.000 A 
ATOM     22  C   UNL     1      -6.455  -0.619 123.485  0.00  0.00    +0.000 A 
ATOM     23  C   UNL     1      -6.349  -1.597 122.507  0.00  0.00    +0.000 A 
ATOM     24  C   UNL     1      -5.620  -2.740 122.774  0.00  0.00    +0.000 A 
ATOM     25  C   UNL     1      -5.039  -2.930 124.031  0.00  0.00    +0.000 A 
ATOM     26  C   UNL     1      -5.249  -1.996 125.051  0.00  0.00    +0.000 A 
ENDBRANCH  14  21
ENDBRANCH   1  14
TORSDOF 8
ENDMDL
MODEL 8
REMARK VINA RESULT:      -7.8      2.710      4.458
REMARK  Name = Prenylamine
REMARK  9 active torsions:
REMARK  status: ('A' for Active; 'I' for Inactive)
REMARK    1  A    between atoms: C_1  and  C_2
REMARK    2  A    between atoms: C_2  and  C_3
REMARK    3  A    between atoms: C_2  and  N_10
REMARK    4  A    between atoms: C_3  and  C_4
REMARK    5  A    between atoms: N_10  and  C_11
REMARK    6  A    between atoms: C_11  and  C_12
REMARK    7  A    between atoms: C_12  and  C_13
REMARK    8  A    between atoms: C_13  and  C_14
REMARK    9  A    between atoms: C_13  and  C_20
REMARK                            x       y       z     vdW  Elec       q    Type
REMARK                         _______ _______ _______ _____ _____    ______ ____
ROOT
ATOM      1  C   UNL     1      -7.317  -0.559 128.272  0.00  0.00    +0.000 C 
ENDROOT
BRANCH   1   2
ATOM      2  C   UNL     1      -6.521   0.644 128.732  0.00  0.00    +0.000 C 
BRANCH   2   3
ATOM      3  N   UNL     1      -5.461   0.951 127.776  0.00  0.00    +0.000 NA
ATOM      4  H   UNL     1      -4.586   1.105 128.275  0.00  0.00    +0.000 HD
BRANCH   3   6
ATOM      5  C   UNL     1      -4.790   3.250 127.308  0.00  0.00    +0.000 C 
ATOM      6  C   UNL     1      -5.804   2.149 126.994  0.00  0.00    +0.000 C 
BRANCH   6   7
ATOM      7  C   UNL     1      -5.832   1.874 125.474  0.00  0.00    +0.000 C 
BRANCH   7   8
ATOM      8  C   UNL     1      -7.117   1.278 124.965  0.00  0.00    +0.000 A 
ATOM      9  C   UNL     1      -7.137   0.522 123.783  0.00  0.00    +0.000 A 
ATOM     10  C   UNL     1      -8.347   0.130 123.223  0.00  0.00    +0.000 A 
ATOM     11  C   UNL     1      -9.539   0.462 123.855  0.00  0.00    +0.000 A 
ATOM     12  C   UNL     1      -9.527   1.182 125.050  0.00  0.00    +0.000 A 
ATOM     13  C   UNL     1      -8.318   1.597 125.602  0.00  0.00    +0.000 A 
ENDBRANCH   7   8
ENDBRANCH   6   7
ENDBRANCH   3   6
ENDBRANCH   2   3
ENDBRANCH   1   2
BRANCH   1  14
ATOM     14  C   UNL     1      -6.431  -1.605 127.550  0.00  0.00    +0.000 C 
BRANCH  14  15
ATOM     15  C   UNL     1      -5.897  -2.669 128.530  0.00  0.00    +0.000 A 
ATOM     16  C   UNL     1      -6.732  -3.308 129.466  0.00  0.00    +0.000 A 
ATOM     17  C   UNL     1      -6.218  -4.035 130.537  0.00  0.00    +0.000 A 
ATOM     18  C   UNL     1      -4.855  -4.210 130.655  0.00  0.00    +0.000 A 
ATOM     19  C   UNL     1      -4.000  -3.663 129.697  0.00  0.00    +0.000 A 
ATOM     20  C   UNL     1      -4.519  -2.900 128.640  0.00  0.00    +0.000 A 
ENDBRANCH  14  15
BRANCH  14  21
ATOM     21  C   UNL     1      -7.232  -2.173 126.385  0.00  0.00    +0.000 A 
ATOM     22  C   UNL     1      -8.639  -2.192 126.440  0.00  0.00    +0.000 A 
ATOM     23  C   UNL     1      -9.386  -2.880 125.495  0.00  0.00    +0.000 A 
ATOM     24  C   UNL     1      -8.749  -3.408 124.388  0.00  0.00    +0.000 A 
ATOM     25  C   UNL     1      -7.363  -3.292 124.248  0.00  0.00    +0.000 A 
ATOM     26  C   UNL     1      -6.601  -2.701 125.260  0.00  0.00    +0.000 A 
ENDBRANCH  14  21
ENDBRANCH   1  14
TORSDOF 8
ENDMDL
MODEL 9
REMARK VINA RESULT:      -7.7      2.166      6.303
REMARK  Name = Prenylamine
REMARK  9 active torsions:
REMARK  status: ('A' for Active; 'I' for Inactive)
REMARK    1  A    between atoms: C_1  and  C_2
REMARK    2  A    between atoms: C_2  and  C_3
REMARK    3  A    between atoms: C_2  and  N_10
REMARK    4  A    between atoms: C_3  and  C_4
REMARK    5  A    between atoms: N_10  and  C_11
REMARK    6  A    between atoms: C_11  and  C_12
REMARK    7  A    between atoms: C_12  and  C_13
REMARK    8  A    between atoms: C_13  and  C_14
REMARK    9  A    between atoms: C_13  and  C_20
REMARK                            x       y       z     vdW  Elec       q    Type
REMARK                         _______ _______ _______ _____ _____    ______ ____
ROOT
ATOM      1  C   UNL     1      -5.964  -0.071 126.375  0.00  0.00    +0.000 C 
ENDROOT
BRANCH   1   2
ATOM      2  C   UNL     1      -6.299  -0.872 127.615  0.00  0.00    +0.000 C 
BRANCH   2   3
ATOM      3  N   UNL     1      -7.693  -1.307 127.580  0.00  0.00    +0.000 NA
ATOM      4  H   UNL     1      -8.149  -1.059 128.458  0.00  0.00    +0.000 HD
BRANCH   3   6
ATOM      5  C   UNL     1      -8.440  -3.397 128.593  0.00  0.00    +0.000 C 
ATOM      6  C   UNL     1      -7.775  -2.761 127.373  0.00  0.00    +0.000 C 
BRANCH   6   7
ATOM      7  C   UNL     1      -8.556  -3.130 126.092  0.00  0.00    +0.000 C 
BRANCH   7   8
ATOM      8  C   UNL     1      -7.857  -2.787 124.805  0.00  0.00    +0.000 A 
ATOM      9  C   UNL     1      -6.502  -3.101 124.619  0.00  0.00    +0.000 A 
ATOM     10  C   UNL     1      -5.817  -2.623 123.509  0.00  0.00    +0.000 A 
ATOM     11  C   UNL     1      -6.487  -1.856 122.563  0.00  0.00    +0.000 A 
ATOM     12  C   UNL     1      -7.844  -1.569 122.721  0.00  0.00    +0.000 A 
ATOM     13  C   UNL     1      -8.527  -2.027 123.844  0.00  0.00    +0.000 A 
ENDBRANCH   7   8
ENDBRANCH   6   7
ENDBRANCH   3   6
ENDBRANCH   2   3
ENDBRANCH   1   2
BRANCH   1  14
ATOM     14  C   UNL     1      -6.570   1.355 126.419  0.00  0.00    +0.000 C 
BRANCH  14  15
ATOM     15  C   UNL     1      -5.472   2.437 126.451  0.00  0.00    +0.000 A 
ATOM     16  C   UNL     1      -4.104   2.116 126.367  0.00  0.00    +0.000 A 
ATOM     17  C   UNL     1      -3.109   3.036 126.691  0.00  0.00    +0.000 A 
ATOM     18  C   UNL     1      -3.455   4.327 127.031  0.00  0.00    +0.000 A 
ATOM     19  C   UNL     1      -4.798   4.706 127.043  0.00  0.00    +0.000 A 
ATOM     20  C   UNL     1      -5.799   3.767 126.751  0.00  0.00    +0.000 A 
ENDBRANCH  14  15
BRANCH  14  21
ATOM     21  C   UNL     1      -7.543   1.486 125.254  0.00  0.00    +0.000 A 
ATOM     22  C   UNL     1      -7.063   1.796 123.967  0.00  0.00    +0.000 A 
ATOM     23  C   UNL     1      -7.932   2.120 122.935  0.00  0.00    +0.000 A 
ATOM     24  C   UNL     1      -9.292   1.967 123.127  0.00  0.00    +0.000 A 
ATOM     25  C   UNL     1      -9.787   1.537 124.361  0.00  0.00    +0.000 A 
ATOM     26  C   UNL     1      -8.915   1.325 125.434  0.00  0.00    +0.000 A 
ENDBRANCH  14  21
ENDBRANCH   1  14
TORSDOF 8
ENDMDL
