MODEL 1
REMARK VINA RESULT:      -7.6      0.000      0.000
REMARK  Name = Pretomanid
REMARK  6 active torsions:
REMARK  status: ('A' for Active; 'I' for Inactive)
REMARK    1  A    between atoms: N_2  and  C_4
REMARK    2  A    between atoms: C_8  and  O_13
REMARK    3  A    between atoms: O_13  and  C_14
REMARK    4  A    between atoms: C_14  and  C_15
REMARK    5  A    between atoms: C_18  and  O_19
REMARK    6  A    between atoms: O_19  and  C_20
REMARK                            x       y       z     vdW  Elec       q    Type
REMARK                         _______ _______ _______ _____ _____    ______ ____
ROOT
ATOM      1  O   UNL     1      -8.180   1.116 125.588  0.00  0.00    +0.000 OA
ENDROOT
BRANCH   1   6
ATOM      2  C   UNL     1      -6.061   4.244 121.548  0.00  0.00    +0.000 A 
ATOM      3  C   UNL     1      -5.784   4.106 122.894  0.00  0.00    +0.000 A 
ATOM      4  N   UNL     1      -6.875   3.449 123.385  0.00  0.00    +0.000 N 
ATOM      5  C   UNL     1      -7.124   3.089 124.754  0.00  0.00    +0.000 C 
ATOM      6  C   UNL     1      -8.461   2.386 124.964  0.00  0.00    +0.000 C 
ATOM      7  C   UNL     1      -9.310   2.165 123.694  0.00  0.00    +0.000 C 
ATOM      8  O   UNL     1      -8.983   2.821 122.491  0.00  0.00    +0.000 OA
ATOM      9  C   UNL     1      -7.749   3.261 122.359  0.00  0.00    +0.000 A 
ATOM     10  N   UNL     1      -7.280   3.700 121.220  0.00  0.00    +0.000 NA
BRANCH   2  12
ATOM     11  O   UNL     1      -4.511   5.807 120.957  0.00  0.00    +0.000 OA
ATOM     12  N   UNL     1      -5.271   4.912 120.549  0.00  0.00    +0.000 N 
ATOM     13  O   UNL     1      -5.438   4.579 119.373  0.00  0.00    +0.000 OA
ENDBRANCH   2  12
ENDBRANCH   1   6
BRANCH   1  14
ATOM     14  C   UNL     1      -8.791   0.031 124.909  0.00  0.00    +0.000 C 
BRANCH  14  15
ATOM     15  C   UNL     1      -7.769  -0.985 124.530  0.00  0.00    +0.000 A 
ATOM     16  C   UNL     1      -6.770  -1.389 125.424  0.00  0.00    +0.000 A 
ATOM     17  C   UNL     1      -5.672  -2.101 124.943  0.00  0.00    +0.000 A 
ATOM     18  C   UNL     1      -5.630  -2.506 123.605  0.00  0.00    +0.000 A 
ATOM     19  C   UNL     1      -6.675  -2.158 122.747  0.00  0.00    +0.000 A 
ATOM     20  C   UNL     1      -7.748  -1.416 123.210  0.00  0.00    +0.000 A 
BRANCH  18  21
ATOM     21  O   UNL     1      -4.537  -3.242 123.245  0.00  0.00    +0.000 OA
BRANCH  21  22
ATOM     22  C   UNL     1      -4.554  -4.609 123.631  0.00  0.00    +0.000 C 
ATOM     23  F   UNL     1      -5.798  -5.011 123.975  0.00  0.00    +0.000 F 
ATOM     24  F   UNL     1      -4.090  -5.393 122.632  0.00  0.00    +0.000 F 
ATOM     25  F   UNL     1      -3.751  -4.775 124.703  0.00  0.00    +0.000 F 
ENDBRANCH  21  22
ENDBRANCH  18  21
ENDBRANCH  14  15
ENDBRANCH   1  14
TORSDOF 6
ENDMDL
MODEL 2
REMARK VINA RESULT:      -7.4      3.729      5.301
REMARK  Name = Pretomanid
REMARK  6 active torsions:
REMARK  status: ('A' for Active; 'I' for Inactive)
REMARK    1  A    between atoms: N_2  and  C_4
REMARK    2  A    between atoms: C_8  and  O_13
REMARK    3  A    between atoms: O_13  and  C_14
REMARK    4  A    between atoms: C_14  and  C_15
REMARK    5  A    between atoms: C_18  and  O_19
REMARK    6  A    between atoms: O_19  and  C_20
REMARK                            x       y       z     vdW  Elec       q    Type
REMARK                         _______ _______ _______ _____ _____    ______ ____
ROOT
ATOM      1  O   UNL     1      -8.172  -3.811 124.889  0.00  0.00    +0.000 OA
ENDROOT
BRANCH   1   6
ATOM      2  C   UNL     1      -8.389   1.508 123.386  0.00  0.00    +0.000 A 
ATOM      3  C   UNL     1      -9.344   0.528 123.572  0.00  0.00    +0.000 A 
ATOM      4  N   UNL     1      -8.623  -0.631 123.594  0.00  0.00    +0.000 N 
ATOM      5  C   UNL     1      -9.137  -1.967 123.718  0.00  0.00    +0.000 C 
ATOM      6  C   UNL     1      -8.054  -3.040 123.675  0.00  0.00    +0.000 C 
ATOM      7  C   UNL     1      -6.606  -2.529 123.523  0.00  0.00    +0.000 C 
ATOM      8  O   UNL     1      -6.354  -1.188 123.169  0.00  0.00    +0.000 OA
ATOM      9  C   UNL     1      -7.315  -0.315 123.388  0.00  0.00    +0.000 A 
ATOM     10  N   UNL     1      -7.125   0.975 123.289  0.00  0.00    +0.000 NA
BRANCH   2  12
ATOM     11  O   UNL     1      -8.785   3.331 122.076  0.00  0.00    +0.000 OA
ATOM     12  N   UNL     1      -8.595   2.923 123.235  0.00  0.00    +0.000 N 
ATOM     13  O   UNL     1      -8.524   3.621 124.250  0.00  0.00    +0.000 OA
ENDBRANCH   2  12
ENDBRANCH   1   6
BRANCH   1  14
ATOM     14  C   UNL     1      -8.973  -3.167 125.866  0.00  0.00    +0.000 C 
BRANCH  14  15
ATOM     15  C   UNL     1      -8.195  -2.959 127.120  0.00  0.00    +0.000 A 
ATOM     16  C   UNL     1      -6.976  -2.270 127.121  0.00  0.00    +0.000 A 
ATOM     17  C   UNL     1      -6.145  -2.356 128.237  0.00  0.00    +0.000 A 
ATOM     18  C   UNL     1      -6.578  -3.028 129.384  0.00  0.00    +0.000 A 
ATOM     19  C   UNL     1      -7.832  -3.645 129.389  0.00  0.00    +0.000 A 
ATOM     20  C   UNL     1      -8.644  -3.596 128.269  0.00  0.00    +0.000 A 
BRANCH  18  21
ATOM     21  O   UNL     1      -5.712  -3.013 130.440  0.00  0.00    +0.000 OA
BRANCH  21  22
ATOM     22  C   UNL     1      -4.838  -4.127 130.543  0.00  0.00    +0.000 C 
ATOM     23  F   UNL     1      -5.525  -5.283 130.688  0.00  0.00    +0.000 F 
ATOM     24  F   UNL     1      -4.041  -4.212 129.455  0.00  0.00    +0.000 F 
ATOM     25  F   UNL     1      -4.051  -3.972 131.629  0.00  0.00    +0.000 F 
ENDBRANCH  21  22
ENDBRANCH  18  21
ENDBRANCH  14  15
ENDBRANCH   1  14
TORSDOF 6
ENDMDL
MODEL 3
REMARK VINA RESULT:      -7.4      6.110      7.743
REMARK  Name = Pretomanid
REMARK  6 active torsions:
REMARK  status: ('A' for Active; 'I' for Inactive)
REMARK    1  A    between atoms: N_2  and  C_4
REMARK    2  A    between atoms: C_8  and  O_13
REMARK    3  A    between atoms: O_13  and  C_14
REMARK    4  A    between atoms: C_14  and  C_15
REMARK    5  A    between atoms: C_18  and  O_19
REMARK    6  A    between atoms: O_19  and  C_20
REMARK                            x       y       z     vdW  Elec       q    Type
REMARK                         _______ _______ _______ _____ _____    ______ ____
ROOT
ATOM      1  O   UNL     1      -6.227  -1.931 130.300  0.00  0.00    +0.000 OA
ENDROOT
BRANCH   1   6
ATOM      2  C   UNL     1      -9.449   2.512 130.990  0.00  0.00    +0.000 A 
ATOM      3  C   UNL     1      -8.232   2.301 130.372  0.00  0.00    +0.000 A 
ATOM      4  N   UNL     1      -7.827   1.090 130.855  0.00  0.00    +0.000 N 
ATOM      5  C   UNL     1      -6.592   0.413 130.567  0.00  0.00    +0.000 C 
ATOM      6  C   UNL     1      -6.442  -0.914 131.301  0.00  0.00    +0.000 C 
ATOM      7  C   UNL     1      -7.623  -1.319 132.207  0.00  0.00    +0.000 C 
ATOM      8  O   UNL     1      -8.627  -0.385 132.535  0.00  0.00    +0.000 OA
ATOM      9  C   UNL     1      -8.764   0.657 131.742  0.00  0.00    +0.000 A 
ATOM     10  N   UNL     1      -9.781   1.474 131.829  0.00  0.00    +0.000 NA
BRANCH   2  12
ATOM     11  O   UNL     1     -11.322   3.529 130.184  0.00  0.00    +0.000 OA
ATOM     12  N   UNL     1     -10.304   3.663 130.885  0.00  0.00    +0.000 N 
ATOM     13  O   UNL     1      -9.943   4.696 131.455  0.00  0.00    +0.000 OA
ENDBRANCH   2  12
ENDBRANCH   1   6
BRANCH   1  14
ATOM     14  C   UNL     1      -7.345  -2.790 130.151  0.00  0.00    +0.000 C 
BRANCH  14  15
ATOM     15  C   UNL     1      -7.799  -2.809 128.732  0.00  0.00    +0.000 A 
ATOM     16  C   UNL     1      -7.422  -1.809 127.827  0.00  0.00    +0.000 A 
ATOM     17  C   UNL     1      -8.098  -1.696 126.614  0.00  0.00    +0.000 A 
ATOM     18  C   UNL     1      -9.063  -2.643 126.258  0.00  0.00    +0.000 A 
ATOM     19  C   UNL     1      -9.372  -3.678 127.143  0.00  0.00    +0.000 A 
ATOM     20  C   UNL     1      -8.731  -3.772 128.366  0.00  0.00    +0.000 A 
BRANCH  18  21
ATOM     21  O   UNL     1      -9.631  -2.473 125.027  0.00  0.00    +0.000 OA
BRANCH  21  22
ATOM     22  C   UNL     1      -9.069  -3.239 123.972  0.00  0.00    +0.000 C 
ATOM     23  F   UNL     1      -8.187  -4.152 124.438  0.00  0.00    +0.000 F 
ATOM     24  F   UNL     1     -10.038  -3.870 123.271  0.00  0.00    +0.000 F 
ATOM     25  F   UNL     1      -8.411  -2.415 123.130  0.00  0.00    +0.000 F 
ENDBRANCH  21  22
ENDBRANCH  18  21
ENDBRANCH  14  15
ENDBRANCH   1  14
TORSDOF 6
ENDMDL
MODEL 4
REMARK VINA RESULT:      -7.2      5.640      7.423
REMARK  Name = Pretomanid
REMARK  6 active torsions:
REMARK  status: ('A' for Active; 'I' for Inactive)
REMARK    1  A    between atoms: N_2  and  C_4
REMARK    2  A    between atoms: C_8  and  O_13
REMARK    3  A    between atoms: O_13  and  C_14
REMARK    4  A    between atoms: C_14  and  C_15
REMARK    5  A    between atoms: C_18  and  O_19
REMARK    6  A    between atoms: O_19  and  C_20
REMARK                            x       y       z     vdW  Elec       q    Type
REMARK                         _______ _______ _______ _____ _____    ______ ____
ROOT
ATOM      1  O   UNL     1      -8.419   2.685 128.092  0.00  0.00    +0.000 OA
ENDROOT
BRANCH   1   6
ATOM      2  C   UNL     1     -11.569   6.633 130.350  0.00  0.00    +0.000 A 
ATOM      3  C   UNL     1     -10.510   6.646 129.464  0.00  0.00    +0.000 A 
ATOM      4  N   UNL     1      -9.965   5.400 129.587  0.00  0.00    +0.000 N 
ATOM      5  C   UNL     1      -8.800   4.894 128.915  0.00  0.00    +0.000 C 
ATOM      6  C   UNL     1      -8.446   3.464 129.306  0.00  0.00    +0.000 C 
ATOM      7  C   UNL     1      -9.385   2.796 130.332  0.00  0.00    +0.000 C 
ATOM      8  O   UNL     1     -10.326   3.563 131.048  0.00  0.00    +0.000 OA
ATOM      9  C   UNL     1     -10.670   4.727 130.537  0.00  0.00    +0.000 A 
ATOM     10  N   UNL     1     -11.672   5.427 131.002  0.00  0.00    +0.000 NA
BRANCH   2  12
ATOM     11  O   UNL     1     -13.270   7.501 131.593  0.00  0.00    +0.000 OA
ATOM     12  N   UNL     1     -12.466   7.710 130.668  0.00  0.00    +0.000 N 
ATOM     13  O   UNL     1     -12.401   8.730 129.977  0.00  0.00    +0.000 OA
ENDBRANCH   2  12
ENDBRANCH   1   6
BRANCH   1  14
ATOM     14  C   UNL     1      -7.559   1.562 128.187  0.00  0.00    +0.000 C 
BRANCH  14  15
ATOM     15  C   UNL     1      -8.005   0.487 127.257  0.00  0.00    +0.000 A 
ATOM     16  C   UNL     1      -8.887   0.749 126.201  0.00  0.00    +0.000 A 
ATOM     17  C   UNL     1      -9.508  -0.315 125.551  0.00  0.00    +0.000 A 
ATOM     18  C   UNL     1      -9.165  -1.632 125.874  0.00  0.00    +0.000 A 
ATOM     19  C   UNL     1      -8.225  -1.872 126.879  0.00  0.00    +0.000 A 
ATOM     20  C   UNL     1      -7.635  -0.818 127.555  0.00  0.00    +0.000 A 
BRANCH  18  21
ATOM     21  O   UNL     1      -9.792  -2.602 125.144  0.00  0.00    +0.000 OA
BRANCH  21  22
ATOM     22  C   UNL     1      -9.009  -3.226 124.137  0.00  0.00    +0.000 C 
ATOM     23  F   UNL     1      -8.066  -2.387 123.651  0.00  0.00    +0.000 F 
ATOM     24  F   UNL     1      -8.412  -4.339 124.618  0.00  0.00    +0.000 F 
ATOM     25  F   UNL     1      -9.812  -3.587 123.115  0.00  0.00    +0.000 F 
ENDBRANCH  21  22
ENDBRANCH  18  21
ENDBRANCH  14  15
ENDBRANCH   1  14
TORSDOF 6
ENDMDL
MODEL 5
REMARK VINA RESULT:      -7.1      3.773      4.938
REMARK  Name = Pretomanid
REMARK  6 active torsions:
REMARK  status: ('A' for Active; 'I' for Inactive)
REMARK    1  A    between atoms: N_2  and  C_4
REMARK    2  A    between atoms: C_8  and  O_13
REMARK    3  A    between atoms: O_13  and  C_14
REMARK    4  A    between atoms: C_14  and  C_15
REMARK    5  A    between atoms: C_18  and  O_19
REMARK    6  A    between atoms: O_19  and  C_20
REMARK                            x       y       z     vdW  Elec       q    Type
REMARK                         _______ _______ _______ _____ _____    ______ ____
ROOT
ATOM      1  O   UNL     1      -9.472  -1.707 124.318  0.00  0.00    +0.000 OA
ENDROOT
BRANCH   1   6
ATOM      2  C   UNL     1      -7.435   3.424 124.674  0.00  0.00    +0.000 A 
ATOM      3  C   UNL     1      -8.711   2.897 124.722  0.00  0.00    +0.000 A 
ATOM      4  N   UNL     1      -8.560   1.633 124.228  0.00  0.00    +0.000 N 
ATOM      5  C   UNL     1      -9.595   0.658 124.016  0.00  0.00    +0.000 C 
ATOM      6  C   UNL     1      -9.085  -0.648 123.418  0.00  0.00    +0.000 C 
ATOM      7  C   UNL     1      -7.567  -0.719 123.153  0.00  0.00    +0.000 C 
ATOM      8  O   UNL     1      -6.776   0.447 123.206  0.00  0.00    +0.000 OA
ATOM      9  C   UNL     1      -7.255   1.472 123.879  0.00  0.00    +0.000 A 
ATOM     10  N   UNL     1      -6.531   2.523 124.163  0.00  0.00    +0.000 NA
BRANCH   2  12
ATOM     11  O   UNL     1      -7.717   5.344 125.869  0.00  0.00    +0.000 OA
ATOM     12  N   UNL     1      -7.016   4.752 125.029  0.00  0.00    +0.000 N 
ATOM     13  O   UNL     1      -6.030   5.214 124.448  0.00  0.00    +0.000 OA
ENDBRANCH   2  12
ENDBRANCH   1   6
BRANCH   1  14
ATOM     14  C   UNL     1      -8.358  -2.430 124.816  0.00  0.00    +0.000 C 
BRANCH  14  15
ATOM     15  C   UNL     1      -8.383  -2.462 126.305  0.00  0.00    +0.000 A 
ATOM     16  C   UNL     1      -7.739  -1.482 127.071  0.00  0.00    +0.000 A 
ATOM     17  C   UNL     1      -7.530  -1.707 128.430  0.00  0.00    +0.000 A 
ATOM     18  C   UNL     1      -8.061  -2.846 129.043  0.00  0.00    +0.000 A 
ATOM     19  C   UNL     1      -8.766  -3.776 128.275  0.00  0.00    +0.000 A 
ATOM     20  C   UNL     1      -8.942  -3.576 126.916  0.00  0.00    +0.000 A 
BRANCH  18  21
ATOM     21  O   UNL     1      -7.844  -2.949 130.387  0.00  0.00    +0.000 OA
BRANCH  21  22
ATOM     22  C   UNL     1      -6.610  -3.535 130.775  0.00  0.00    +0.000 C 
ATOM     23  F   UNL     1      -6.308  -4.608 130.010  0.00  0.00    +0.000 F 
ATOM     24  F   UNL     1      -5.607  -2.632 130.697  0.00  0.00    +0.000 F 
ATOM     25  F   UNL     1      -6.702  -3.949 132.056  0.00  0.00    +0.000 F 
ENDBRANCH  21  22
ENDBRANCH  18  21
ENDBRANCH  14  15
ENDBRANCH   1  14
TORSDOF 6
ENDMDL
MODEL 6
REMARK VINA RESULT:      -7.0      4.475      6.103
REMARK  Name = Pretomanid
REMARK  6 active torsions:
REMARK  status: ('A' for Active; 'I' for Inactive)
REMARK    1  A    between atoms: N_2  and  C_4
REMARK    2  A    between atoms: C_8  and  O_13
REMARK    3  A    between atoms: O_13  and  C_14
REMARK    4  A    between atoms: C_14  and  C_15
REMARK    5  A    between atoms: C_18  and  O_19
REMARK    6  A    between atoms: O_19  and  C_20
REMARK                            x       y       z     vdW  Elec       q    Type
REMARK                         _______ _______ _______ _____ _____    ______ ____
ROOT
ATOM      1  O   UNL     1      -8.482  -3.840 124.949  0.00  0.00    +0.000 OA
ENDROOT
BRANCH   1   6
ATOM      2  C   UNL     1      -8.387   1.429 123.269  0.00  0.00    +0.000 A 
ATOM      3  C   UNL     1      -9.346   0.435 123.244  0.00  0.00    +0.000 A 
ATOM      4  N   UNL     1      -8.638  -0.707 123.481  0.00  0.00    +0.000 N 
ATOM      5  C   UNL     1      -9.149  -2.050 123.517  0.00  0.00    +0.000 C 
ATOM      6  C   UNL     1      -8.076  -3.101 123.779  0.00  0.00    +0.000 C 
ATOM      7  C   UNL     1      -6.642  -2.565 123.974  0.00  0.00    +0.000 C 
ATOM      8  O   UNL     1      -6.328  -1.229 123.651  0.00  0.00    +0.000 OA
ATOM      9  C   UNL     1      -7.324  -0.370 123.596  0.00  0.00    +0.000 A 
ATOM     10  N   UNL     1      -7.132   0.920 123.506  0.00  0.00    +0.000 NA
BRANCH   2  12
ATOM     11  O   UNL     1      -8.789   3.165 121.849  0.00  0.00    +0.000 OA
ATOM     12  N   UNL     1      -8.567   2.834 123.027  0.00  0.00    +0.000 N 
ATOM     13  O   UNL     1      -8.446   3.599 123.987  0.00  0.00    +0.000 OA
ENDBRANCH   2  12
ENDBRANCH   1   6
BRANCH   1  14
ATOM     14  C   UNL     1      -9.277  -3.066 125.831  0.00  0.00    +0.000 C 
BRANCH  14  15
ATOM     15  C   UNL     1      -8.558  -2.839 127.116  0.00  0.00    +0.000 A 
ATOM     16  C   UNL     1      -8.683  -3.725 128.194  0.00  0.00    +0.000 A 
ATOM     17  C   UNL     1      -8.246  -3.329 129.456  0.00  0.00    +0.000 A 
ATOM     18  C   UNL     1      -7.586  -2.108 129.619  0.00  0.00    +0.000 A 
ATOM     19  C   UNL     1      -7.403  -1.271 128.516  0.00  0.00    +0.000 A 
ATOM     20  C   UNL     1      -7.871  -1.642 127.267  0.00  0.00    +0.000 A 
BRANCH  18  21
ATOM     21  O   UNL     1      -7.152  -1.835 130.886  0.00  0.00    +0.000 OA
BRANCH  21  22
ATOM     22  C   UNL     1      -7.832  -0.790 131.564  0.00  0.00    +0.000 C 
ATOM     23  F   UNL     1      -8.090  -1.118 132.850  0.00  0.00    +0.000 F 
ATOM     24  F   UNL     1      -7.110   0.352 131.530  0.00  0.00    +0.000 F 
ATOM     25  F   UNL     1      -9.011  -0.559 130.949  0.00  0.00    +0.000 F 
ENDBRANCH  21  22
ENDBRANCH  18  21
ENDBRANCH  14  15
ENDBRANCH   1  14
TORSDOF 6
ENDMDL
MODEL 7
REMARK VINA RESULT:      -7.0      7.169      9.834
REMARK  Name = Pretomanid
REMARK  6 active torsions:
REMARK  status: ('A' for Active; 'I' for Inactive)
REMARK    1  A    between atoms: N_2  and  C_4
REMARK    2  A    between atoms: C_8  and  O_13
REMARK    3  A    between atoms: O_13  and  C_14
REMARK    4  A    between atoms: C_14  and  C_15
REMARK    5  A    between atoms: C_18  and  O_19
REMARK    6  A    between atoms: O_19  and  C_20
REMARK                            x       y       z     vdW  Elec       q    Type
REMARK                         _______ _______ _______ _____ _____    ______ ____
ROOT
ATOM      1  O   UNL     1      -7.995  -2.363 130.550  0.00  0.00    +0.000 OA
ENDROOT
BRANCH   1   6
ATOM      2  C   UNL     1      -3.495  -4.159 133.219  0.00  0.00    +0.000 A 
ATOM      3  C   UNL     1      -4.852  -4.325 133.416  0.00  0.00    +0.000 A 
ATOM      4  N   UNL     1      -5.415  -3.355 132.637  0.00  0.00    +0.000 N 
ATOM      5  C   UNL     1      -6.815  -3.054 132.507  0.00  0.00    +0.000 C 
ATOM      6  C   UNL     1      -7.099  -1.883 131.573  0.00  0.00    +0.000 C 
ATOM      7  C   UNL     1      -5.864  -1.230 130.918  0.00  0.00    +0.000 C 
ATOM      8  O   UNL     1      -4.567  -1.528 131.381  0.00  0.00    +0.000 OA
ATOM      9  C   UNL     1      -4.408  -2.647 132.056  0.00  0.00    +0.000 A 
ATOM     10  N   UNL     1      -3.228  -3.122 132.357  0.00  0.00    +0.000 NA
BRANCH   2  12
ATOM     11  O   UNL     1      -2.543  -6.121 133.881  0.00  0.00    +0.000 OA
ATOM     12  N   UNL     1      -2.420  -4.884 133.839  0.00  0.00    +0.000 N 
ATOM     13  O   UNL     1      -1.489  -4.229 134.315  0.00  0.00    +0.000 OA
ENDBRANCH   2  12
ENDBRANCH   1   6
BRANCH   1  14
ATOM     14  C   UNL     1      -7.393  -3.340 129.717  0.00  0.00    +0.000 C 
BRANCH  14  15
ATOM     15  C   UNL     1      -7.793  -3.130 128.297  0.00  0.00    +0.000 A 
ATOM     16  C   UNL     1      -7.189  -2.148 127.502  0.00  0.00    +0.000 A 
ATOM     17  C   UNL     1      -7.787  -1.783 126.297  0.00  0.00    +0.000 A 
ATOM     18  C   UNL     1      -8.912  -2.473 125.835  0.00  0.00    +0.000 A 
ATOM     19  C   UNL     1      -9.455  -3.502 126.607  0.00  0.00    +0.000 A 
ATOM     20  C   UNL     1      -8.889  -3.841 127.824  0.00  0.00    +0.000 A 
BRANCH  18  21
ATOM     21  O   UNL     1      -9.392  -2.073 124.620  0.00  0.00    +0.000 OA
BRANCH  21  22
ATOM     22  C   UNL     1      -9.082  -2.918 123.521  0.00  0.00    +0.000 C 
ATOM     23  F   UNL     1     -10.113  -3.741 123.223  0.00  0.00    +0.000 F 
ATOM     24  F   UNL     1      -8.763  -2.186 122.430  0.00  0.00    +0.000 F 
ATOM     25  F   UNL     1      -8.017  -3.683 123.840  0.00  0.00    +0.000 F 
ENDBRANCH  21  22
ENDBRANCH  18  21
ENDBRANCH  14  15
ENDBRANCH   1  14
TORSDOF 6
ENDMDL
MODEL 8
REMARK VINA RESULT:      -7.0      5.081      6.538
REMARK  Name = Pretomanid
REMARK  6 active torsions:
REMARK  status: ('A' for Active; 'I' for Inactive)
REMARK    1  A    between atoms: N_2  and  C_4
REMARK    2  A    between atoms: C_8  and  O_13
REMARK    3  A    between atoms: O_13  and  C_14
REMARK    4  A    between atoms: C_14  and  C_15
REMARK    5  A    between atoms: C_18  and  O_19
REMARK    6  A    between atoms: O_19  and  C_20
REMARK                            x       y       z     vdW  Elec       q    Type
REMARK                         _______ _______ _______ _____ _____    ______ ____
ROOT
ATOM      1  O   UNL     1      -6.868   0.157 129.024  0.00  0.00    +0.000 OA
ENDROOT
BRANCH   1   6
ATOM      2  C   UNL     1      -8.580   5.247 130.349  0.00  0.00    +0.000 A 
ATOM      3  C   UNL     1      -8.519   4.051 131.036  0.00  0.00    +0.000 A 
ATOM      4  N   UNL     1      -8.335   3.120 130.054  0.00  0.00    +0.000 N 
ATOM      5  C   UNL     1      -8.249   1.695 130.219  0.00  0.00    +0.000 C 
ATOM      6  C   UNL     1      -8.072   0.942 128.905  0.00  0.00    +0.000 C 
ATOM      7  C   UNL     1      -8.001   1.815 127.634  0.00  0.00    +0.000 C 
ATOM      8  O   UNL     1      -8.357   3.178 127.681  0.00  0.00    +0.000 OA
ATOM      9  C   UNL     1      -8.333   3.768 128.857  0.00  0.00    +0.000 A 
ATOM     10  N   UNL     1      -8.446   5.064 128.993  0.00  0.00    +0.000 NA
BRANCH   2  12
ATOM     11  O   UNL     1      -8.592   7.515 130.119  0.00  0.00    +0.000 OA
ATOM     12  N   UNL     1      -8.814   6.561 130.885  0.00  0.00    +0.000 N 
ATOM     13  O   UNL     1      -9.170   6.642 132.063  0.00  0.00    +0.000 OA
ENDBRANCH   2  12
ENDBRANCH   1   6
BRANCH   1  14
ATOM     14  C   UNL     1      -7.127  -1.179 129.418  0.00  0.00    +0.000 C 
BRANCH  14  15
ATOM     15  C   UNL     1      -7.346  -2.041 128.223  0.00  0.00    +0.000 A 
ATOM     16  C   UNL     1      -6.579  -1.891 127.060  0.00  0.00    +0.000 A 
ATOM     17  C   UNL     1      -7.005  -2.496 125.879  0.00  0.00    +0.000 A 
ATOM     18  C   UNL     1      -8.121  -3.339 125.886  0.00  0.00    +0.000 A 
ATOM     19  C   UNL     1      -8.828  -3.536 127.074  0.00  0.00    +0.000 A 
ATOM     20  C   UNL     1      -8.433  -2.905 128.241  0.00  0.00    +0.000 A 
BRANCH  18  21
ATOM     21  O   UNL     1      -8.426  -3.924 124.690  0.00  0.00    +0.000 OA
BRANCH  21  22
ATOM     22  C   UNL     1      -9.066  -3.089 123.735  0.00  0.00    +0.000 C 
ATOM     23  F   UNL     1      -9.579  -1.979 124.312  0.00  0.00    +0.000 F 
ATOM     24  F   UNL     1      -8.201  -2.728 122.761  0.00  0.00    +0.000 F 
ATOM     25  F   UNL     1     -10.081  -3.770 123.164  0.00  0.00    +0.000 F 
ENDBRANCH  21  22
ENDBRANCH  18  21
ENDBRANCH  14  15
ENDBRANCH   1  14
TORSDOF 6
ENDMDL
MODEL 9
REMARK VINA RESULT:      -7.0      3.686      4.469
REMARK  Name = Pretomanid
REMARK  6 active torsions:
REMARK  status: ('A' for Active; 'I' for Inactive)
REMARK    1  A    between atoms: N_2  and  C_4
REMARK    2  A    between atoms: C_8  and  O_13
REMARK    3  A    between atoms: O_13  and  C_14
REMARK    4  A    between atoms: C_14  and  C_15
REMARK    5  A    between atoms: C_18  and  O_19
REMARK    6  A    between atoms: O_19  and  C_20
REMARK                            x       y       z     vdW  Elec       q    Type
REMARK                         _______ _______ _______ _____ _____    ______ ____
ROOT
ATOM      1  O   UNL     1      -9.166  -1.326 125.476  0.00  0.00    +0.000 OA
ENDROOT
BRANCH   1   6
ATOM      2  C   UNL     1      -7.409   2.923 122.401  0.00  0.00    +0.000 A 
ATOM      3  C   UNL     1      -6.772   1.873 123.032  0.00  0.00    +0.000 A 
ATOM      4  N   UNL     1      -7.713   1.392 123.896  0.00  0.00    +0.000 N 
ATOM      5  C   UNL     1      -7.555   0.316 124.836  0.00  0.00    +0.000 C 
ATOM      6  C   UNL     1      -8.801   0.055 125.675  0.00  0.00    +0.000 C 
ATOM      7  C   UNL     1     -10.015   0.961 125.377  0.00  0.00    +0.000 C 
ATOM      8  O   UNL     1      -9.868   2.117 124.583  0.00  0.00    +0.000 OA
ATOM      9  C   UNL     1      -8.824   2.170 123.782  0.00  0.00    +0.000 A 
ATOM     10  N   UNL     1      -8.694   3.091 122.863  0.00  0.00    +0.000 NA
BRANCH   2  12
ATOM     11  O   UNL     1      -5.794   4.380 121.722  0.00  0.00    +0.000 OA
ATOM     12  N   UNL     1      -6.866   3.825 121.423  0.00  0.00    +0.000 N 
ATOM     13  O   UNL     1      -7.518   4.010 120.392  0.00  0.00    +0.000 OA
ENDBRANCH   2  12
ENDBRANCH   1   6
BRANCH   1  14
ATOM     14  C   UNL     1      -8.036  -2.180 125.399  0.00  0.00    +0.000 C 
BRANCH  14  15
ATOM     15  C   UNL     1      -7.654  -2.659 126.758  0.00  0.00    +0.000 A 
ATOM     16  C   UNL     1      -8.578  -3.288 127.601  0.00  0.00    +0.000 A 
ATOM     17  C   UNL     1      -8.272  -3.446 128.951  0.00  0.00    +0.000 A 
ATOM     18  C   UNL     1      -7.010  -3.084 129.432  0.00  0.00    +0.000 A 
ATOM     19  C   UNL     1      -6.073  -2.528 128.557  0.00  0.00    +0.000 A 
ATOM     20  C   UNL     1      -6.387  -2.332 127.223  0.00  0.00    +0.000 A 
BRANCH  18  21
ATOM     21  O   UNL     1      -6.791  -3.326 130.758  0.00  0.00    +0.000 OA
BRANCH  21  22
ATOM     22  C   UNL     1      -5.840  -4.338 131.057  0.00  0.00    +0.000 C 
ATOM     23  F   UNL     1      -5.911  -4.718 132.352  0.00  0.00    +0.000 F 
ATOM     24  F   UNL     1      -6.024  -5.416 130.263  0.00  0.00    +0.000 F 
ATOM     25  F   UNL     1      -4.599  -3.857 130.831  0.00  0.00    +0.000 F 
ENDBRANCH  21  22
ENDBRANCH  18  21
ENDBRANCH  14  15
ENDBRANCH   1  14
TORSDOF 6
ENDMDL
