MODEL 1
REMARK VINA RESULT:      -6.0      0.000      0.000
REMARK  Name = Prilocaine
REMARK  8 active torsions:
REMARK  status: ('A' for Active; 'I' for Inactive)
REMARK    1  A    between atoms: C_1  and  C_2
REMARK    2  A    between atoms: C_2  and  C_3
REMARK    3  A    between atoms: C_3  and  N_4
REMARK    4  A    between atoms: N_4  and  C_5
REMARK    5  A    between atoms: C_5  and  C_6
REMARK    6  A    between atoms: C_5  and  C_7
REMARK    7  A    between atoms: N_9  and  C_10
REMARK    8  A    between atoms: C_15  and  C_16
REMARK                            x       y       z     vdW  Elec       q    Type
REMARK                         _______ _______ _______ _____ _____    ______ ____
ROOT
ATOM      1  C   UNL     1      -9.439   6.314 130.540  0.00  0.00    +0.000 C 
ATOM      2  O   UNL     1      -9.739   5.165 130.197  0.00  0.00    +0.000 OA
ATOM      3  N   UNL     1     -10.025   7.457 129.997  0.00  0.00    +0.000 N 
ATOM      4  H   UNL     1      -9.462   8.297 129.958  0.00  0.00    +0.000 HD
ENDROOT
BRANCH   3   5
ATOM      5  C   UNL     1     -11.096   7.359 129.068  0.00  0.00    +0.000 A 
ATOM      6  C   UNL     1     -10.821   7.416 127.691  0.00  0.00    +0.000 A 
ATOM      7  C   UNL     1     -11.857   7.289 126.755  0.00  0.00    +0.000 A 
ATOM      8  C   UNL     1     -13.172   7.140 127.185  0.00  0.00    +0.000 A 
ATOM      9  C   UNL     1     -13.455   7.128 128.549  0.00  0.00    +0.000 A 
ATOM     10  C   UNL     1     -12.431   7.245 129.503  0.00  0.00    +0.000 A 
ATOM     11  C   UNL     1     -12.824   7.344 130.953  0.00  0.00    +0.000 C 
ENDBRANCH   3   5
BRANCH   1  12
ATOM     12  C   UNL     1      -8.330   6.558 131.595  0.00  0.00    +0.000 C 
ATOM     13  C   UNL     1      -7.108   5.747 131.179  0.00  0.00    +0.000 C 
BRANCH  12  14
ATOM     14  N   UNL     1      -8.833   6.115 132.917  0.00  0.00    +0.000 NA
ATOM     15  H   UNL     1      -9.143   6.925 133.458  0.00  0.00    +0.000 HD
BRANCH  14  16
ATOM     16  C   UNL     1      -7.905   5.288 133.663  0.00  0.00    +0.000 C 
BRANCH  16  18
ATOM     17  C   UNL     1      -9.168   3.174 133.347  0.00  0.00    +0.000 C 
ATOM     18  C   UNL     1      -8.629   4.153 134.379  0.00  0.00    +0.000 C 
ENDBRANCH  16  18
ENDBRANCH  14  16
ENDBRANCH  12  14
ENDBRANCH   1  12
TORSDOF 5
ENDMDL
MODEL 2
REMARK VINA RESULT:      -6.0      8.774     10.026
REMARK  Name = Prilocaine
REMARK  8 active torsions:
REMARK  status: ('A' for Active; 'I' for Inactive)
REMARK    1  A    between atoms: C_1  and  C_2
REMARK    2  A    between atoms: C_2  and  C_3
REMARK    3  A    between atoms: C_3  and  N_4
REMARK    4  A    between atoms: N_4  and  C_5
REMARK    5  A    between atoms: C_5  and  C_6
REMARK    6  A    between atoms: C_5  and  C_7
REMARK    7  A    between atoms: N_9  and  C_10
REMARK    8  A    between atoms: C_15  and  C_16
REMARK                            x       y       z     vdW  Elec       q    Type
REMARK                         _______ _______ _______ _____ _____    ______ ____
ROOT
ATOM      1  C   UNL     1      -8.136   1.462 123.346  0.00  0.00    +0.000 C 
ATOM      2  O   UNL     1      -7.155   0.761 123.071  0.00  0.00    +0.000 OA
ATOM      3  N   UNL     1      -8.275   2.785 122.928  0.00  0.00    +0.000 N 
ATOM      4  H   UNL     1      -8.807   3.409 123.523  0.00  0.00    +0.000 HD
ENDROOT
BRANCH   3   5
ATOM      5  C   UNL     1      -7.323   3.384 122.061  0.00  0.00    +0.000 A 
ATOM      6  C   UNL     1      -6.019   3.621 122.528  0.00  0.00    +0.000 A 
ATOM      7  C   UNL     1      -5.053   4.180 121.681  0.00  0.00    +0.000 A 
ATOM      8  C   UNL     1      -5.388   4.537 120.378  0.00  0.00    +0.000 A 
ATOM      9  C   UNL     1      -6.691   4.347 119.925  0.00  0.00    +0.000 A 
ATOM     10  C   UNL     1      -7.672   3.780 120.755  0.00  0.00    +0.000 A 
ATOM     11  C   UNL     1      -9.085   3.715 120.237  0.00  0.00    +0.000 C 
ENDBRANCH   3   5
BRANCH   1  12
ATOM     12  C   UNL     1      -9.280   0.907 124.231  0.00  0.00    +0.000 C 
ATOM     13  C   UNL     1      -8.940   1.229 125.683  0.00  0.00    +0.000 C 
BRANCH  12  14
ATOM     14  N   UNL     1      -9.368  -0.557 124.022  0.00  0.00    +0.000 NA
ATOM     15  H   UNL     1     -10.294  -0.800 123.663  0.00  0.00    +0.000 HD
BRANCH  14  16
ATOM     16  C   UNL     1      -9.011  -1.350 125.182  0.00  0.00    +0.000 C 
BRANCH  16  18
ATOM     17  C   UNL     1      -9.363  -3.035 123.393  0.00  0.00    +0.000 C 
ATOM     18  C   UNL     1      -8.909  -2.831 124.830  0.00  0.00    +0.000 C 
ENDBRANCH  16  18
ENDBRANCH  14  16
ENDBRANCH  12  14
ENDBRANCH   1  12
TORSDOF 5
ENDMDL
MODEL 3
REMARK VINA RESULT:      -5.9      8.999     10.716
REMARK  Name = Prilocaine
REMARK  8 active torsions:
REMARK  status: ('A' for Active; 'I' for Inactive)
REMARK    1  A    between atoms: C_1  and  C_2
REMARK    2  A    between atoms: C_2  and  C_3
REMARK    3  A    between atoms: C_3  and  N_4
REMARK    4  A    between atoms: N_4  and  C_5
REMARK    5  A    between atoms: C_5  and  C_6
REMARK    6  A    between atoms: C_5  and  C_7
REMARK    7  A    between atoms: N_9  and  C_10
REMARK    8  A    between atoms: C_15  and  C_16
REMARK                            x       y       z     vdW  Elec       q    Type
REMARK                         _______ _______ _______ _____ _____    ______ ____
ROOT
ATOM      1  C   UNL     1      -8.869   1.683 123.237  0.00  0.00    +0.000 C 
ATOM      2  O   UNL     1     -10.092   1.588 123.385  0.00  0.00    +0.000 OA
ATOM      3  N   UNL     1      -7.977   0.648 123.519  0.00  0.00    +0.000 N 
ATOM      4  H   UNL     1      -7.045   0.905 123.818  0.00  0.00    +0.000 HD
ENDROOT
BRANCH   3   5
ATOM      5  C   UNL     1      -8.445  -0.636 123.907  0.00  0.00    +0.000 A 
ATOM      6  C   UNL     1      -8.751  -1.584 122.916  0.00  0.00    +0.000 A 
ATOM      7  C   UNL     1      -9.183  -2.869 123.275  0.00  0.00    +0.000 A 
ATOM      8  C   UNL     1      -9.345  -3.203 124.616  0.00  0.00    +0.000 A 
ATOM      9  C   UNL     1      -9.086  -2.251 125.600  0.00  0.00    +0.000 A 
ATOM     10  C   UNL     1      -8.644  -0.961 125.263  0.00  0.00    +0.000 A 
ATOM     11  C   UNL     1      -8.500   0.048 126.370  0.00  0.00    +0.000 C 
ENDBRANCH   3   5
BRANCH   1  12
ATOM     12  C   UNL     1      -8.233   3.013 122.755  0.00  0.00    +0.000 C 
ATOM     13  C   UNL     1      -8.779   3.309 121.363  0.00  0.00    +0.000 C 
BRANCH  12  14
ATOM     14  N   UNL     1      -6.761   2.844 122.721  0.00  0.00    +0.000 NA
ATOM     15  H   UNL     1      -6.329   3.437 123.432  0.00  0.00    +0.000 HD
BRANCH  14  16
ATOM     16  C   UNL     1      -6.167   3.044 121.414  0.00  0.00    +0.000 C 
BRANCH  16  18
ATOM     17  C   UNL     1      -5.345   4.987 120.104  0.00  0.00    +0.000 C 
ATOM     18  C   UNL     1      -5.210   4.232 121.418  0.00  0.00    +0.000 C 
ENDBRANCH  16  18
ENDBRANCH  14  16
ENDBRANCH  12  14
ENDBRANCH   1  12
TORSDOF 5
ENDMDL
MODEL 4
REMARK VINA RESULT:      -5.9      1.599      1.979
REMARK  Name = Prilocaine
REMARK  8 active torsions:
REMARK  status: ('A' for Active; 'I' for Inactive)
REMARK    1  A    between atoms: C_1  and  C_2
REMARK    2  A    between atoms: C_2  and  C_3
REMARK    3  A    between atoms: C_3  and  N_4
REMARK    4  A    between atoms: N_4  and  C_5
REMARK    5  A    between atoms: C_5  and  C_6
REMARK    6  A    between atoms: C_5  and  C_7
REMARK    7  A    between atoms: N_9  and  C_10
REMARK    8  A    between atoms: C_15  and  C_16
REMARK                            x       y       z     vdW  Elec       q    Type
REMARK                         _______ _______ _______ _____ _____    ______ ____
ROOT
ATOM      1  C   UNL     1     -10.353   4.897 130.732  0.00  0.00    +0.000 C 
ATOM      2  O   UNL     1     -11.102   4.291 129.957  0.00  0.00    +0.000 OA
ATOM      3  N   UNL     1     -10.172   6.279 130.703  0.00  0.00    +0.000 N 
ATOM      4  H   UNL     1      -9.274   6.638 131.001  0.00  0.00    +0.000 HD
ENDROOT
BRANCH   3   5
ATOM      5  C   UNL     1     -10.931   7.099 129.826  0.00  0.00    +0.000 A 
ATOM      6  C   UNL     1     -10.391   7.457 128.578  0.00  0.00    +0.000 A 
ATOM      7  C   UNL     1     -11.134   8.238 127.682  0.00  0.00    +0.000 A 
ATOM      8  C   UNL     1     -12.400   8.694 128.037  0.00  0.00    +0.000 A 
ATOM      9  C   UNL     1     -12.921   8.379 129.290  0.00  0.00    +0.000 A 
ATOM     10  C   UNL     1     -12.197   7.591 130.198  0.00  0.00    +0.000 A 
ATOM     11  C   UNL     1     -12.772   7.393 131.576  0.00  0.00    +0.000 C 
ENDBRANCH   3   5
BRANCH   1  12
ATOM     12  C   UNL     1      -9.516   4.126 131.784  0.00  0.00    +0.000 C 
ATOM     13  C   UNL     1      -9.934   2.660 131.725  0.00  0.00    +0.000 C 
BRANCH  12  14
ATOM     14  N   UNL     1      -9.795   4.701 133.120  0.00  0.00    +0.000 NA
ATOM     15  H   UNL     1     -10.629   5.290 133.076  0.00  0.00    +0.000 HD
BRANCH  14  16
ATOM     16  C   UNL     1      -8.672   5.397 133.718  0.00  0.00    +0.000 C 
BRANCH  16  18
ATOM     17  C   UNL     1      -7.236   5.451 135.743  0.00  0.00    +0.000 C 
ATOM     18  C   UNL     1      -8.002   4.545 134.791  0.00  0.00    +0.000 C 
ENDBRANCH  16  18
ENDBRANCH  14  16
ENDBRANCH  12  14
ENDBRANCH   1  12
TORSDOF 5
ENDMDL
MODEL 5
REMARK VINA RESULT:      -5.9      9.134     10.936
REMARK  Name = Prilocaine
REMARK  8 active torsions:
REMARK  status: ('A' for Active; 'I' for Inactive)
REMARK    1  A    between atoms: C_1  and  C_2
REMARK    2  A    between atoms: C_2  and  C_3
REMARK    3  A    between atoms: C_3  and  N_4
REMARK    4  A    between atoms: N_4  and  C_5
REMARK    5  A    between atoms: C_5  and  C_6
REMARK    6  A    between atoms: C_5  and  C_7
REMARK    7  A    between atoms: N_9  and  C_10
REMARK    8  A    between atoms: C_15  and  C_16
REMARK                            x       y       z     vdW  Elec       q    Type
REMARK                         _______ _______ _______ _____ _____    ______ ____
ROOT
ATOM      1  C   UNL     1      -8.299   1.425 123.464  0.00  0.00    +0.000 C 
ATOM      2  O   UNL     1      -9.356   1.103 122.910  0.00  0.00    +0.000 OA
ATOM      3  N   UNL     1      -7.588   0.578 124.314  0.00  0.00    +0.000 N 
ATOM      4  H   UNL     1      -7.045   1.008 125.053  0.00  0.00    +0.000 HD
ENDROOT
BRANCH   3   5
ATOM      5  C   UNL     1      -7.997  -0.767 124.518  0.00  0.00    +0.000 A 
ATOM      6  C   UNL     1      -8.860  -1.070 125.584  0.00  0.00    +0.000 A 
ATOM      7  C   UNL     1      -9.304  -2.384 125.786  0.00  0.00    +0.000 A 
ATOM      8  C   UNL     1      -8.863  -3.406 124.950  0.00  0.00    +0.000 A 
ATOM      9  C   UNL     1      -7.971  -3.118 123.920  0.00  0.00    +0.000 A 
ATOM     10  C   UNL     1      -7.521  -1.807 123.695  0.00  0.00    +0.000 A 
ATOM     11  C   UNL     1      -6.468  -1.591 122.641  0.00  0.00    +0.000 C 
ENDBRANCH   3   5
BRANCH   1  12
ATOM     12  C   UNL     1      -7.708   2.845 123.272  0.00  0.00    +0.000 C 
ATOM     13  C   UNL     1      -7.897   3.606 124.580  0.00  0.00    +0.000 C 
BRANCH  12  14
ATOM     14  N   UNL     1      -8.433   3.510 122.164  0.00  0.00    +0.000 NA
ATOM     15  H   UNL     1      -9.319   3.032 121.995  0.00  0.00    +0.000 HD
BRANCH  14  16
ATOM     16  C   UNL     1      -7.657   3.661 120.948  0.00  0.00    +0.000 C 
BRANCH  16  18
ATOM     17  C   UNL     1      -5.493   4.665 120.259  0.00  0.00    +0.000 C 
ATOM     18  C   UNL     1      -6.163   3.723 121.248  0.00  0.00    +0.000 C 
ENDBRANCH  16  18
ENDBRANCH  14  16
ENDBRANCH  12  14
ENDBRANCH   1  12
TORSDOF 5
ENDMDL
MODEL 6
REMARK VINA RESULT:      -5.8      1.632      2.859
REMARK  Name = Prilocaine
REMARK  8 active torsions:
REMARK  status: ('A' for Active; 'I' for Inactive)
REMARK    1  A    between atoms: C_1  and  C_2
REMARK    2  A    between atoms: C_2  and  C_3
REMARK    3  A    between atoms: C_3  and  N_4
REMARK    4  A    between atoms: N_4  and  C_5
REMARK    5  A    between atoms: C_5  and  C_6
REMARK    6  A    between atoms: C_5  and  C_7
REMARK    7  A    between atoms: N_9  and  C_10
REMARK    8  A    between atoms: C_15  and  C_16
REMARK                            x       y       z     vdW  Elec       q    Type
REMARK                         _______ _______ _______ _____ _____    ______ ____
ROOT
ATOM      1  C   UNL     1      -9.204   5.954 130.031  0.00  0.00    +0.000 C 
ATOM      2  O   UNL     1      -9.471   4.959 129.348  0.00  0.00    +0.000 OA
ATOM      3  N   UNL     1      -9.890   7.164 129.927  0.00  0.00    +0.000 N 
ATOM      4  H   UNL     1      -9.376   8.011 130.134  0.00  0.00    +0.000 HD
ENDROOT
BRANCH   3   5
ATOM      5  C   UNL     1     -11.024   7.293 129.081  0.00  0.00    +0.000 A 
ATOM      6  C   UNL     1     -10.835   7.496 127.703  0.00  0.00    +0.000 A 
ATOM      7  C   UNL     1     -11.938   7.593 126.843  0.00  0.00    +0.000 A 
ATOM      8  C   UNL     1     -13.230   7.523 127.354  0.00  0.00    +0.000 A 
ATOM      9  C   UNL     1     -13.423   7.367 128.724  0.00  0.00    +0.000 A 
ATOM     10  C   UNL     1     -12.332   7.259 129.602  0.00  0.00    +0.000 A 
ATOM     11  C   UNL     1     -12.616   7.212 131.080  0.00  0.00    +0.000 C 
ENDBRANCH   3   5
BRANCH   1  12
ATOM     12  C   UNL     1      -8.030   5.926 131.043  0.00  0.00    +0.000 C 
ATOM     13  C   UNL     1      -8.619   6.087 132.440  0.00  0.00    +0.000 C 
BRANCH  12  14
ATOM     14  N   UNL     1      -7.110   7.043 130.725  0.00  0.00    +0.000 NA
ATOM     15  H   UNL     1      -7.157   7.257 129.727  0.00  0.00    +0.000 HD
BRANCH  14  16
ATOM     16  C   UNL     1      -5.745   6.838 131.171  0.00  0.00    +0.000 C 
BRANCH  16  18
ATOM     17  C   UNL     1      -3.411   7.673 131.042  0.00  0.00    +0.000 C 
ATOM     18  C   UNL     1      -4.764   7.666 130.347  0.00  0.00    +0.000 C 
ENDBRANCH  16  18
ENDBRANCH  14  16
ENDBRANCH  12  14
ENDBRANCH   1  12
TORSDOF 5
ENDMDL
MODEL 7
REMARK VINA RESULT:      -5.8      9.457     11.153
REMARK  Name = Prilocaine
REMARK  8 active torsions:
REMARK  status: ('A' for Active; 'I' for Inactive)
REMARK    1  A    between atoms: C_1  and  C_2
REMARK    2  A    between atoms: C_2  and  C_3
REMARK    3  A    between atoms: C_3  and  N_4
REMARK    4  A    between atoms: N_4  and  C_5
REMARK    5  A    between atoms: C_5  and  C_6
REMARK    6  A    between atoms: C_5  and  C_7
REMARK    7  A    between atoms: N_9  and  C_10
REMARK    8  A    between atoms: C_15  and  C_16
REMARK                            x       y       z     vdW  Elec       q    Type
REMARK                         _______ _______ _______ _____ _____    ______ ____
ROOT
ATOM      1  C   UNL     1      -8.753   0.331 124.275  0.00  0.00    +0.000 C 
ATOM      2  O   UNL     1      -8.235   0.373 125.396  0.00  0.00    +0.000 OA
ATOM      3  N   UNL     1      -8.421  -0.618 123.309  0.00  0.00    +0.000 N 
ATOM      4  H   UNL     1      -8.505  -0.345 122.338  0.00  0.00    +0.000 HD
ENDROOT
BRANCH   3   5
ATOM      5  C   UNL     1      -7.519  -1.675 123.601  0.00  0.00    +0.000 A 
ATOM      6  C   UNL     1      -6.136  -1.453 123.485  0.00  0.00    +0.000 A 
ATOM      7  C   UNL     1      -5.225  -2.471 123.800  0.00  0.00    +0.000 A 
ATOM      8  C   UNL     1      -5.686  -3.722 124.197  0.00  0.00    +0.000 A 
ATOM      9  C   UNL     1      -7.056  -3.961 124.270  0.00  0.00    +0.000 A 
ATOM     10  C   UNL     1      -7.985  -2.953 123.968  0.00  0.00    +0.000 A 
ATOM     11  C   UNL     1      -9.446  -3.319 123.953  0.00  0.00    +0.000 C 
ENDBRANCH   3   5
BRANCH   1  12
ATOM     12  C   UNL     1      -9.804   1.390 123.851  0.00  0.00    +0.000 C 
ATOM     13  C   UNL     1     -10.398   0.945 122.519  0.00  0.00    +0.000 C 
BRANCH  12  14
ATOM     14  N   UNL     1      -9.123   2.699 123.716  0.00  0.00    +0.000 NA
ATOM     15  H   UNL     1      -9.752   3.448 124.011  0.00  0.00    +0.000 HD
BRANCH  14  16
ATOM     16  C   UNL     1      -8.562   2.948 122.402  0.00  0.00    +0.000 C 
BRANCH  16  18
ATOM     17  C   UNL     1      -6.600   3.381 123.861  0.00  0.00    +0.000 C 
ATOM     18  C   UNL     1      -7.039   3.007 122.453  0.00  0.00    +0.000 C 
ENDBRANCH  16  18
ENDBRANCH  14  16
ENDBRANCH  12  14
ENDBRANCH   1  12
TORSDOF 5
ENDMDL
MODEL 8
REMARK VINA RESULT:      -5.8      1.109      1.223
REMARK  Name = Prilocaine
REMARK  8 active torsions:
REMARK  status: ('A' for Active; 'I' for Inactive)
REMARK    1  A    between atoms: C_1  and  C_2
REMARK    2  A    between atoms: C_2  and  C_3
REMARK    3  A    between atoms: C_3  and  N_4
REMARK    4  A    between atoms: N_4  and  C_5
REMARK    5  A    between atoms: C_5  and  C_6
REMARK    6  A    between atoms: C_5  and  C_7
REMARK    7  A    between atoms: N_9  and  C_10
REMARK    8  A    between atoms: C_15  and  C_16
REMARK                            x       y       z     vdW  Elec       q    Type
REMARK                         _______ _______ _______ _____ _____    ______ ____
ROOT
ATOM      1  C   UNL     1      -9.637   5.521 130.427  0.00  0.00    +0.000 C 
ATOM      2  O   UNL     1     -10.050   4.515 129.838  0.00  0.00    +0.000 OA
ATOM      3  N   UNL     1     -10.060   6.815 130.125  0.00  0.00    +0.000 N 
ATOM      4  H   UNL     1      -9.402   7.569 130.281  0.00  0.00    +0.000 HD
ENDROOT
BRANCH   3   5
ATOM      5  C   UNL     1     -11.086   7.047 129.170  0.00  0.00    +0.000 A 
ATOM      6  C   UNL     1     -10.747   7.170 127.812  0.00  0.00    +0.000 A 
ATOM      7  C   UNL     1     -11.745   7.366 126.847  0.00  0.00    +0.000 A 
ATOM      8  C   UNL     1     -13.078   7.475 127.233  0.00  0.00    +0.000 A 
ATOM      9  C   UNL     1     -13.413   7.399 128.583  0.00  0.00    +0.000 A 
ATOM     10  C   UNL     1     -12.430   7.195 129.564  0.00  0.00    +0.000 A 
ATOM     11  C   UNL     1     -12.852   7.243 131.009  0.00  0.00    +0.000 C 
ENDBRANCH   3   5
BRANCH   1  12
ATOM     12  C   UNL     1      -8.563   5.400 131.537  0.00  0.00    +0.000 C 
ATOM     13  C   UNL     1      -7.553   6.523 131.328  0.00  0.00    +0.000 C 
BRANCH  12  14
ATOM     14  N   UNL     1      -7.912   4.075 131.419  0.00  0.00    +0.000 NA
ATOM     15  H   UNL     1      -8.349   3.540 130.666  0.00  0.00    +0.000 HD
BRANCH  14  16
ATOM     16  C   UNL     1      -7.858   3.322 132.657  0.00  0.00    +0.000 C 
BRANCH  16  18
ATOM     17  C   UNL     1      -9.754   1.810 132.123  0.00  0.00    +0.000 C 
ATOM     18  C   UNL     1      -9.249   2.870 133.090  0.00  0.00    +0.000 C 
ENDBRANCH  16  18
ENDBRANCH  14  16
ENDBRANCH  12  14
ENDBRANCH   1  12
TORSDOF 5
ENDMDL
MODEL 9
REMARK VINA RESULT:      -5.7      1.674      2.714
REMARK  Name = Prilocaine
REMARK  8 active torsions:
REMARK  status: ('A' for Active; 'I' for Inactive)
REMARK    1  A    between atoms: C_1  and  C_2
REMARK    2  A    between atoms: C_2  and  C_3
REMARK    3  A    between atoms: C_3  and  N_4
REMARK    4  A    between atoms: N_4  and  C_5
REMARK    5  A    between atoms: C_5  and  C_6
REMARK    6  A    between atoms: C_5  and  C_7
REMARK    7  A    between atoms: N_9  and  C_10
REMARK    8  A    between atoms: C_15  and  C_16
REMARK                            x       y       z     vdW  Elec       q    Type
REMARK                         _______ _______ _______ _____ _____    ______ ____
ROOT
ATOM      1  C   UNL     1      -9.896   5.687 131.138  0.00  0.00    +0.000 C 
ATOM      2  O   UNL     1      -9.361   6.684 131.635  0.00  0.00    +0.000 OA
ATOM      3  N   UNL     1     -11.066   5.740 130.380  0.00  0.00    +0.000 N 
ATOM      4  H   UNL     1     -11.674   4.931 130.402  0.00  0.00    +0.000 HD
ENDROOT
BRANCH   3   5
ATOM      5  C   UNL     1     -11.666   6.983 130.045  0.00  0.00    +0.000 A 
ATOM      6  C   UNL     1     -12.614   7.546 130.917  0.00  0.00    +0.000 A 
ATOM      7  C   UNL     1     -13.196   8.788 130.625  0.00  0.00    +0.000 A 
ATOM      8  C   UNL     1     -12.863   9.456 129.450  0.00  0.00    +0.000 A 
ATOM      9  C   UNL     1     -11.958   8.881 128.562  0.00  0.00    +0.000 A 
ATOM     10  C   UNL     1     -11.358   7.642 128.839  0.00  0.00    +0.000 A 
ATOM     11  C   UNL     1     -10.483   7.027 127.779  0.00  0.00    +0.000 C 
ENDBRANCH   3   5
BRANCH   1  12
ATOM     12  C   UNL     1      -9.304   4.274 131.371  0.00  0.00    +0.000 C 
ATOM     13  C   UNL     1      -9.765   3.383 130.223  0.00  0.00    +0.000 C 
BRANCH  12  14
ATOM     14  N   UNL     1      -9.804   3.764 132.669  0.00  0.00    +0.000 NA
ATOM     15  H   UNL     1      -9.976   4.545 133.305  0.00  0.00    +0.000 HD
BRANCH  14  16
ATOM     16  C   UNL     1      -8.967   2.747 133.275  0.00  0.00    +0.000 C 
BRANCH  16  18
ATOM     17  C   UNL     1      -8.088   4.530 134.762  0.00  0.00    +0.000 C 
ATOM     18  C   UNL     1      -7.703   3.355 133.875  0.00  0.00    +0.000 C 
ENDBRANCH  16  18
ENDBRANCH  14  16
ENDBRANCH  12  14
ENDBRANCH   1  12
TORSDOF 5
ENDMDL
