MODEL 1
REMARK VINA RESULT:      -6.8      0.000      0.000
REMARK  Name = Primidone
REMARK  3 active torsions:
REMARK  status: ('A' for Active; 'I' for Inactive)
REMARK    1  A    between atoms: C_1  and  C_2
REMARK    2  A    between atoms: C_2  and  C_3
REMARK    3  A    between atoms: C_3  and  C_11
REMARK                            x       y       z     vdW  Elec       q    Type
REMARK                         _______ _______ _______ _____ _____    ______ ____
ROOT
ATOM      1  C   UNL     1      -7.929  -1.901 125.054  0.00  0.00    +0.000 C 
ATOM      2  C   UNL     1      -6.557  -1.357 124.613  0.00  0.00    +0.000 C 
ATOM      3  O   UNL     1      -5.452  -1.638 125.082  0.00  0.00    +0.000 OA
ATOM      4  N   UNL     1      -6.651  -0.722 123.380  0.00  0.00    +0.000 N 
ATOM      5  C   UNL     1      -7.626   0.303 123.232  0.00  0.00    +0.000 C 
ATOM      6  N   UNL     1      -8.902  -0.224 123.561  0.00  0.00    +0.000 N 
ATOM      7  C   UNL     1      -8.959  -0.767 124.822  0.00  0.00    +0.000 C 
ATOM      8  O   UNL     1      -9.806  -0.363 125.618  0.00  0.00    +0.000 OA
ATOM      9  H   UNL     1      -5.903  -0.840 122.711  0.00  0.00    +0.000 HD
ATOM     10  H   UNL     1      -9.713   0.334 123.334  0.00  0.00    +0.000 HD
ENDROOT
BRANCH   1  11
ATOM     11  C   UNL     1      -8.126  -2.475 126.459  0.00  0.00    +0.000 A 
ATOM     12  C   UNL     1      -8.836  -3.637 126.747  0.00  0.00    +0.000 A 
ATOM     13  C   UNL     1      -9.013  -4.036 128.075  0.00  0.00    +0.000 A 
ATOM     14  C   UNL     1      -8.422  -3.328 129.124  0.00  0.00    +0.000 A 
ATOM     15  C   UNL     1      -7.688  -2.186 128.860  0.00  0.00    +0.000 A 
ATOM     16  C   UNL     1      -7.552  -1.771 127.546  0.00  0.00    +0.000 A 
ENDBRANCH   1  11
BRANCH   1  18
ATOM     17  C   UNL     1      -9.504  -3.298 123.450  0.00  0.00    +0.000 C 
ATOM     18  C   UNL     1      -8.114  -3.107 124.037  0.00  0.00    +0.000 C 
ENDBRANCH   1  18
TORSDOF 2
ENDMDL
MODEL 2
REMARK VINA RESULT:      -6.3      1.225      2.589
REMARK  Name = Primidone
REMARK  3 active torsions:
REMARK  status: ('A' for Active; 'I' for Inactive)
REMARK    1  A    between atoms: C_1  and  C_2
REMARK    2  A    between atoms: C_2  and  C_3
REMARK    3  A    between atoms: C_3  and  C_11
REMARK                            x       y       z     vdW  Elec       q    Type
REMARK                         _______ _______ _______ _____ _____    ______ ____
ROOT
ATOM      1  C   UNL     1      -7.755  -1.806 125.173  0.00  0.00    +0.000 C 
ATOM      2  C   UNL     1      -8.639  -2.140 123.956  0.00  0.00    +0.000 C 
ATOM      3  O   UNL     1      -9.802  -2.551 123.964  0.00  0.00    +0.000 OA
ATOM      4  N   UNL     1      -8.090  -1.623 122.789  0.00  0.00    +0.000 N 
ATOM      5  C   UNL     1      -6.741  -1.953 122.486  0.00  0.00    +0.000 C 
ATOM      6  N   UNL     1      -5.916  -1.570 123.575  0.00  0.00    +0.000 N 
ATOM      7  C   UNL     1      -6.295  -2.132 124.770  0.00  0.00    +0.000 C 
ATOM      8  O   UNL     1      -5.478  -2.785 125.418  0.00  0.00    +0.000 OA
ATOM      9  H   UNL     1      -8.706  -1.225 122.094  0.00  0.00    +0.000 HD
ATOM     10  H   UNL     1      -4.916  -1.580 123.433  0.00  0.00    +0.000 HD
ENDROOT
BRANCH   1  11
ATOM     11  C   UNL     1      -8.046  -2.423 126.542  0.00  0.00    +0.000 A 
ATOM     12  C   UNL     1      -8.765  -3.597 126.744  0.00  0.00    +0.000 A 
ATOM     13  C   UNL     1      -9.033  -4.038 128.043  0.00  0.00    +0.000 A 
ATOM     14  C   UNL     1      -8.521  -3.360 129.152  0.00  0.00    +0.000 A 
ATOM     15  C   UNL     1      -7.779  -2.206 128.976  0.00  0.00    +0.000 A 
ATOM     16  C   UNL     1      -7.554  -1.750 127.687  0.00  0.00    +0.000 A 
ENDBRANCH   1  11
BRANCH   1  18
ATOM     17  C   UNL     1      -9.433   0.187 125.637  0.00  0.00    +0.000 C 
ATOM     18  C   UNL     1      -8.012  -0.244 125.309  0.00  0.00    +0.000 C 
ENDBRANCH   1  18
TORSDOF 2
ENDMDL
MODEL 3
REMARK VINA RESULT:      -6.3      8.963     10.515
REMARK  Name = Primidone
REMARK  3 active torsions:
REMARK  status: ('A' for Active; 'I' for Inactive)
REMARK    1  A    between atoms: C_1  and  C_2
REMARK    2  A    between atoms: C_2  and  C_3
REMARK    3  A    between atoms: C_3  and  C_11
REMARK                            x       y       z     vdW  Elec       q    Type
REMARK                         _______ _______ _______ _____ _____    ______ ____
ROOT
ATOM      1  C   UNL     1      -9.855   5.570 130.779  0.00  0.00    +0.000 C 
ATOM      2  C   UNL     1      -9.880   4.031 130.698  0.00  0.00    +0.000 C 
ATOM      3  O   UNL     1     -10.241   3.336 129.745  0.00  0.00    +0.000 OA
ATOM      4  N   UNL     1      -9.138   3.469 131.729  0.00  0.00    +0.000 N 
ATOM      5  C   UNL     1      -9.441   3.867 133.060  0.00  0.00    +0.000 C 
ATOM      6  N   UNL     1      -9.337   5.280 133.154  0.00  0.00    +0.000 N 
ATOM      7  C   UNL     1     -10.136   5.946 132.256  0.00  0.00    +0.000 C 
ATOM      8  O   UNL     1     -10.945   6.778 132.666  0.00  0.00    +0.000 OA
ATOM      9  H   UNL     1      -8.574   2.653 131.538  0.00  0.00    +0.000 HD
ATOM     10  H   UNL     1      -9.351   5.691 134.077  0.00  0.00    +0.000 HD
ENDROOT
BRANCH   1  11
ATOM     11  C   UNL     1     -10.748   6.414 129.870  0.00  0.00    +0.000 A 
ATOM     12  C   UNL     1     -12.084   6.136 129.593  0.00  0.00    +0.000 A 
ATOM     13  C   UNL     1     -12.792   6.937 128.692  0.00  0.00    +0.000 A 
ATOM     14  C   UNL     1     -12.204   8.066 128.118  0.00  0.00    +0.000 A 
ATOM     15  C   UNL     1     -10.886   8.379 128.399  0.00  0.00    +0.000 A 
ATOM     16  C   UNL     1     -10.177   7.557 129.259  0.00  0.00    +0.000 A 
ENDBRANCH   1  11
BRANCH   1  18
ATOM     17  C   UNL     1      -7.574   6.834 131.230  0.00  0.00    +0.000 C 
ATOM     18  C   UNL     1      -8.354   5.867 130.353  0.00  0.00    +0.000 C 
ENDBRANCH   1  18
TORSDOF 2
ENDMDL
MODEL 4
REMARK VINA RESULT:      -6.0      8.388      9.874
REMARK  Name = Primidone
REMARK  3 active torsions:
REMARK  status: ('A' for Active; 'I' for Inactive)
REMARK    1  A    between atoms: C_1  and  C_2
REMARK    2  A    between atoms: C_2  and  C_3
REMARK    3  A    between atoms: C_3  and  C_11
REMARK                            x       y       z     vdW  Elec       q    Type
REMARK                         _______ _______ _______ _____ _____    ______ ____
ROOT
ATOM      1  C   UNL     1      -9.744   5.349 130.095  0.00  0.00    +0.000 C 
ATOM      2  C   UNL     1      -8.508   4.682 129.461  0.00  0.00    +0.000 C 
ATOM      3  O   UNL     1      -7.743   5.165 128.623  0.00  0.00    +0.000 OA
ATOM      4  N   UNL     1      -8.137   3.549 130.174  0.00  0.00    +0.000 N 
ATOM      5  C   UNL     1      -9.128   2.557 130.410  0.00  0.00    +0.000 C 
ATOM      6  N   UNL     1     -10.233   3.157 131.069  0.00  0.00    +0.000 N 
ATOM      7  C   UNL     1     -10.767   4.220 130.381  0.00  0.00    +0.000 C 
ATOM      8  O   UNL     1     -11.963   4.216 130.092  0.00  0.00    +0.000 OA
ATOM      9  H   UNL     1      -7.154   3.357 130.309  0.00  0.00    +0.000 HD
ATOM     10  H   UNL     1     -10.936   2.545 131.458  0.00  0.00    +0.000 HD
ENDROOT
BRANCH   1  11
ATOM     11  C   UNL     1     -10.458   6.502 129.389  0.00  0.00    +0.000 A 
ATOM     12  C   UNL     1     -10.282   6.840 128.050  0.00  0.00    +0.000 A 
ATOM     13  C   UNL     1     -10.933   7.958 127.520  0.00  0.00    +0.000 A 
ATOM     14  C   UNL     1     -11.826   8.704 128.294  0.00  0.00    +0.000 A 
ATOM     15  C   UNL     1     -12.039   8.370 129.619  0.00  0.00    +0.000 A 
ATOM     16  C   UNL     1     -11.357   7.288 130.150  0.00  0.00    +0.000 A 
ENDBRANCH   1  11
BRANCH   1  18
ATOM     17  C   UNL     1      -7.893   6.838 131.260  0.00  0.00    +0.000 C 
ATOM     18  C   UNL     1      -9.112   5.945 131.425  0.00  0.00    +0.000 C 
ENDBRANCH   1  18
TORSDOF 2
ENDMDL
MODEL 5
REMARK VINA RESULT:      -6.0      8.877     10.003
REMARK  Name = Primidone
REMARK  3 active torsions:
REMARK  status: ('A' for Active; 'I' for Inactive)
REMARK    1  A    between atoms: C_1  and  C_2
REMARK    2  A    between atoms: C_2  and  C_3
REMARK    3  A    between atoms: C_3  and  C_11
REMARK                            x       y       z     vdW  Elec       q    Type
REMARK                         _______ _______ _______ _____ _____    ______ ____
ROOT
ATOM      1  C   UNL     1      -9.947   5.985 130.879  0.00  0.00    +0.000 C 
ATOM      2  C   UNL     1      -9.264   7.204 130.231  0.00  0.00    +0.000 C 
ATOM      3  O   UNL     1      -8.090   7.561 130.357  0.00  0.00    +0.000 OA
ATOM      4  N   UNL     1     -10.042   7.718 129.201  0.00  0.00    +0.000 N 
ATOM      5  C   UNL     1     -11.396   8.045 129.491  0.00  0.00    +0.000 C 
ATOM      6  N   UNL     1     -12.047   6.896 130.012  0.00  0.00    +0.000 N 
ATOM      7  C   UNL     1     -11.427   6.376 131.123  0.00  0.00    +0.000 C 
ATOM      8  O   UNL     1     -12.069   6.228 132.161  0.00  0.00    +0.000 OA
ATOM      9  H   UNL     1      -9.587   8.047 128.362  0.00  0.00    +0.000 HD
ATOM     10  H   UNL     1     -13.053   6.926 130.098  0.00  0.00    +0.000 HD
ENDROOT
BRANCH   1  11
ATOM     11  C   UNL     1      -9.380   5.358 132.155  0.00  0.00    +0.000 A 
ATOM     12  C   UNL     1      -8.664   6.052 133.126  0.00  0.00    +0.000 A 
ATOM     13  C   UNL     1      -8.130   5.368 134.221  0.00  0.00    +0.000 A 
ATOM     14  C   UNL     1      -8.370   4.004 134.404  0.00  0.00    +0.000 A 
ATOM     15  C   UNL     1      -9.103   3.299 133.467  0.00  0.00    +0.000 A 
ATOM     16  C   UNL     1      -9.592   3.973 132.361  0.00  0.00    +0.000 A 
ENDBRANCH   1  11
BRANCH   1  18
ATOM     17  C   UNL     1      -8.367   4.566 129.301  0.00  0.00    +0.000 C 
ATOM     18  C   UNL     1      -9.787   4.904 129.727  0.00  0.00    +0.000 C 
ENDBRANCH   1  18
TORSDOF 2
ENDMDL
MODEL 6
REMARK VINA RESULT:      -5.9      2.225      4.099
REMARK  Name = Primidone
REMARK  3 active torsions:
REMARK  status: ('A' for Active; 'I' for Inactive)
REMARK    1  A    between atoms: C_1  and  C_2
REMARK    2  A    between atoms: C_2  and  C_3
REMARK    3  A    between atoms: C_3  and  C_11
REMARK                            x       y       z     vdW  Elec       q    Type
REMARK                         _______ _______ _______ _____ _____    ______ ____
ROOT
ATOM      1  C   UNL     1      -8.854   0.484 124.894  0.00  0.00    +0.000 C 
ATOM      2  C   UNL     1      -9.792   1.353 124.034  0.00  0.00    +0.000 C 
ATOM      3  O   UNL     1     -10.873   1.025 123.538  0.00  0.00    +0.000 OA
ATOM      4  N   UNL     1      -9.444   2.695 124.124  0.00  0.00    +0.000 N 
ATOM      5  C   UNL     1      -8.096   3.053 123.846  0.00  0.00    +0.000 C 
ATOM      6  N   UNL     1      -7.237   2.310 124.697  0.00  0.00    +0.000 N 
ATOM      7  C   UNL     1      -7.407   0.951 124.593  0.00  0.00    +0.000 C 
ATOM      8  O   UNL     1      -6.442   0.238 124.323  0.00  0.00    +0.000 OA
ATOM      9  H   UNL     1     -10.178   3.389 124.164  0.00  0.00    +0.000 HD
ATOM     10  H   UNL     1      -6.265   2.585 124.738  0.00  0.00    +0.000 HD
ENDROOT
BRANCH   1  11
ATOM     11  C   UNL     1      -8.913  -1.043 124.814  0.00  0.00    +0.000 A 
ATOM     12  C   UNL     1      -8.891  -1.894 125.915  0.00  0.00    +0.000 A 
ATOM     13  C   UNL     1      -8.879  -3.279 125.727  0.00  0.00    +0.000 A 
ATOM     14  C   UNL     1      -8.970  -3.831 124.448  0.00  0.00    +0.000 A 
ATOM     15  C   UNL     1      -9.022  -3.006 123.339  0.00  0.00    +0.000 A 
ATOM     16  C   UNL     1      -8.988  -1.634 123.529  0.00  0.00    +0.000 A 
ENDBRANCH   1  11
BRANCH   1  18
ATOM     17  C   UNL     1      -8.242   1.059 127.403  0.00  0.00    +0.000 C 
ATOM     18  C   UNL     1      -9.330   0.886 126.355  0.00  0.00    +0.000 C 
ENDBRANCH   1  18
TORSDOF 2
ENDMDL
MODEL 7
REMARK VINA RESULT:      -5.8      2.151      4.756
REMARK  Name = Primidone
REMARK  3 active torsions:
REMARK  status: ('A' for Active; 'I' for Inactive)
REMARK    1  A    between atoms: C_1  and  C_2
REMARK    2  A    between atoms: C_2  and  C_3
REMARK    3  A    between atoms: C_3  and  C_11
REMARK                            x       y       z     vdW  Elec       q    Type
REMARK                         _______ _______ _______ _____ _____    ______ ____
ROOT
ATOM      1  C   UNL     1      -8.044  -1.195 124.644  0.00  0.00    +0.000 C 
ATOM      2  C   UNL     1      -8.985  -2.361 124.282  0.00  0.00    +0.000 C 
ATOM      3  O   UNL     1      -9.654  -2.493 123.254  0.00  0.00    +0.000 OA
ATOM      4  N   UNL     1      -8.769  -3.449 125.119  0.00  0.00    +0.000 N 
ATOM      5  C   UNL     1      -8.823  -3.229 126.522  0.00  0.00    +0.000 C 
ATOM      6  N   UNL     1      -7.896  -2.210 126.866  0.00  0.00    +0.000 N 
ATOM      7  C   UNL     1      -8.100  -1.035 126.184  0.00  0.00    +0.000 C 
ATOM      8  O   UNL     1      -8.262   0.010 126.813  0.00  0.00    +0.000 OA
ATOM      9  H   UNL     1      -8.800  -4.380 124.728  0.00  0.00    +0.000 HD
ATOM     10  H   UNL     1      -7.695  -2.069 127.846  0.00  0.00    +0.000 HD
ENDROOT
BRANCH   1  11
ATOM     11  C   UNL     1      -8.217   0.178 123.992  0.00  0.00    +0.000 A 
ATOM     12  C   UNL     1      -9.418   0.672 123.493  0.00  0.00    +0.000 A 
ATOM     13  C   UNL     1      -9.451   1.915 122.854  0.00  0.00    +0.000 A 
ATOM     14  C   UNL     1      -8.308   2.713 122.775  0.00  0.00    +0.000 A 
ATOM     15  C   UNL     1      -7.108   2.256 123.289  0.00  0.00    +0.000 A 
ATOM     16  C   UNL     1      -7.072   1.005 123.882  0.00  0.00    +0.000 A 
ENDBRANCH   1  11
BRANCH   1  18
ATOM     17  C   UNL     1      -6.486  -1.948 122.642  0.00  0.00    +0.000 C 
ATOM     18  C   UNL     1      -6.651  -1.769 124.143  0.00  0.00    +0.000 C 
ENDBRANCH   1  18
TORSDOF 2
ENDMDL
MODEL 8
REMARK VINA RESULT:      -5.7      8.684      9.998
REMARK  Name = Primidone
REMARK  3 active torsions:
REMARK  status: ('A' for Active; 'I' for Inactive)
REMARK    1  A    between atoms: C_1  and  C_2
REMARK    2  A    between atoms: C_2  and  C_3
REMARK    3  A    between atoms: C_3  and  C_11
REMARK                            x       y       z     vdW  Elec       q    Type
REMARK                         _______ _______ _______ _____ _____    ______ ____
ROOT
ATOM      1  C   UNL     1      -9.622   5.717 130.515  0.00  0.00    +0.000 C 
ATOM      2  C   UNL     1     -10.410   6.523 129.465  0.00  0.00    +0.000 C 
ATOM      3  O   UNL     1      -9.989   6.980 128.400  0.00  0.00    +0.000 OA
ATOM      4  N   UNL     1     -11.778   6.425 129.690  0.00  0.00    +0.000 N 
ATOM      5  C   UNL     1     -12.264   6.752 130.986  0.00  0.00    +0.000 C 
ATOM      6  N   UNL     1     -11.595   5.949 131.946  0.00  0.00    +0.000 N 
ATOM      7  C   UNL     1     -10.227   6.068 131.898  0.00  0.00    +0.000 C 
ATOM      8  O   UNL     1      -9.611   6.389 132.913  0.00  0.00    +0.000 OA
ATOM      9  H   UNL     1     -12.399   6.345 128.897  0.00  0.00    +0.000 HD
ATOM     10  H   UNL     1     -11.959   5.944 132.888  0.00  0.00    +0.000 HD
ENDROOT
BRANCH   1  11
ATOM     11  C   UNL     1      -8.098   5.818 130.595  0.00  0.00    +0.000 A 
ATOM     12  C   UNL     1      -7.404   6.916 131.095  0.00  0.00    +0.000 A 
ATOM     13  C   UNL     1      -6.007   6.934 131.059  0.00  0.00    +0.000 A 
ATOM     14  C   UNL     1      -5.285   5.830 130.600  0.00  0.00    +0.000 A 
ATOM     15  C   UNL     1      -5.952   4.716 130.125  0.00  0.00    +0.000 A 
ATOM     16  C   UNL     1      -7.337   4.721 130.122  0.00  0.00    +0.000 A 
ENDBRANCH   1  11
BRANCH   1  18
ATOM     17  C   UNL     1     -10.029   3.184 131.166  0.00  0.00    +0.000 C 
ATOM     18  C   UNL     1      -9.960   4.231 130.066  0.00  0.00    +0.000 C 
ENDBRANCH   1  18
TORSDOF 2
ENDMDL
MODEL 9
REMARK VINA RESULT:      -5.6      7.176      8.435
REMARK  Name = Primidone
REMARK  3 active torsions:
REMARK  status: ('A' for Active; 'I' for Inactive)
REMARK    1  A    between atoms: C_1  and  C_2
REMARK    2  A    between atoms: C_2  and  C_3
REMARK    3  A    between atoms: C_3  and  C_11
REMARK                            x       y       z     vdW  Elec       q    Type
REMARK                         _______ _______ _______ _____ _____    ______ ____
ROOT
ATOM      1  C   UNL     1      -3.721   3.729 127.451  0.00  0.00    +0.000 C 
ATOM      2  C   UNL     1      -4.921   4.225 126.621  0.00  0.00    +0.000 C 
ATOM      3  O   UNL     1      -5.332   5.383 126.515  0.00  0.00    +0.000 OA
ATOM      4  N   UNL     1      -5.333   3.253 125.718  0.00  0.00    +0.000 N 
ATOM      5  C   UNL     1      -5.624   1.956 126.223  0.00  0.00    +0.000 C 
ATOM      6  N   UNL     1      -4.488   1.466 126.919  0.00  0.00    +0.000 N 
ATOM      7  C   UNL     1      -4.068   2.296 127.930  0.00  0.00    +0.000 C 
ATOM      8  O   UNL     1      -3.965   1.853 129.073  0.00  0.00    +0.000 OA
ATOM      9  H   UNL     1      -5.623   3.537 124.792  0.00  0.00    +0.000 HD
ATOM     10  H   UNL     1      -4.482   0.490 127.180  0.00  0.00    +0.000 HD
ENDROOT
BRANCH   1  11
ATOM     11  C   UNL     1      -3.206   4.541 128.640  0.00  0.00    +0.000 A 
ATOM     12  C   UNL     1      -3.436   4.223 129.976  0.00  0.00    +0.000 A 
ATOM     13  C   UNL     1      -2.976   5.073 130.985  0.00  0.00    +0.000 A 
ATOM     14  C   UNL     1      -2.215   6.204 130.682  0.00  0.00    +0.000 A 
ATOM     15  C   UNL     1      -1.948   6.525 129.363  0.00  0.00    +0.000 A 
ATOM     16  C   UNL     1      -2.444   5.703 128.365  0.00  0.00    +0.000 A 
ENDBRANCH   1  11
BRANCH   1  18
ATOM     17  C   UNL     1      -1.372   2.846 126.615  0.00  0.00    +0.000 C 
ATOM     18  C   UNL     1      -2.573   3.740 126.354  0.00  0.00    +0.000 C 
ENDBRANCH   1  18
TORSDOF 2
ENDMDL
