MODEL 1
REMARK VINA RESULT:      -5.5      0.000      0.000
REMARK  Name = Primaquine
REMARK  9 active torsions:
REMARK  status: ('A' for Active; 'I' for Inactive)
REMARK    1  A    between atoms: C_1  and  O_2
REMARK    2  A    between atoms: O_2  and  C_3
REMARK    3  A    between atoms: C_5  and  N_6
REMARK    4  A    between atoms: N_6  and  C_7
REMARK    5  A    between atoms: C_7  and  C_8
REMARK    6  A    between atoms: C_7  and  C_9
REMARK    7  A    between atoms: C_9  and  C_10
REMARK    8  A    between atoms: C_10  and  C_11
REMARK    9  A    between atoms: C_11  and  N_12
REMARK                            x       y       z     vdW  Elec       q    Type
REMARK                         _______ _______ _______ _____ _____    ______ ____
ROOT
ATOM      1  C   UNL     1      -8.417   2.793 122.571  0.00  0.00    +0.000 A 
ATOM      2  C   UNL     1      -8.942   1.541 122.857  0.00  0.00    +0.000 A 
ATOM      3  C   UNL     1      -8.364   0.687 123.813  0.00  0.00    +0.000 A 
ATOM      4  C   UNL     1      -7.269   1.146 124.571  0.00  0.00    +0.000 A 
ATOM      5  N   UNL     1      -6.733   0.385 125.556  0.00  0.00    +0.000 NA
ATOM      6  C   UNL     1      -5.707   0.890 126.277  0.00  0.00    +0.000 A 
ATOM      7  C   UNL     1      -5.148   2.135 126.059  0.00  0.00    +0.000 A 
ATOM      8  C   UNL     1      -5.671   2.910 125.036  0.00  0.00    +0.000 A 
ATOM      9  C   UNL     1      -6.746   2.436 124.278  0.00  0.00    +0.000 A 
ATOM     10  C   UNL     1      -7.301   3.227 123.262  0.00  0.00    +0.000 A 
ENDROOT
BRANCH   1  12
ATOM     11  C   UNL     1      -7.978   3.858 120.535  0.00  0.00    +0.000 C 
ATOM     12  O   UNL     1      -8.909   3.602 121.585  0.00  0.00    +0.000 OA
ENDBRANCH   1  12
BRANCH   3  13
ATOM     13  N   UNL     1      -8.859  -0.614 124.004  0.00  0.00    +0.000 N 
ATOM     14  H   UNL     1      -9.299  -0.769 124.912  0.00  0.00    +0.000 HD
BRANCH  13  15
ATOM     15  C   UNL     1      -8.712  -1.700 123.041  0.00  0.00    +0.000 C 
ATOM     16  C   UNL     1      -7.235  -1.900 122.657  0.00  0.00    +0.000 C 
BRANCH  15  17
ATOM     17  C   UNL     1      -9.273  -3.016 123.614  0.00  0.00    +0.000 C 
BRANCH  17  18
ATOM     18  C   UNL     1      -8.263  -3.680 124.560  0.00  0.00    +0.000 C 
BRANCH  18  19
ATOM     19  C   UNL     1      -8.638  -3.506 126.022  0.00  0.00    +0.000 C 
BRANCH  19  20
ATOM     20  N   UNL     1      -8.002  -2.297 126.533  0.00  0.00    +0.000 NA
ATOM     21  H   UNL     1      -7.678  -1.721 125.758  0.00  0.00    +0.000 HD
ATOM     22  H   UNL     1      -7.178  -2.549 127.075  0.00  0.00    +0.000 HD
ENDBRANCH  19  20
ENDBRANCH  18  19
ENDBRANCH  17  18
ENDBRANCH  15  17
ENDBRANCH  13  15
ENDBRANCH   3  13
TORSDOF 7
ENDMDL
MODEL 2
REMARK VINA RESULT:      -5.4      1.951      2.605
REMARK  Name = Primaquine
REMARK  9 active torsions:
REMARK  status: ('A' for Active; 'I' for Inactive)
REMARK    1  A    between atoms: C_1  and  O_2
REMARK    2  A    between atoms: O_2  and  C_3
REMARK    3  A    between atoms: C_5  and  N_6
REMARK    4  A    between atoms: N_6  and  C_7
REMARK    5  A    between atoms: C_7  and  C_8
REMARK    6  A    between atoms: C_7  and  C_9
REMARK    7  A    between atoms: C_9  and  C_10
REMARK    8  A    between atoms: C_10  and  C_11
REMARK    9  A    between atoms: C_11  and  N_12
REMARK                            x       y       z     vdW  Elec       q    Type
REMARK                         _______ _______ _______ _____ _____    ______ ____
ROOT
ATOM      1  C   UNL     1      -6.832   3.575 121.673  0.00  0.00    +0.000 A 
ATOM      2  C   UNL     1      -8.051   3.095 122.128  0.00  0.00    +0.000 A 
ATOM      3  C   UNL     1      -8.312   2.888 123.494  0.00  0.00    +0.000 A 
ATOM      4  C   UNL     1      -7.340   3.263 124.443  0.00  0.00    +0.000 A 
ATOM      5  N   UNL     1      -7.583   3.154 125.772  0.00  0.00    +0.000 NA
ATOM      6  C   UNL     1      -6.630   3.562 126.639  0.00  0.00    +0.000 A 
ATOM      7  C   UNL     1      -5.402   4.067 126.255  0.00  0.00    +0.000 A 
ATOM      8  C   UNL     1      -5.133   4.157 124.898  0.00  0.00    +0.000 A 
ATOM      9  C   UNL     1      -6.099   3.766 123.966  0.00  0.00    +0.000 A 
ATOM     10  C   UNL     1      -5.845   3.883 122.592  0.00  0.00    +0.000 A 
ENDROOT
BRANCH   1  12
ATOM     11  C   UNL     1      -5.656   4.795 120.059  0.00  0.00    +0.000 C 
ATOM     12  O   UNL     1      -6.525   3.700 120.347  0.00  0.00    +0.000 OA
ENDBRANCH   1  12
BRANCH   3  13
ATOM     13  N   UNL     1      -9.518   2.303 123.912  0.00  0.00    +0.000 N 
ATOM     14  H   UNL     1     -10.176   2.954 124.344  0.00  0.00    +0.000 HD
BRANCH  13  15
ATOM     15  C   UNL     1      -9.818   0.878 123.823  0.00  0.00    +0.000 C 
ATOM     16  C   UNL     1     -10.328   0.510 122.419  0.00  0.00    +0.000 C 
BRANCH  15  17
ATOM     17  C   UNL     1      -8.568   0.037 124.149  0.00  0.00    +0.000 C 
BRANCH  17  18
ATOM     18  C   UNL     1      -8.406  -1.117 123.150  0.00  0.00    +0.000 C 
BRANCH  18  19
ATOM     19  C   UNL     1      -8.549  -2.479 123.810  0.00  0.00    +0.000 C 
BRANCH  19  20
ATOM     20  N   UNL     1      -9.879  -3.006 123.524  0.00  0.00    +0.000 NA
ATOM     21  H   UNL     1     -10.571  -2.536 124.106  0.00  0.00    +0.000 HD
ATOM     22  H   UNL     1      -9.913  -3.993 123.769  0.00  0.00    +0.000 HD
ENDBRANCH  19  20
ENDBRANCH  18  19
ENDBRANCH  17  18
ENDBRANCH  15  17
ENDBRANCH  13  15
ENDBRANCH   3  13
TORSDOF 7
ENDMDL
MODEL 3
REMARK VINA RESULT:      -5.4      2.448      4.166
REMARK  Name = Primaquine
REMARK  9 active torsions:
REMARK  status: ('A' for Active; 'I' for Inactive)
REMARK    1  A    between atoms: C_1  and  O_2
REMARK    2  A    between atoms: O_2  and  C_3
REMARK    3  A    between atoms: C_5  and  N_6
REMARK    4  A    between atoms: N_6  and  C_7
REMARK    5  A    between atoms: C_7  and  C_8
REMARK    6  A    between atoms: C_7  and  C_9
REMARK    7  A    between atoms: C_9  and  C_10
REMARK    8  A    between atoms: C_10  and  C_11
REMARK    9  A    between atoms: C_11  and  N_12
REMARK                            x       y       z     vdW  Elec       q    Type
REMARK                         _______ _______ _______ _____ _____    ______ ____
ROOT
ATOM      1  C   UNL     1      -5.944   3.486 125.291  0.00  0.00    +0.000 A 
ATOM      2  C   UNL     1      -7.164   2.888 125.011  0.00  0.00    +0.000 A 
ATOM      3  C   UNL     1      -7.720   2.886 123.720  0.00  0.00    +0.000 A 
ATOM      4  C   UNL     1      -6.978   3.432 122.653  0.00  0.00    +0.000 A 
ATOM      5  N   UNL     1      -7.443   3.380 121.381  0.00  0.00    +0.000 NA
ATOM      6  C   UNL     1      -6.674   3.885 120.391  0.00  0.00    +0.000 A 
ATOM      7  C   UNL     1      -5.442   4.478 120.595  0.00  0.00    +0.000 A 
ATOM      8  C   UNL     1      -4.970   4.560 121.896  0.00  0.00    +0.000 A 
ATOM      9  C   UNL     1      -5.723   4.031 122.949  0.00  0.00    +0.000 A 
ATOM     10  C   UNL     1      -5.238   4.084 124.263  0.00  0.00    +0.000 A 
ENDROOT
BRANCH   1  12
ATOM     11  C   UNL     1      -4.009   3.735 126.582  0.00  0.00    +0.000 C 
ATOM     12  O   UNL     1      -5.427   3.576 126.553  0.00  0.00    +0.000 OA
ENDBRANCH   1  12
BRANCH   3  13
ATOM     13  N   UNL     1      -9.003   2.364 123.493  0.00  0.00    +0.000 N 
ATOM     14  H   UNL     1      -9.721   3.068 123.317  0.00  0.00    +0.000 HD
BRANCH  13  15
ATOM     15  C   UNL     1      -9.340   0.945 123.563  0.00  0.00    +0.000 C 
ATOM     16  C   UNL     1     -10.338   0.561 122.458  0.00  0.00    +0.000 C 
BRANCH  15  17
ATOM     17  C   UNL     1      -8.073   0.077 123.433  0.00  0.00    +0.000 C 
BRANCH  17  18
ATOM     18  C   UNL     1      -8.236  -1.250 124.188  0.00  0.00    +0.000 C 
BRANCH  18  19
ATOM     19  C   UNL     1      -8.506  -2.418 123.253  0.00  0.00    +0.000 C 
BRANCH  19  20
ATOM     20  N   UNL     1      -9.854  -2.917 123.496  0.00  0.00    +0.000 NA
ATOM     21  H   UNL     1     -10.064  -2.881 124.492  0.00  0.00    +0.000 HD
ATOM     22  H   UNL     1      -9.910  -3.896 123.221  0.00  0.00    +0.000 HD
ENDBRANCH  19  20
ENDBRANCH  18  19
ENDBRANCH  17  18
ENDBRANCH  15  17
ENDBRANCH  13  15
ENDBRANCH   3  13
TORSDOF 7
ENDMDL
MODEL 4
REMARK VINA RESULT:      -5.4      3.766      6.608
REMARK  Name = Primaquine
REMARK  9 active torsions:
REMARK  status: ('A' for Active; 'I' for Inactive)
REMARK    1  A    between atoms: C_1  and  O_2
REMARK    2  A    between atoms: O_2  and  C_3
REMARK    3  A    between atoms: C_5  and  N_6
REMARK    4  A    between atoms: N_6  and  C_7
REMARK    5  A    between atoms: C_7  and  C_8
REMARK    6  A    between atoms: C_7  and  C_9
REMARK    7  A    between atoms: C_9  and  C_10
REMARK    8  A    between atoms: C_10  and  C_11
REMARK    9  A    between atoms: C_11  and  N_12
REMARK                            x       y       z     vdW  Elec       q    Type
REMARK                         _______ _______ _______ _____ _____    ______ ____
ROOT
ATOM      1  C   UNL     1      -8.296   2.903 124.263  0.00  0.00    +0.000 A 
ATOM      2  C   UNL     1      -7.209   3.362 124.992  0.00  0.00    +0.000 A 
ATOM      3  C   UNL     1      -6.054   3.873 124.375  0.00  0.00    +0.000 A 
ATOM      4  C   UNL     1      -6.028   4.009 122.972  0.00  0.00    +0.000 A 
ATOM      5  N   UNL     1      -4.966   4.570 122.343  0.00  0.00    +0.000 NA
ATOM      6  C   UNL     1      -5.011   4.709 121.000  0.00  0.00    +0.000 A 
ATOM      7  C   UNL     1      -6.069   4.292 120.214  0.00  0.00    +0.000 A 
ATOM      8  C   UNL     1      -7.147   3.693 120.844  0.00  0.00    +0.000 A 
ATOM      9  C   UNL     1      -7.153   3.547 122.235  0.00  0.00    +0.000 A 
ATOM     10  C   UNL     1      -8.255   2.970 122.882  0.00  0.00    +0.000 A 
ENDROOT
BRANCH   1  12
ATOM     11  C   UNL     1     -10.130   1.484 123.950  0.00  0.00    +0.000 C 
ATOM     12  O   UNL     1      -9.391   2.322 124.838  0.00  0.00    +0.000 OA
ENDBRANCH   1  12
BRANCH   3  13
ATOM     13  N   UNL     1      -4.932   4.232 125.138  0.00  0.00    +0.000 N 
ATOM     14  H   UNL     1      -4.341   4.947 124.712  0.00  0.00    +0.000 HD
BRANCH  13  15
ATOM     15  C   UNL     1      -4.564   3.609 126.406  0.00  0.00    +0.000 C 
ATOM     16  C   UNL     1      -3.088   3.177 126.399  0.00  0.00    +0.000 C 
BRANCH  15  17
ATOM     17  C   UNL     1      -4.809   4.576 127.580  0.00  0.00    +0.000 C 
BRANCH  17  18
ATOM     18  C   UNL     1      -3.491   4.930 128.285  0.00  0.00    +0.000 C 
BRANCH  18  19
ATOM     19  C   UNL     1      -3.262   6.431 128.362  0.00  0.00    +0.000 C 
BRANCH  19  20
ATOM     20  N   UNL     1      -1.840   6.702 128.182  0.00  0.00    +0.000 NA
ATOM     21  H   UNL     1      -1.448   6.060 127.495  0.00  0.00    +0.000 HD
ATOM     22  H   UNL     1      -1.348   6.530 129.057  0.00  0.00    +0.000 HD
ENDBRANCH  19  20
ENDBRANCH  18  19
ENDBRANCH  17  18
ENDBRANCH  15  17
ENDBRANCH  13  15
ENDBRANCH   3  13
TORSDOF 7
ENDMDL
MODEL 5
REMARK VINA RESULT:      -5.4      3.086      4.761
REMARK  Name = Primaquine
REMARK  9 active torsions:
REMARK  status: ('A' for Active; 'I' for Inactive)
REMARK    1  A    between atoms: C_1  and  O_2
REMARK    2  A    between atoms: O_2  and  C_3
REMARK    3  A    between atoms: C_5  and  N_6
REMARK    4  A    between atoms: N_6  and  C_7
REMARK    5  A    between atoms: C_7  and  C_8
REMARK    6  A    between atoms: C_7  and  C_9
REMARK    7  A    between atoms: C_9  and  C_10
REMARK    8  A    between atoms: C_10  and  C_11
REMARK    9  A    between atoms: C_11  and  N_12
REMARK                            x       y       z     vdW  Elec       q    Type
REMARK                         _______ _______ _______ _____ _____    ______ ____
ROOT
ATOM      1  C   UNL     1      -9.022  -0.309 124.922  0.00  0.00    +0.000 A 
ATOM      2  C   UNL     1      -8.614  -0.887 126.116  0.00  0.00    +0.000 A 
ATOM      3  C   UNL     1      -7.556  -1.811 126.179  0.00  0.00    +0.000 A 
ATOM      4  C   UNL     1      -6.825  -2.098 125.008  0.00  0.00    +0.000 A 
ATOM      5  N   UNL     1      -5.749  -2.922 125.041  0.00  0.00    +0.000 NA
ATOM      6  C   UNL     1      -5.061  -3.132 123.897  0.00  0.00    +0.000 A 
ATOM      7  C   UNL     1      -5.400  -2.575 122.678  0.00  0.00    +0.000 A 
ATOM      8  C   UNL     1      -6.515  -1.753 122.629  0.00  0.00    +0.000 A 
ATOM      9  C   UNL     1      -7.243  -1.490 123.793  0.00  0.00    +0.000 A 
ATOM     10  C   UNL     1      -8.353  -0.635 123.756  0.00  0.00    +0.000 A 
ENDROOT
BRANCH   1  12
ATOM     11  C   UNL     1     -10.106   1.321 123.642  0.00  0.00    +0.000 C 
ATOM     12  O   UNL     1     -10.102   0.522 124.825  0.00  0.00    +0.000 OA
ENDBRANCH   1  12
BRANCH   3  13
ATOM     13  N   UNL     1      -7.237  -2.454 127.385  0.00  0.00    +0.000 N 
ATOM     14  H   UNL     1      -6.253  -2.709 127.482  0.00  0.00    +0.000 HD
BRANCH  13  15
ATOM     15  C   UNL     1      -8.212  -2.814 128.410  0.00  0.00    +0.000 C 
ATOM     16  C   UNL     1      -8.945  -4.115 128.040  0.00  0.00    +0.000 C 
BRANCH  15  17
ATOM     17  C   UNL     1      -7.526  -2.985 129.779  0.00  0.00    +0.000 C 
BRANCH  17  18
ATOM     18  C   UNL     1      -6.047  -3.359 129.611  0.00  0.00    +0.000 C 
BRANCH  18  19
ATOM     19  C   UNL     1      -5.114  -2.235 130.031  0.00  0.00    +0.000 C 
BRANCH  19  20
ATOM     20  N   UNL     1      -4.449  -1.705 128.846  0.00  0.00    +0.000 NA
ATOM     21  H   UNL     1      -4.729  -0.738 128.694  0.00  0.00    +0.000 HD
ATOM     22  H   UNL     1      -4.747  -2.228 128.025  0.00  0.00    +0.000 HD
ENDBRANCH  19  20
ENDBRANCH  18  19
ENDBRANCH  17  18
ENDBRANCH  15  17
ENDBRANCH  13  15
ENDBRANCH   3  13
TORSDOF 7
ENDMDL
MODEL 6
REMARK VINA RESULT:      -5.3      2.975      6.471
REMARK  Name = Primaquine
REMARK  9 active torsions:
REMARK  status: ('A' for Active; 'I' for Inactive)
REMARK    1  A    between atoms: C_1  and  O_2
REMARK    2  A    between atoms: O_2  and  C_3
REMARK    3  A    between atoms: C_5  and  N_6
REMARK    4  A    between atoms: N_6  and  C_7
REMARK    5  A    between atoms: C_7  and  C_8
REMARK    6  A    between atoms: C_7  and  C_9
REMARK    7  A    between atoms: C_9  and  C_10
REMARK    8  A    between atoms: C_10  and  C_11
REMARK    9  A    between atoms: C_11  and  N_12
REMARK                            x       y       z     vdW  Elec       q    Type
REMARK                         _______ _______ _______ _____ _____    ______ ____
ROOT
ATOM      1  C   UNL     1      -8.189  -2.826 127.736  0.00  0.00    +0.000 A 
ATOM      2  C   UNL     1      -8.024  -1.450 127.669  0.00  0.00    +0.000 A 
ATOM      3  C   UNL     1      -8.145  -0.738 126.463  0.00  0.00    +0.000 A 
ATOM      4  C   UNL     1      -8.533  -1.427 125.296  0.00  0.00    +0.000 A 
ATOM      5  N   UNL     1      -8.738  -0.766 124.130  0.00  0.00    +0.000 NA
ATOM      6  C   UNL     1      -9.146  -1.470 123.051  0.00  0.00    +0.000 A 
ATOM      7  C   UNL     1      -9.348  -2.837 123.052  0.00  0.00    +0.000 A 
ATOM      8  C   UNL     1      -9.114  -3.526 124.232  0.00  0.00    +0.000 A 
ATOM      9  C   UNL     1      -8.712  -2.835 125.378  0.00  0.00    +0.000 A 
ATOM     10  C   UNL     1      -8.504  -3.521 126.583  0.00  0.00    +0.000 A 
ENDROOT
BRANCH   1  12
ATOM     11  C   UNL     1      -7.722  -2.743 130.027  0.00  0.00    +0.000 C 
ATOM     12  O   UNL     1      -7.990  -3.548 128.879  0.00  0.00    +0.000 OA
ENDBRANCH   1  12
BRANCH   3  13
ATOM     13  N   UNL     1      -7.870   0.638 126.411  0.00  0.00    +0.000 N 
ATOM     14  H   UNL     1      -8.692   1.229 126.287  0.00  0.00    +0.000 HD
BRANCH  13  15
ATOM     15  C   UNL     1      -6.528   1.212 126.455  0.00  0.00    +0.000 C 
ATOM     16  C   UNL     1      -5.490   0.228 125.889  0.00  0.00    +0.000 C 
BRANCH  15  17
ATOM     17  C   UNL     1      -6.473   2.529 125.657  0.00  0.00    +0.000 C 
BRANCH  17  18
ATOM     18  C   UNL     1      -6.882   2.304 124.194  0.00  0.00    +0.000 C 
BRANCH  18  19
ATOM     19  C   UNL     1      -8.051   3.183 123.779  0.00  0.00    +0.000 C 
BRANCH  19  20
ATOM     20  N   UNL     1      -9.021   3.225 124.867  0.00  0.00    +0.000 NA
ATOM     21  H   UNL     1      -9.965   3.142 124.494  0.00  0.00    +0.000 HD
ATOM     22  H   UNL     1      -8.971   4.129 125.333  0.00  0.00    +0.000 HD
ENDBRANCH  19  20
ENDBRANCH  18  19
ENDBRANCH  17  18
ENDBRANCH  15  17
ENDBRANCH  13  15
ENDBRANCH   3  13
TORSDOF 7
ENDMDL
MODEL 7
REMARK VINA RESULT:      -5.2      3.320      6.407
REMARK  Name = Primaquine
REMARK  9 active torsions:
REMARK  status: ('A' for Active; 'I' for Inactive)
REMARK    1  A    between atoms: C_1  and  O_2
REMARK    2  A    between atoms: O_2  and  C_3
REMARK    3  A    between atoms: C_5  and  N_6
REMARK    4  A    between atoms: N_6  and  C_7
REMARK    5  A    between atoms: C_7  and  C_8
REMARK    6  A    between atoms: C_7  and  C_9
REMARK    7  A    between atoms: C_9  and  C_10
REMARK    8  A    between atoms: C_10  and  C_11
REMARK    9  A    between atoms: C_11  and  N_12
REMARK                            x       y       z     vdW  Elec       q    Type
REMARK                         _______ _______ _______ _____ _____    ______ ____
ROOT
ATOM      1  C   UNL     1      -6.881  -1.877 124.393  0.00  0.00    +0.000 A 
ATOM      2  C   UNL     1      -5.940  -1.149 125.107  0.00  0.00    +0.000 A 
ATOM      3  C   UNL     1      -5.921  -1.122 126.512  0.00  0.00    +0.000 A 
ATOM      4  C   UNL     1      -6.830  -1.929 127.226  0.00  0.00    +0.000 A 
ATOM      5  N   UNL     1      -6.793  -1.993 128.579  0.00  0.00    +0.000 NA
ATOM      6  C   UNL     1      -7.663  -2.813 129.211  0.00  0.00    +0.000 A 
ATOM      7  C   UNL     1      -8.613  -3.579 128.563  0.00  0.00    +0.000 A 
ATOM      8  C   UNL     1      -8.676  -3.500 127.180  0.00  0.00    +0.000 A 
ATOM      9  C   UNL     1      -7.781  -2.682 126.484  0.00  0.00    +0.000 A 
ATOM     10  C   UNL     1      -7.820  -2.620 125.084  0.00  0.00    +0.000 A 
ENDROOT
BRANCH   1  12
ATOM     11  C   UNL     1      -8.302  -2.013 122.540  0.00  0.00    +0.000 C 
ATOM     12  O   UNL     1      -6.972  -1.847 123.030  0.00  0.00    +0.000 OA
ENDBRANCH   1  12
BRANCH   3  13
ATOM     13  N   UNL     1      -5.022  -0.293 127.201  0.00  0.00    +0.000 N 
ATOM     14  H   UNL     1      -4.221  -0.781 127.605  0.00  0.00    +0.000 HD
BRANCH  13  15
ATOM     15  C   UNL     1      -5.214   1.138 127.410  0.00  0.00    +0.000 C 
ATOM     16  C   UNL     1      -4.875   1.534 128.857  0.00  0.00    +0.000 C 
BRANCH  15  17
ATOM     17  C   UNL     1      -4.339   1.954 126.438  0.00  0.00    +0.000 C 
BRANCH  17  18
ATOM     18  C   UNL     1      -3.728   3.175 127.140  0.00  0.00    +0.000 C 
BRANCH  18  19
ATOM     19  C   UNL     1      -2.396   3.584 126.535  0.00  0.00    +0.000 C 
BRANCH  19  20
ATOM     20  N   UNL     1      -1.429   2.513 126.751  0.00  0.00    +0.000 NA
ATOM     21  H   UNL     1      -0.730   2.808 127.430  0.00  0.00    +0.000 HD
ATOM     22  H   UNL     1      -0.931   2.324 125.883  0.00  0.00    +0.000 HD
ENDBRANCH  19  20
ENDBRANCH  18  19
ENDBRANCH  17  18
ENDBRANCH  15  17
ENDBRANCH  13  15
ENDBRANCH   3  13
TORSDOF 7
ENDMDL
MODEL 8
REMARK VINA RESULT:      -5.1      2.968      5.916
REMARK  Name = Primaquine
REMARK  9 active torsions:
REMARK  status: ('A' for Active; 'I' for Inactive)
REMARK    1  A    between atoms: C_1  and  O_2
REMARK    2  A    between atoms: O_2  and  C_3
REMARK    3  A    between atoms: C_5  and  N_6
REMARK    4  A    between atoms: N_6  and  C_7
REMARK    5  A    between atoms: C_7  and  C_8
REMARK    6  A    between atoms: C_7  and  C_9
REMARK    7  A    between atoms: C_9  and  C_10
REMARK    8  A    between atoms: C_10  and  C_11
REMARK    9  A    between atoms: C_11  and  N_12
REMARK                            x       y       z     vdW  Elec       q    Type
REMARK                         _______ _______ _______ _____ _____    ______ ____
ROOT
ATOM      1  C   UNL     1      -9.115  -2.566 125.542  0.00  0.00    +0.000 A 
ATOM      2  C   UNL     1      -8.634  -1.265 125.549  0.00  0.00    +0.000 A 
ATOM      3  C   UNL     1      -8.033  -0.694 126.684  0.00  0.00    +0.000 A 
ATOM      4  C   UNL     1      -7.829  -1.492 127.828  0.00  0.00    +0.000 A 
ATOM      5  N   UNL     1      -7.182  -1.004 128.914  0.00  0.00    +0.000 NA
ATOM      6  C   UNL     1      -6.981  -1.825 129.969  0.00  0.00    +0.000 A 
ATOM      7  C   UNL     1      -7.416  -3.136 130.022  0.00  0.00    +0.000 A 
ATOM      8  C   UNL     1      -8.102  -3.636 128.927  0.00  0.00    +0.000 A 
ATOM      9  C   UNL     1      -8.314  -2.828 127.805  0.00  0.00    +0.000 A 
ATOM     10  C   UNL     1      -8.980  -3.338 126.682  0.00  0.00    +0.000 A 
ENDROOT
BRANCH   1  12
ATOM     11  C   UNL     1      -9.113  -2.936 123.232  0.00  0.00    +0.000 C 
ATOM     12  O   UNL     1      -9.781  -3.112 124.481  0.00  0.00    +0.000 OA
ENDBRANCH   1  12
BRANCH   3  13
ATOM     13  N   UNL     1      -7.651   0.658 126.690  0.00  0.00    +0.000 N 
ATOM     14  H   UNL     1      -8.280   1.272 127.210  0.00  0.00    +0.000 HD
BRANCH  13  15
ATOM     15  C   UNL     1      -6.502   1.193 125.967  0.00  0.00    +0.000 C 
ATOM     16  C   UNL     1      -5.320   0.209 126.007  0.00  0.00    +0.000 C 
BRANCH  15  17
ATOM     17  C   UNL     1      -6.870   1.490 124.501  0.00  0.00    +0.000 C 
BRANCH  17  18
ATOM     18  C   UNL     1      -7.977   2.551 124.416  0.00  0.00    +0.000 C 
BRANCH  18  19
ATOM     19  C   UNL     1      -7.485   3.933 124.812  0.00  0.00    +0.000 C 
BRANCH  19  20
ATOM     20  N   UNL     1      -8.596   4.685 125.383  0.00  0.00    +0.000 NA
ATOM     21  H   UNL     1      -9.429   4.101 125.419  0.00  0.00    +0.000 HD
ATOM     22  H   UNL     1      -8.819   5.475 124.780  0.00  0.00    +0.000 HD
ENDBRANCH  19  20
ENDBRANCH  18  19
ENDBRANCH  17  18
ENDBRANCH  15  17
ENDBRANCH  13  15
ENDBRANCH   3  13
TORSDOF 7
ENDMDL
MODEL 9
REMARK VINA RESULT:      -4.9      2.816      4.857
REMARK  Name = Primaquine
REMARK  9 active torsions:
REMARK  status: ('A' for Active; 'I' for Inactive)
REMARK    1  A    between atoms: C_1  and  O_2
REMARK    2  A    between atoms: O_2  and  C_3
REMARK    3  A    between atoms: C_5  and  N_6
REMARK    4  A    between atoms: N_6  and  C_7
REMARK    5  A    between atoms: C_7  and  C_8
REMARK    6  A    between atoms: C_7  and  C_9
REMARK    7  A    between atoms: C_9  and  C_10
REMARK    8  A    between atoms: C_10  and  C_11
REMARK    9  A    between atoms: C_11  and  N_12
REMARK                            x       y       z     vdW  Elec       q    Type
REMARK                         _______ _______ _______ _____ _____    ______ ____
ROOT
ATOM      1  C   UNL     1      -6.300  -2.271 123.484  0.00  0.00    +0.000 A 
ATOM      2  C   UNL     1      -7.047  -2.902 124.468  0.00  0.00    +0.000 A 
ATOM      3  C   UNL     1      -8.084  -2.249 125.157  0.00  0.00    +0.000 A 
ATOM      4  C   UNL     1      -8.441  -0.939 124.779  0.00  0.00    +0.000 A 
ATOM      5  N   UNL     1      -9.486  -0.304 125.363  0.00  0.00    +0.000 NA
ATOM      6  C   UNL     1      -9.808   0.937 124.936  0.00  0.00    +0.000 A 
ATOM      7  C   UNL     1      -9.121   1.617 123.948  0.00  0.00    +0.000 A 
ATOM      8  C   UNL     1      -8.034   0.987 123.363  0.00  0.00    +0.000 A 
ATOM      9  C   UNL     1      -7.678  -0.306 123.760  0.00  0.00    +0.000 A 
ATOM     10  C   UNL     1      -6.599  -0.962 123.150  0.00  0.00    +0.000 A 
ENDROOT
BRANCH   1  12
ATOM     11  C   UNL     1      -4.625  -3.898 123.628  0.00  0.00    +0.000 C 
ATOM     12  O   UNL     1      -5.232  -2.856 122.864  0.00  0.00    +0.000 OA
ENDBRANCH   1  12
BRANCH   3  13
ATOM     13  N   UNL     1      -8.749  -2.883 126.219  0.00  0.00    +0.000 N 
ATOM     14  H   UNL     1      -9.540  -3.463 125.936  0.00  0.00    +0.000 HD
BRANCH  13  15
ATOM     15  C   UNL     1      -8.417  -2.698 127.627  0.00  0.00    +0.000 C 
ATOM     16  C   UNL     1      -8.827  -3.927 128.456  0.00  0.00    +0.000 C 
BRANCH  15  17
ATOM     17  C   UNL     1      -6.907  -2.444 127.803  0.00  0.00    +0.000 C 
BRANCH  17  18
ATOM     18  C   UNL     1      -6.654  -1.216 128.688  0.00  0.00    +0.000 C 
BRANCH  18  19
ATOM     19  C   UNL     1      -7.667  -0.109 128.445  0.00  0.00    +0.000 C 
BRANCH  19  20
ATOM     20  N   UNL     1      -7.133   0.812 127.449  0.00  0.00    +0.000 NA
ATOM     21  H   UNL     1      -6.358   1.341 127.845  0.00  0.00    +0.000 HD
ATOM     22  H   UNL     1      -7.849   1.489 127.193  0.00  0.00    +0.000 HD
ENDBRANCH  19  20
ENDBRANCH  18  19
ENDBRANCH  17  18
ENDBRANCH  15  17
ENDBRANCH  13  15
ENDBRANCH   3  13
TORSDOF 7
ENDMDL
