MODEL 1
REMARK VINA RESULT:      -7.6      0.000      0.000
REMARK  Name = Probucol
REMARK  24 active torsions:
REMARK  status: ('A' for Active; 'I' for Inactive)
REMARK    1  A    between atoms: C_1  and  C_2
REMARK    2  A    between atoms: C_2  and  C_3
REMARK    3  A    between atoms: C_2  and  S_4
REMARK    4  A    between atoms: C_2  and  S_20
REMARK    5  A    between atoms: S_4  and  C_5
REMARK    6  A    between atoms: C_7  and  C_16
REMARK    7  A    between atoms: C_8  and  O_9
REMARK    8  A    between atoms: C_10  and  C_12
REMARK    9  A    between atoms: C_12  and  C_13
REMARK   10  A    between atoms: C_12  and  C_14
REMARK   11  A    between atoms: C_12  and  C_15
REMARK   12  A    between atoms: C_16  and  C_17
REMARK   13  A    between atoms: C_16  and  C_18
REMARK   14  A    between atoms: C_16  and  C_19
REMARK   15  A    between atoms: S_20  and  C_21
REMARK   16  A    between atoms: C_23  and  C_32
REMARK   17  A    between atoms: C_24  and  O_25
REMARK   18  A    between atoms: C_26  and  C_28
REMARK   19  A    between atoms: C_28  and  C_29
REMARK   20  A    between atoms: C_28  and  C_30
REMARK   21  A    between atoms: C_28  and  C_31
REMARK   22  A    between atoms: C_32  and  C_33
REMARK   23  A    between atoms: C_32  and  C_34
REMARK   24  A    between atoms: C_32  and  C_35
REMARK                            x       y       z     vdW  Elec       q    Type
REMARK                         _______ _______ _______ _____ _____    ______ ____
ROOT
ATOM      1  C   UNL     1      -8.740  -1.225 125.863  0.00  0.00    +0.000 C 
ATOM      2  C   UNL     1      -7.904  -2.515 125.921  0.00  0.00    +0.000 C 
ATOM      3  C   UNL     1      -8.026  -3.373 124.656  0.00  0.00    +0.000 C 
ENDROOT
BRANCH   2   4
ATOM      4  S   UNL     1      -6.179  -2.035 126.388  0.00  0.00    +0.000 S 
BRANCH   4   5
ATOM      5  C   UNL     1      -6.047  -0.263 126.327  0.00  0.00    +0.000 A 
ATOM      6  C   UNL     1      -6.522   0.577 125.320  0.00  0.00    +0.000 A 
ATOM      7  C   UNL     1      -6.312   1.970 125.285  0.00  0.00    +0.000 A 
ATOM      8  C   UNL     1      -5.661   2.513 126.394  0.00  0.00    +0.000 A 
ATOM      9  C   UNL     1      -5.167   1.722 127.453  0.00  0.00    +0.000 A 
ATOM     10  C   UNL     1      -5.370   0.330 127.391  0.00  0.00    +0.000 A 
BRANCH   9  11
ATOM     11  C   UNL     1      -4.415   2.337 128.656  0.00  0.00    +0.000 C 
ATOM     12  C   UNL     1      -4.114   1.223 129.672  0.00  0.00    +0.000 C 
ATOM     13  C   UNL     1      -3.119   2.986 128.142  0.00  0.00    +0.000 C 
ATOM     14  C   UNL     1      -5.155   3.451 129.447  0.00  0.00    +0.000 C 
ENDBRANCH   9  11
BRANCH   7  15
ATOM     15  C   UNL     1      -6.818   2.744 124.052  0.00  0.00    +0.000 C 
ATOM     16  C   UNL     1      -7.046   1.758 122.884  0.00  0.00    +0.000 C 
ATOM     17  C   UNL     1      -8.129   3.475 124.399  0.00  0.00    +0.000 C 
ATOM     18  C   UNL     1      -5.870   3.818 123.500  0.00  0.00    +0.000 C 
ENDBRANCH   7  15
BRANCH   8  19
ATOM     19  O   UNL     1      -5.513   3.834 126.606  0.00  0.00    +0.000 OA
ATOM     20  H   UNL     1      -5.886   4.466 125.991  0.00  0.00    +0.000 HD
ENDBRANCH   8  19
ENDBRANCH   4   5
ENDBRANCH   2   4
BRANCH   2  21
ATOM     21  S   UNL     1      -8.652  -3.515 127.337  0.00  0.00    +0.000 S 
BRANCH  21  22
ATOM     22  C   UNL     1      -7.878  -2.848 128.812  0.00  0.00    +0.000 A 
ATOM     23  C   UNL     1      -8.177  -1.563 129.283  0.00  0.00    +0.000 A 
ATOM     24  C   UNL     1      -7.639  -1.032 130.480  0.00  0.00    +0.000 A 
ATOM     25  C   UNL     1      -6.828  -1.896 131.225  0.00  0.00    +0.000 A 
ATOM     26  C   UNL     1      -6.486  -3.197 130.796  0.00  0.00    +0.000 A 
ATOM     27  C   UNL     1      -7.033  -3.656 129.577  0.00  0.00    +0.000 A 
BRANCH  26  28
ATOM     28  C   UNL     1      -5.547  -4.107 131.633  0.00  0.00    +0.000 C 
ATOM     29  C   UNL     1      -5.489  -5.498 130.981  0.00  0.00    +0.000 C 
ATOM     30  C   UNL     1      -4.153  -3.457 131.676  0.00  0.00    +0.000 C 
ATOM     31  C   UNL     1      -5.928  -4.358 133.123  0.00  0.00    +0.000 C 
ENDBRANCH  26  28
BRANCH  24  32
ATOM     32  C   UNL     1      -7.998   0.417 130.870  0.00  0.00    +0.000 C 
ATOM     33  C   UNL     1      -8.249   1.237 129.588  0.00  0.00    +0.000 C 
ATOM     34  C   UNL     1      -9.248   0.415 131.770  0.00  0.00    +0.000 C 
ATOM     35  C   UNL     1      -6.929   1.204 131.652  0.00  0.00    +0.000 C 
ENDBRANCH  24  32
BRANCH  25  36
ATOM     36  O   UNL     1      -6.362  -1.616 132.460  0.00  0.00    +0.000 OA
ATOM     37  H   UNL     1      -5.850  -0.829 132.623  0.00  0.00    +0.000 HD
ENDBRANCH  25  36
ENDBRANCH  21  22
ENDBRANCH   2  21
TORSDOF 10
ENDMDL
MODEL 2
REMARK VINA RESULT:      -7.5      3.064      6.067
REMARK  Name = Probucol
REMARK  24 active torsions:
REMARK  status: ('A' for Active; 'I' for Inactive)
REMARK    1  A    between atoms: C_1  and  C_2
REMARK    2  A    between atoms: C_2  and  C_3
REMARK    3  A    between atoms: C_2  and  S_4
REMARK    4  A    between atoms: C_2  and  S_20
REMARK    5  A    between atoms: S_4  and  C_5
REMARK    6  A    between atoms: C_7  and  C_16
REMARK    7  A    between atoms: C_8  and  O_9
REMARK    8  A    between atoms: C_10  and  C_12
REMARK    9  A    between atoms: C_12  and  C_13
REMARK   10  A    between atoms: C_12  and  C_14
REMARK   11  A    between atoms: C_12  and  C_15
REMARK   12  A    between atoms: C_16  and  C_17
REMARK   13  A    between atoms: C_16  and  C_18
REMARK   14  A    between atoms: C_16  and  C_19
REMARK   15  A    between atoms: S_20  and  C_21
REMARK   16  A    between atoms: C_23  and  C_32
REMARK   17  A    between atoms: C_24  and  O_25
REMARK   18  A    between atoms: C_26  and  C_28
REMARK   19  A    between atoms: C_28  and  C_29
REMARK   20  A    between atoms: C_28  and  C_30
REMARK   21  A    between atoms: C_28  and  C_31
REMARK   22  A    between atoms: C_32  and  C_33
REMARK   23  A    between atoms: C_32  and  C_34
REMARK   24  A    between atoms: C_32  and  C_35
REMARK                            x       y       z     vdW  Elec       q    Type
REMARK                         _______ _______ _______ _____ _____    ______ ____
ROOT
ATOM      1  C   UNL     1      -7.849   3.548 133.585  0.00  0.00    +0.000 C 
ATOM      2  C   UNL     1      -7.642   3.135 132.116  0.00  0.00    +0.000 C 
ATOM      3  C   UNL     1      -7.846   4.291 131.129  0.00  0.00    +0.000 C 
ENDROOT
BRANCH   2   4
ATOM      4  S   UNL     1      -6.005   2.280 132.008  0.00  0.00    +0.000 S 
BRANCH   4   5
ATOM      5  C   UNL     1      -4.930   3.241 130.967  0.00  0.00    +0.000 A 
ATOM      6  C   UNL     1      -4.644   3.012 129.622  0.00  0.00    +0.000 A 
ATOM      7  C   UNL     1      -3.715   3.760 128.871  0.00  0.00    +0.000 A 
ATOM      8  C   UNL     1      -3.137   4.846 129.530  0.00  0.00    +0.000 A 
ATOM      9  C   UNL     1      -3.392   5.142 130.885  0.00  0.00    +0.000 A 
ATOM     10  C   UNL     1      -4.294   4.317 131.585  0.00  0.00    +0.000 A 
BRANCH   9  11
ATOM     11  C   UNL     1      -2.713   6.327 131.610  0.00  0.00    +0.000 C 
ATOM     12  C   UNL     1      -3.316   7.640 131.083  0.00  0.00    +0.000 C 
ATOM     13  C   UNL     1      -2.948   6.174 133.122  0.00  0.00    +0.000 C 
ATOM     14  C   UNL     1      -1.175   6.461 131.438  0.00  0.00    +0.000 C 
ENDBRANCH   9  11
BRANCH   7  15
ATOM     15  C   UNL     1      -3.440   3.318 127.420  0.00  0.00    +0.000 C 
ATOM     16  C   UNL     1      -4.037   1.911 127.189  0.00  0.00    +0.000 C 
ATOM     17  C   UNL     1      -4.063   4.331 126.440  0.00  0.00    +0.000 C 
ATOM     18  C   UNL     1      -1.961   3.204 127.024  0.00  0.00    +0.000 C 
ENDBRANCH   7  15
BRANCH   8  19
ATOM     19  O   UNL     1      -2.352   5.758 128.928  0.00  0.00    +0.000 OA
ATOM     20  H   UNL     1      -2.059   5.623 128.026  0.00  0.00    +0.000 HD
ENDBRANCH   8  19
ENDBRANCH   4   5
ENDBRANCH   2   4
BRANCH   2  21
ATOM     21  S   UNL     1      -9.003   1.872 131.771  0.00  0.00    +0.000 S 
BRANCH  21  22
ATOM     22  C   UNL     1      -8.388   0.924 130.378  0.00  0.00    +0.000 A 
ATOM     23  C   UNL     1      -8.055  -0.431 130.500  0.00  0.00    +0.000 A 
ATOM     24  C   UNL     1      -7.633  -1.227 129.407  0.00  0.00    +0.000 A 
ATOM     25  C   UNL     1      -7.631  -0.600 128.155  0.00  0.00    +0.000 A 
ATOM     26  C   UNL     1      -7.948   0.764 127.974  0.00  0.00    +0.000 A 
ATOM     27  C   UNL     1      -8.333   1.510 129.111  0.00  0.00    +0.000 A 
BRANCH  26  28
ATOM     28  C   UNL     1      -7.890   1.432 126.573  0.00  0.00    +0.000 C 
ATOM     29  C   UNL     1      -9.218   1.175 125.843  0.00  0.00    +0.000 C 
ATOM     30  C   UNL     1      -7.644   2.939 126.764  0.00  0.00    +0.000 C 
ATOM     31  C   UNL     1      -6.774   0.956 125.595  0.00  0.00    +0.000 C 
ENDBRANCH  26  28
BRANCH  24  32
ATOM     32  C   UNL     1      -7.240  -2.695 129.672  0.00  0.00    +0.000 C 
ATOM     33  C   UNL     1      -7.360  -2.984 131.183  0.00  0.00    +0.000 C 
ATOM     34  C   UNL     1      -8.159  -3.630 128.863  0.00  0.00    +0.000 C 
ATOM     35  C   UNL     1      -5.804  -3.102 129.295  0.00  0.00    +0.000 C 
ENDBRANCH  24  32
BRANCH  25  36
ATOM     36  O   UNL     1      -7.412  -1.243 126.990  0.00  0.00    +0.000 OA
ATOM     37  H   UNL     1      -8.104  -1.329 126.341  0.00  0.00    +0.000 HD
ENDBRANCH  25  36
ENDBRANCH  21  22
ENDBRANCH   2  21
TORSDOF 10
ENDMDL
MODEL 3
REMARK VINA RESULT:      -7.5      2.979      6.500
REMARK  Name = Probucol
REMARK  24 active torsions:
REMARK  status: ('A' for Active; 'I' for Inactive)
REMARK    1  A    between atoms: C_1  and  C_2
REMARK    2  A    between atoms: C_2  and  C_3
REMARK    3  A    between atoms: C_2  and  S_4
REMARK    4  A    between atoms: C_2  and  S_20
REMARK    5  A    between atoms: S_4  and  C_5
REMARK    6  A    between atoms: C_7  and  C_16
REMARK    7  A    between atoms: C_8  and  O_9
REMARK    8  A    between atoms: C_10  and  C_12
REMARK    9  A    between atoms: C_12  and  C_13
REMARK   10  A    between atoms: C_12  and  C_14
REMARK   11  A    between atoms: C_12  and  C_15
REMARK   12  A    between atoms: C_16  and  C_17
REMARK   13  A    between atoms: C_16  and  C_18
REMARK   14  A    between atoms: C_16  and  C_19
REMARK   15  A    between atoms: S_20  and  C_21
REMARK   16  A    between atoms: C_23  and  C_32
REMARK   17  A    between atoms: C_24  and  O_25
REMARK   18  A    between atoms: C_26  and  C_28
REMARK   19  A    between atoms: C_28  and  C_29
REMARK   20  A    between atoms: C_28  and  C_30
REMARK   21  A    between atoms: C_28  and  C_31
REMARK   22  A    between atoms: C_32  and  C_33
REMARK   23  A    between atoms: C_32  and  C_34
REMARK   24  A    between atoms: C_32  and  C_35
REMARK                            x       y       z     vdW  Elec       q    Type
REMARK                         _______ _______ _______ _____ _____    ______ ____
ROOT
ATOM      1  C   UNL     1      -7.484   3.148 133.702  0.00  0.00    +0.000 C 
ATOM      2  C   UNL     1      -7.430   2.949 132.177  0.00  0.00    +0.000 C 
ATOM      3  C   UNL     1      -7.672   4.242 131.389  0.00  0.00    +0.000 C 
ENDROOT
BRANCH   2   4
ATOM      4  S   UNL     1      -5.848   2.070 131.790  0.00  0.00    +0.000 S 
BRANCH   4   5
ATOM      5  C   UNL     1      -4.787   3.180 130.894  0.00  0.00    +0.000 A 
ATOM      6  C   UNL     1      -4.214   4.358 131.372  0.00  0.00    +0.000 A 
ATOM      7  C   UNL     1      -3.448   5.243 130.585  0.00  0.00    +0.000 A 
ATOM      8  C   UNL     1      -3.197   4.828 129.276  0.00  0.00    +0.000 A 
ATOM      9  C   UNL     1      -3.735   3.642 128.734  0.00  0.00    +0.000 A 
ATOM     10  C   UNL     1      -4.534   2.835 129.567  0.00  0.00    +0.000 A 
BRANCH   9  11
ATOM     11  C   UNL     1      -3.478   3.217 127.270  0.00  0.00    +0.000 C 
ATOM     12  C   UNL     1      -1.960   3.140 127.037  0.00  0.00    +0.000 C 
ATOM     13  C   UNL     1      -4.146   1.853 127.032  0.00  0.00    +0.000 C 
ATOM     14  C   UNL     1      -4.035   4.154 126.163  0.00  0.00    +0.000 C 
ENDBRANCH   9  11
BRANCH   7  15
ATOM     15  C   UNL     1      -2.967   6.553 131.238  0.00  0.00    +0.000 C 
ATOM     16  C   UNL     1      -3.559   6.667 132.661  0.00  0.00    +0.000 C 
ATOM     17  C   UNL     1      -1.427   6.570 131.297  0.00  0.00    +0.000 C 
ATOM     18  C   UNL     1      -3.375   7.848 130.521  0.00  0.00    +0.000 C 
ENDBRANCH   7  15
BRANCH   8  19
ATOM     19  O   UNL     1      -2.362   5.464 128.434  0.00  0.00    +0.000 OA
ATOM     20  H   UNL     1      -1.447   5.607 128.679  0.00  0.00    +0.000 HD
ENDBRANCH   8  19
ENDBRANCH   4   5
ENDBRANCH   2   4
BRANCH   2  21
ATOM     21  S   UNL     1      -8.870   1.790 131.788  0.00  0.00    +0.000 S 
BRANCH  21  22
ATOM     22  C   UNL     1      -8.314   0.851 130.364  0.00  0.00    +0.000 A 
ATOM     23  C   UNL     1      -7.979  -0.506 130.463  0.00  0.00    +0.000 A 
ATOM     24  C   UNL     1      -7.605  -1.295 129.348  0.00  0.00    +0.000 A 
ATOM     25  C   UNL     1      -7.652  -0.659 128.102  0.00  0.00    +0.000 A 
ATOM     26  C   UNL     1      -7.973   0.707 127.943  0.00  0.00    +0.000 A 
ATOM     27  C   UNL     1      -8.310   1.445 129.100  0.00  0.00    +0.000 A 
BRANCH  26  28
ATOM     28  C   UNL     1      -7.970   1.384 126.546  0.00  0.00    +0.000 C 
ATOM     29  C   UNL     1      -9.317   1.111 125.857  0.00  0.00    +0.000 C 
ATOM     30  C   UNL     1      -7.743   2.893 126.739  0.00  0.00    +0.000 C 
ATOM     31  C   UNL     1      -6.879   0.932 125.529  0.00  0.00    +0.000 C 
ENDBRANCH  26  28
BRANCH  24  32
ATOM     32  C   UNL     1      -7.204  -2.766 129.588  0.00  0.00    +0.000 C 
ATOM     33  C   UNL     1      -7.295  -3.074 131.096  0.00  0.00    +0.000 C 
ATOM     34  C   UNL     1      -8.136  -3.692 128.785  0.00  0.00    +0.000 C 
ATOM     35  C   UNL     1      -5.774  -3.165 129.178  0.00  0.00    +0.000 C 
ENDBRANCH  24  32
BRANCH  25  36
ATOM     36  O   UNL     1      -7.482  -1.294 126.925  0.00  0.00    +0.000 OA
ATOM     37  H   UNL     1      -6.612  -1.425 126.560  0.00  0.00    +0.000 HD
ENDBRANCH  25  36
ENDBRANCH  21  22
ENDBRANCH   2  21
TORSDOF 10
ENDMDL
MODEL 4
REMARK VINA RESULT:      -7.5      2.143      5.236
REMARK  Name = Probucol
REMARK  24 active torsions:
REMARK  status: ('A' for Active; 'I' for Inactive)
REMARK    1  A    between atoms: C_1  and  C_2
REMARK    2  A    between atoms: C_2  and  C_3
REMARK    3  A    between atoms: C_2  and  S_4
REMARK    4  A    between atoms: C_2  and  S_20
REMARK    5  A    between atoms: S_4  and  C_5
REMARK    6  A    between atoms: C_7  and  C_16
REMARK    7  A    between atoms: C_8  and  O_9
REMARK    8  A    between atoms: C_10  and  C_12
REMARK    9  A    between atoms: C_12  and  C_13
REMARK   10  A    between atoms: C_12  and  C_14
REMARK   11  A    between atoms: C_12  and  C_15
REMARK   12  A    between atoms: C_16  and  C_17
REMARK   13  A    between atoms: C_16  and  C_18
REMARK   14  A    between atoms: C_16  and  C_19
REMARK   15  A    between atoms: S_20  and  C_21
REMARK   16  A    between atoms: C_23  and  C_32
REMARK   17  A    between atoms: C_24  and  O_25
REMARK   18  A    between atoms: C_26  and  C_28
REMARK   19  A    between atoms: C_28  and  C_29
REMARK   20  A    between atoms: C_28  and  C_30
REMARK   21  A    between atoms: C_28  and  C_31
REMARK   22  A    between atoms: C_32  and  C_33
REMARK   23  A    between atoms: C_32  and  C_34
REMARK   24  A    between atoms: C_32  and  C_35
REMARK                            x       y       z     vdW  Elec       q    Type
REMARK                         _______ _______ _______ _____ _____    ______ ____
ROOT
ATOM      1  C   UNL     1      -6.008  -3.882 130.337  0.00  0.00    +0.000 C 
ATOM      2  C   UNL     1      -5.923  -2.425 129.848  0.00  0.00    +0.000 C 
ATOM      3  C   UNL     1      -4.904  -2.224 128.720  0.00  0.00    +0.000 C 
ENDROOT
BRANCH   2   4
ATOM      4  S   UNL     1      -7.646  -1.869 129.467  0.00  0.00    +0.000 S 
BRANCH   4   5
ATOM      5  C   UNL     1      -7.704  -1.316 127.778  0.00  0.00    +0.000 A 
ATOM      6  C   UNL     1      -7.791  -2.115 126.639  0.00  0.00    +0.000 A 
ATOM      7  C   UNL     1      -7.747  -1.621 125.319  0.00  0.00    +0.000 A 
ATOM      8  C   UNL     1      -7.704  -0.232 125.193  0.00  0.00    +0.000 A 
ATOM      9  C   UNL     1      -7.628   0.634 126.304  0.00  0.00    +0.000 A 
ATOM     10  C   UNL     1      -7.625   0.063 127.591  0.00  0.00    +0.000 A 
BRANCH   9  11
ATOM     11  C   UNL     1      -7.544   2.171 126.144  0.00  0.00    +0.000 C 
ATOM     12  C   UNL     1      -7.947   2.828 127.474  0.00  0.00    +0.000 C 
ATOM     13  C   UNL     1      -6.103   2.543 125.754  0.00  0.00    +0.000 C 
ATOM     14  C   UNL     1      -8.450   2.810 125.056  0.00  0.00    +0.000 C 
ENDBRANCH   9  11
BRANCH   7  15
ATOM     15  C   UNL     1      -7.756  -2.644 124.167  0.00  0.00    +0.000 C 
ATOM     16  C   UNL     1      -8.998  -2.409 123.278  0.00  0.00    +0.000 C 
ATOM     17  C   UNL     1      -6.468  -2.500 123.333  0.00  0.00    +0.000 C 
ATOM     18  C   UNL     1      -7.825  -4.121 124.583  0.00  0.00    +0.000 C 
ENDBRANCH   7  15
BRANCH   8  19
ATOM     19  O   UNL     1      -7.814   0.420 124.020  0.00  0.00    +0.000 OA
ATOM     20  H   UNL     1      -8.223   1.285 123.985  0.00  0.00    +0.000 HD
ENDBRANCH   8  19
ENDBRANCH   4   5
ENDBRANCH   2   4
BRANCH   2  21
ATOM     21  S   UNL     1      -5.294  -1.449 131.337  0.00  0.00    +0.000 S 
BRANCH  21  22
ATOM     22  C   UNL     1      -5.837   0.233 131.030  0.00  0.00    +0.000 A 
ATOM     23  C   UNL     1      -7.064   0.710 131.511  0.00  0.00    +0.000 A 
ATOM     24  C   UNL     1      -7.492   2.049 131.348  0.00  0.00    +0.000 A 
ATOM     25  C   UNL     1      -6.581   2.914 130.729  0.00  0.00    +0.000 A 
ATOM     26  C   UNL     1      -5.336   2.488 130.217  0.00  0.00    +0.000 A 
ATOM     27  C   UNL     1      -4.981   1.131 130.387  0.00  0.00    +0.000 A 
BRANCH  26  28
ATOM     28  C   UNL     1      -4.374   3.472 129.498  0.00  0.00    +0.000 C 
ATOM     29  C   UNL     1      -3.470   4.140 130.546  0.00  0.00    +0.000 C 
ATOM     30  C   UNL     1      -3.544   2.679 128.474  0.00  0.00    +0.000 C 
ATOM     31  C   UNL     1      -5.013   4.641 128.689  0.00  0.00    +0.000 C 
ENDBRANCH  26  28
BRANCH  24  32
ATOM     32  C   UNL     1      -8.888   2.446 131.872  0.00  0.00    +0.000 C 
ATOM     33  C   UNL     1      -9.765   1.182 131.978  0.00  0.00    +0.000 C 
ATOM     34  C   UNL     1      -8.748   3.130 133.245  0.00  0.00    +0.000 C 
ATOM     35  C   UNL     1      -9.695   3.428 131.003  0.00  0.00    +0.000 C 
ENDBRANCH  24  32
BRANCH  25  36
ATOM     36  O   UNL     1      -6.754   4.248 130.633  0.00  0.00    +0.000 OA
ATOM     37  H   UNL     1      -6.429   4.835 131.309  0.00  0.00    +0.000 HD
ENDBRANCH  25  36
ENDBRANCH  21  22
ENDBRANCH   2  21
TORSDOF 10
ENDMDL
MODEL 5
REMARK VINA RESULT:      -7.5      2.158      5.394
REMARK  Name = Probucol
REMARK  24 active torsions:
REMARK  status: ('A' for Active; 'I' for Inactive)
REMARK    1  A    between atoms: C_1  and  C_2
REMARK    2  A    between atoms: C_2  and  C_3
REMARK    3  A    between atoms: C_2  and  S_4
REMARK    4  A    between atoms: C_2  and  S_20
REMARK    5  A    between atoms: S_4  and  C_5
REMARK    6  A    between atoms: C_7  and  C_16
REMARK    7  A    between atoms: C_8  and  O_9
REMARK    8  A    between atoms: C_10  and  C_12
REMARK    9  A    between atoms: C_12  and  C_13
REMARK   10  A    between atoms: C_12  and  C_14
REMARK   11  A    between atoms: C_12  and  C_15
REMARK   12  A    between atoms: C_16  and  C_17
REMARK   13  A    between atoms: C_16  and  C_18
REMARK   14  A    between atoms: C_16  and  C_19
REMARK   15  A    between atoms: S_20  and  C_21
REMARK   16  A    between atoms: C_23  and  C_32
REMARK   17  A    between atoms: C_24  and  O_25
REMARK   18  A    between atoms: C_26  and  C_28
REMARK   19  A    between atoms: C_28  and  C_29
REMARK   20  A    between atoms: C_28  and  C_30
REMARK   21  A    between atoms: C_28  and  C_31
REMARK   22  A    between atoms: C_32  and  C_33
REMARK   23  A    between atoms: C_32  and  C_34
REMARK   24  A    between atoms: C_32  and  C_35
REMARK                            x       y       z     vdW  Elec       q    Type
REMARK                         _______ _______ _______ _____ _____    ______ ____
ROOT
ATOM      1  C   UNL     1      -6.066  -3.771 129.986  0.00  0.00    +0.000 C 
ATOM      2  C   UNL     1      -5.987  -2.290 129.575  0.00  0.00    +0.000 C 
ATOM      3  C   UNL     1      -4.837  -1.991 128.606  0.00  0.00    +0.000 C 
ENDROOT
BRANCH   2   4
ATOM      4  S   UNL     1      -7.669  -1.789 128.988  0.00  0.00    +0.000 S 
BRANCH   4   5
ATOM      5  C   UNL     1      -7.504  -0.994 127.406  0.00  0.00    +0.000 A 
ATOM      6  C   UNL     1      -7.435   0.378 127.163  0.00  0.00    +0.000 A 
ATOM      7  C   UNL     1      -7.390   0.953 125.876  0.00  0.00    +0.000 A 
ATOM      8  C   UNL     1      -7.321   0.053 124.812  0.00  0.00    +0.000 A 
ATOM      9  C   UNL     1      -7.373  -1.345 124.989  0.00  0.00    +0.000 A 
ATOM     10  C   UNL     1      -7.470  -1.844 126.302  0.00  0.00    +0.000 A 
BRANCH   9  11
ATOM     11  C   UNL     1      -7.334  -2.327 123.794  0.00  0.00    +0.000 C 
ATOM     12  C   UNL     1      -7.157  -3.756 124.335  0.00  0.00    +0.000 C 
ATOM     13  C   UNL     1      -8.646  -2.190 123.005  0.00  0.00    +0.000 C 
ATOM     14  C   UNL     1      -6.197  -2.118 122.756  0.00  0.00    +0.000 C 
ENDBRANCH   9  11
BRANCH   7  15
ATOM     15  C   UNL     1      -7.415   2.490 125.774  0.00  0.00    +0.000 C 
ATOM     16  C   UNL     1      -6.008   3.004 125.394  0.00  0.00    +0.000 C 
ATOM     17  C   UNL     1      -8.447   2.925 124.715  0.00  0.00    +0.000 C 
ATOM     18  C   UNL     1      -7.790   3.241 127.060  0.00  0.00    +0.000 C 
ENDBRANCH   7  15
BRANCH   8  19
ATOM     19  O   UNL     1      -7.117   0.417 123.532  0.00  0.00    +0.000 OA
ATOM     20  H   UNL     1      -7.788   0.908 123.057  0.00  0.00    +0.000 HD
ENDBRANCH   8  19
ENDBRANCH   4   5
ENDBRANCH   2   4
BRANCH   2  21
ATOM     21  S   UNL     1      -5.611  -1.362 131.176  0.00  0.00    +0.000 S 
BRANCH  21  22
ATOM     22  C   UNL     1      -6.073   0.336 130.828  0.00  0.00    +0.000 A 
ATOM     23  C   UNL     1      -7.306   0.861 131.237  0.00  0.00    +0.000 A 
ATOM     24  C   UNL     1      -7.674   2.215 131.041  0.00  0.00    +0.000 A 
ATOM     25  C   UNL     1      -6.700   3.039 130.467  0.00  0.00    +0.000 A 
ATOM     26  C   UNL     1      -5.445   2.563 130.027  0.00  0.00    +0.000 A 
ATOM     27  C   UNL     1      -5.151   1.196 130.226  0.00  0.00    +0.000 A 
BRANCH  26  28
ATOM     28  C   UNL     1      -4.410   3.505 129.355  0.00  0.00    +0.000 C 
ATOM     29  C   UNL     1      -3.498   4.099 130.440  0.00  0.00    +0.000 C 
ATOM     30  C   UNL     1      -3.599   2.685 128.336  0.00  0.00    +0.000 C 
ATOM     31  C   UNL     1      -4.959   4.724 128.555  0.00  0.00    +0.000 C 
ENDBRANCH  26  28
BRANCH  24  32
ATOM     32  C   UNL     1      -9.081   2.667 131.486  0.00  0.00    +0.000 C 
ATOM     33  C   UNL     1      -9.894   1.431 131.921  0.00  0.00    +0.000 C 
ATOM     34  C   UNL     1      -8.957   3.675 132.643  0.00  0.00    +0.000 C 
ATOM     35  C   UNL     1      -9.946   3.367 130.421  0.00  0.00    +0.000 C 
ENDBRANCH  24  32
BRANCH  25  36
ATOM     36  O   UNL     1      -6.818   4.378 130.352  0.00  0.00    +0.000 OA
ATOM     37  H   UNL     1      -6.724   4.807 129.506  0.00  0.00    +0.000 HD
ENDBRANCH  25  36
ENDBRANCH  21  22
ENDBRANCH   2  21
TORSDOF 10
ENDMDL
MODEL 6
REMARK VINA RESULT:      -7.4      0.172      7.118
REMARK  Name = Probucol
REMARK  24 active torsions:
REMARK  status: ('A' for Active; 'I' for Inactive)
REMARK    1  A    between atoms: C_1  and  C_2
REMARK    2  A    between atoms: C_2  and  C_3
REMARK    3  A    between atoms: C_2  and  S_4
REMARK    4  A    between atoms: C_2  and  S_20
REMARK    5  A    between atoms: S_4  and  C_5
REMARK    6  A    between atoms: C_7  and  C_16
REMARK    7  A    between atoms: C_8  and  O_9
REMARK    8  A    between atoms: C_10  and  C_12
REMARK    9  A    between atoms: C_12  and  C_13
REMARK   10  A    between atoms: C_12  and  C_14
REMARK   11  A    between atoms: C_12  and  C_15
REMARK   12  A    between atoms: C_16  and  C_17
REMARK   13  A    between atoms: C_16  and  C_18
REMARK   14  A    between atoms: C_16  and  C_19
REMARK   15  A    between atoms: S_20  and  C_21
REMARK   16  A    between atoms: C_23  and  C_32
REMARK   17  A    between atoms: C_24  and  O_25
REMARK   18  A    between atoms: C_26  and  C_28
REMARK   19  A    between atoms: C_28  and  C_29
REMARK   20  A    between atoms: C_28  and  C_30
REMARK   21  A    between atoms: C_28  and  C_31
REMARK   22  A    between atoms: C_32  and  C_33
REMARK   23  A    between atoms: C_32  and  C_34
REMARK   24  A    between atoms: C_32  and  C_35
REMARK                            x       y       z     vdW  Elec       q    Type
REMARK                         _______ _______ _______ _____ _____    ______ ____
ROOT
ATOM      1  C   UNL     1      -8.189  -3.268 124.720  0.00  0.00    +0.000 C 
ATOM      2  C   UNL     1      -8.049  -2.425 126.001  0.00  0.00    +0.000 C 
ATOM      3  C   UNL     1      -8.718  -1.049 125.895  0.00  0.00    +0.000 C 
ENDROOT
BRANCH   2   4
ATOM      4  S   UNL     1      -8.614  -3.473 127.417  0.00  0.00    +0.000 S 
BRANCH   4   5
ATOM      5  C   UNL     1      -7.810  -2.907 128.898  0.00  0.00    +0.000 A 
ATOM      6  C   UNL     1      -6.915  -3.625 129.691  0.00  0.00    +0.000 A 
ATOM      7  C   UNL     1      -6.375  -3.151 130.904  0.00  0.00    +0.000 A 
ATOM      8  C   UNL     1      -6.714  -1.842 131.248  0.00  0.00    +0.000 A 
ATOM      9  C   UNL     1      -7.604  -1.057 130.485  0.00  0.00    +0.000 A 
ATOM     10  C   UNL     1      -8.143  -1.618 129.312  0.00  0.00    +0.000 A 
BRANCH   9  11
ATOM     11  C   UNL     1      -7.998   0.379 130.902  0.00  0.00    +0.000 C 
ATOM     12  C   UNL     1      -8.250   1.211 129.634  0.00  0.00    +0.000 C 
ATOM     13  C   UNL     1      -9.261   0.304 131.778  0.00  0.00    +0.000 C 
ATOM     14  C   UNL     1      -6.957   1.175 131.737  0.00  0.00    +0.000 C 
ENDBRANCH   9  11
BRANCH   7  15
ATOM     15  C   UNL     1      -5.474  -4.105 131.712  0.00  0.00    +0.000 C 
ATOM     16  C   UNL     1      -5.462  -5.496 131.038  0.00  0.00    +0.000 C 
ATOM     17  C   UNL     1      -4.044  -3.535 131.785  0.00  0.00    +0.000 C 
ATOM     18  C   UNL     1      -5.900  -4.359 133.165  0.00  0.00    +0.000 C 
ENDBRANCH   7  15
BRANCH   8  19
ATOM     19  O   UNL     1      -6.172  -1.173 132.283  0.00  0.00    +0.000 OA
ATOM     20  H   UNL     1      -5.251  -0.912 132.260  0.00  0.00    +0.000 HD
ENDBRANCH   8  19
ENDBRANCH   4   5
ENDBRANCH   2   4
BRANCH   2  21
ATOM     21  S   UNL     1      -6.194  -2.121 126.181  0.00  0.00    +0.000 S 
BRANCH  21  22
ATOM     22  C   UNL     1      -6.041  -0.336 126.273  0.00  0.00    +0.000 A 
ATOM     23  C   UNL     1      -5.376   0.292 127.333  0.00  0.00    +0.000 A 
ATOM     24  C   UNL     1      -5.175   1.692 127.402  0.00  0.00    +0.000 A 
ATOM     25  C   UNL     1      -5.623   2.431 126.301  0.00  0.00    +0.000 A 
ATOM     26  C   UNL     1      -6.307   1.853 125.208  0.00  0.00    +0.000 A 
ATOM     27  C   UNL     1      -6.500   0.454 125.216  0.00  0.00    +0.000 A 
BRANCH  26  28
ATOM     28  C   UNL     1      -6.826   2.717 124.027  0.00  0.00    +0.000 C 
ATOM     29  C   UNL     1      -7.168   1.793 122.847  0.00  0.00    +0.000 C 
ATOM     30  C   UNL     1      -8.067   3.493 124.502  0.00  0.00    +0.000 C 
ATOM     31  C   UNL     1      -5.864   3.798 123.449  0.00  0.00    +0.000 C 
ENDBRANCH  26  28
BRANCH  24  32
ATOM     32  C   UNL     1      -4.475   2.276 128.647  0.00  0.00    +0.000 C 
ATOM     33  C   UNL     1      -4.227   1.143 129.664  0.00  0.00    +0.000 C 
ATOM     34  C   UNL     1      -3.148   2.937 128.231  0.00  0.00    +0.000 C 
ATOM     35  C   UNL     1      -5.247   3.357 129.426  0.00  0.00    +0.000 C 
ENDBRANCH  24  32
BRANCH  25  36
ATOM     36  O   UNL     1      -5.376   3.745 126.124  0.00  0.00    +0.000 OA
ATOM     37  H   UNL     1      -6.088   4.361 125.977  0.00  0.00    +0.000 HD
ENDBRANCH  25  36
ENDBRANCH  21  22
ENDBRANCH   2  21
TORSDOF 10
ENDMDL
MODEL 7
REMARK VINA RESULT:      -7.4      0.163      6.814
REMARK  Name = Probucol
REMARK  24 active torsions:
REMARK  status: ('A' for Active; 'I' for Inactive)
REMARK    1  A    between atoms: C_1  and  C_2
REMARK    2  A    between atoms: C_2  and  C_3
REMARK    3  A    between atoms: C_2  and  S_4
REMARK    4  A    between atoms: C_2  and  S_20
REMARK    5  A    between atoms: S_4  and  C_5
REMARK    6  A    between atoms: C_7  and  C_16
REMARK    7  A    between atoms: C_8  and  O_9
REMARK    8  A    between atoms: C_10  and  C_12
REMARK    9  A    between atoms: C_12  and  C_13
REMARK   10  A    between atoms: C_12  and  C_14
REMARK   11  A    between atoms: C_12  and  C_15
REMARK   12  A    between atoms: C_16  and  C_17
REMARK   13  A    between atoms: C_16  and  C_18
REMARK   14  A    between atoms: C_16  and  C_19
REMARK   15  A    between atoms: S_20  and  C_21
REMARK   16  A    between atoms: C_23  and  C_32
REMARK   17  A    between atoms: C_24  and  O_25
REMARK   18  A    between atoms: C_26  and  C_28
REMARK   19  A    between atoms: C_28  and  C_29
REMARK   20  A    between atoms: C_28  and  C_30
REMARK   21  A    between atoms: C_28  and  C_31
REMARK   22  A    between atoms: C_32  and  C_33
REMARK   23  A    between atoms: C_32  and  C_34
REMARK   24  A    between atoms: C_32  and  C_35
REMARK                            x       y       z     vdW  Elec       q    Type
REMARK                         _______ _______ _______ _____ _____    ______ ____
ROOT
ATOM      1  C   UNL     1      -8.113  -3.230 124.656  0.00  0.00    +0.000 C 
ATOM      2  C   UNL     1      -7.994  -2.409 125.953  0.00  0.00    +0.000 C 
ATOM      3  C   UNL     1      -8.684  -1.042 125.869  0.00  0.00    +0.000 C 
ENDROOT
BRANCH   2   4
ATOM      4  S   UNL     1      -8.551  -3.493 127.345  0.00  0.00    +0.000 S 
BRANCH   4   5
ATOM      5  C   UNL     1      -7.955  -2.806 128.873  0.00  0.00    +0.000 A 
ATOM      6  C   UNL     1      -8.245  -1.545 129.392  0.00  0.00    +0.000 A 
ATOM      7  C   UNL     1      -7.673  -1.022 130.570  0.00  0.00    +0.000 A 
ATOM      8  C   UNL     1      -6.840  -1.891 131.277  0.00  0.00    +0.000 A 
ATOM      9  C   UNL     1      -6.516  -3.183 130.814  0.00  0.00    +0.000 A 
ATOM     10  C   UNL     1      -7.086  -3.616 129.602  0.00  0.00    +0.000 A 
BRANCH   9  11
ATOM     11  C   UNL     1      -5.560  -4.118 131.591  0.00  0.00    +0.000 C 
ATOM     12  C   UNL     1      -5.534  -5.489 130.894  0.00  0.00    +0.000 C 
ATOM     13  C   UNL     1      -4.161  -3.479 131.613  0.00  0.00    +0.000 C 
ATOM     14  C   UNL     1      -5.914  -4.400 133.078  0.00  0.00    +0.000 C 
ENDBRANCH   9  11
BRANCH   7  15
ATOM     15  C   UNL     1      -8.023   0.428 130.958  0.00  0.00    +0.000 C 
ATOM     16  C   UNL     1      -8.288   1.253 129.679  0.00  0.00    +0.000 C 
ATOM     17  C   UNL     1      -9.268   0.437 131.866  0.00  0.00    +0.000 C 
ATOM     18  C   UNL     1      -6.938   1.197 131.724  0.00  0.00    +0.000 C 
ENDBRANCH   7  15
BRANCH   8  19
ATOM     19  O   UNL     1      -6.333  -1.621 132.494  0.00  0.00    +0.000 OA
ATOM     20  H   UNL     1      -6.165  -0.716 132.757  0.00  0.00    +0.000 HD
ENDBRANCH   8  19
ENDBRANCH   4   5
ENDBRANCH   2   4
BRANCH   2  21
ATOM     21  S   UNL     1      -6.146  -2.081 126.151  0.00  0.00    +0.000 S 
BRANCH  21  22
ATOM     22  C   UNL     1      -6.016  -0.293 126.233  0.00  0.00    +0.000 A 
ATOM     23  C   UNL     1      -5.367   0.350 127.295  0.00  0.00    +0.000 A 
ATOM     24  C   UNL     1      -5.185   1.753 127.356  0.00  0.00    +0.000 A 
ATOM     25  C   UNL     1      -5.634   2.479 126.247  0.00  0.00    +0.000 A 
ATOM     26  C   UNL     1      -6.302   1.886 125.153  0.00  0.00    +0.000 A 
ATOM     27  C   UNL     1      -6.477   0.484 125.167  0.00  0.00    +0.000 A 
BRANCH  26  28
ATOM     28  C   UNL     1      -6.822   2.736 123.962  0.00  0.00    +0.000 C 
ATOM     29  C   UNL     1      -7.113   1.804 122.775  0.00  0.00    +0.000 C 
ATOM     30  C   UNL     1      -8.095   3.474 124.413  0.00  0.00    +0.000 C 
ATOM     31  C   UNL     1      -5.881   3.845 123.404  0.00  0.00    +0.000 C 
ENDBRANCH  26  28
BRANCH  24  32
ATOM     32  C   UNL     1      -4.503   2.354 128.603  0.00  0.00    +0.000 C 
ATOM     33  C   UNL     1      -5.439   3.407 129.231  0.00  0.00    +0.000 C 
ATOM     34  C   UNL     1      -4.189   1.232 129.610  0.00  0.00    +0.000 C 
ATOM     35  C   UNL     1      -3.168   3.085 128.371  0.00  0.00    +0.000 C 
ENDBRANCH  24  32
BRANCH  25  36
ATOM     36  O   UNL     1      -5.403   3.795 126.064  0.00  0.00    +0.000 OA
ATOM     37  H   UNL     1      -6.109   4.431 126.138  0.00  0.00    +0.000 HD
ENDBRANCH  25  36
ENDBRANCH  21  22
ENDBRANCH   2  21
TORSDOF 10
ENDMDL
MODEL 8
REMARK VINA RESULT:      -7.4      0.174      6.806
REMARK  Name = Probucol
REMARK  24 active torsions:
REMARK  status: ('A' for Active; 'I' for Inactive)
REMARK    1  A    between atoms: C_1  and  C_2
REMARK    2  A    between atoms: C_2  and  C_3
REMARK    3  A    between atoms: C_2  and  S_4
REMARK    4  A    between atoms: C_2  and  S_20
REMARK    5  A    between atoms: S_4  and  C_5
REMARK    6  A    between atoms: C_7  and  C_16
REMARK    7  A    between atoms: C_8  and  O_9
REMARK    8  A    between atoms: C_10  and  C_12
REMARK    9  A    between atoms: C_12  and  C_13
REMARK   10  A    between atoms: C_12  and  C_14
REMARK   11  A    between atoms: C_12  and  C_15
REMARK   12  A    between atoms: C_16  and  C_17
REMARK   13  A    between atoms: C_16  and  C_18
REMARK   14  A    between atoms: C_16  and  C_19
REMARK   15  A    between atoms: S_20  and  C_21
REMARK   16  A    between atoms: C_23  and  C_32
REMARK   17  A    between atoms: C_24  and  O_25
REMARK   18  A    between atoms: C_26  and  C_28
REMARK   19  A    between atoms: C_28  and  C_29
REMARK   20  A    between atoms: C_28  and  C_30
REMARK   21  A    between atoms: C_28  and  C_31
REMARK   22  A    between atoms: C_32  and  C_33
REMARK   23  A    between atoms: C_32  and  C_34
REMARK   24  A    between atoms: C_32  and  C_35
REMARK                            x       y       z     vdW  Elec       q    Type
REMARK                         _______ _______ _______ _____ _____    ______ ____
ROOT
ATOM      1  C   UNL     1      -8.243  -3.146 124.724  0.00  0.00    +0.000 C 
ATOM      2  C   UNL     1      -8.034  -2.355 126.029  0.00  0.00    +0.000 C 
ATOM      3  C   UNL     1      -8.644  -0.949 125.989  0.00  0.00    +0.000 C 
ENDROOT
BRANCH   2   4
ATOM      4  S   UNL     1      -8.608  -3.428 127.423  0.00  0.00    +0.000 S 
BRANCH   4   5
ATOM      5  C   UNL     1      -7.808  -2.893 128.918  0.00  0.00    +0.000 A 
ATOM      6  C   UNL     1      -6.921  -3.631 129.702  0.00  0.00    +0.000 A 
ATOM      7  C   UNL     1      -6.384  -3.182 130.925  0.00  0.00    +0.000 A 
ATOM      8  C   UNL     1      -6.716  -1.877 131.292  0.00  0.00    +0.000 A 
ATOM      9  C   UNL     1      -7.596  -1.073 130.538  0.00  0.00    +0.000 A 
ATOM     10  C   UNL     1      -8.134  -1.610 129.353  0.00  0.00    +0.000 A 
BRANCH   9  11
ATOM     11  C   UNL     1      -7.983   0.358 130.979  0.00  0.00    +0.000 C 
ATOM     12  C   UNL     1      -8.251   1.206 129.724  0.00  0.00    +0.000 C 
ATOM     13  C   UNL     1      -9.234   0.274 131.870  0.00  0.00    +0.000 C 
ATOM     14  C   UNL     1      -6.930   1.142 131.810  0.00  0.00    +0.000 C 
ENDBRANCH   9  11
BRANCH   7  15
ATOM     15  C   UNL     1      -5.494  -4.157 131.721  0.00  0.00    +0.000 C 
ATOM     16  C   UNL     1      -5.495  -5.538 131.027  0.00  0.00    +0.000 C 
ATOM     17  C   UNL     1      -4.059  -3.602 131.803  0.00  0.00    +0.000 C 
ATOM     18  C   UNL     1      -5.924  -4.427 133.170  0.00  0.00    +0.000 C 
ENDBRANCH   7  15
BRANCH   8  19
ATOM     19  O   UNL     1      -6.175  -1.231 132.340  0.00  0.00    +0.000 OA
ATOM     20  H   UNL     1      -5.400  -1.585 132.778  0.00  0.00    +0.000 HD
ENDBRANCH   8  19
ENDBRANCH   4   5
ENDBRANCH   2   4
BRANCH   2  21
ATOM     21  S   UNL     1      -6.163  -2.139 126.170  0.00  0.00    +0.000 S 
BRANCH  21  22
ATOM     22  C   UNL     1      -5.920  -0.362 126.205  0.00  0.00    +0.000 A 
ATOM     23  C   UNL     1      -6.420   0.468 125.194  0.00  0.00    +0.000 A 
ATOM     24  C   UNL     1      -6.308   1.880 125.224  0.00  0.00    +0.000 A 
ATOM     25  C   UNL     1      -5.721   2.425 126.372  0.00  0.00    +0.000 A 
ATOM     26  C   UNL     1      -5.192   1.637 127.418  0.00  0.00    +0.000 A 
ATOM     27  C   UNL     1      -5.311   0.233 127.312  0.00  0.00    +0.000 A 
BRANCH  26  28
ATOM     28  C   UNL     1      -4.510   2.281 128.655  0.00  0.00    +0.000 C 
ATOM     29  C   UNL     1      -4.198   1.181 129.682  0.00  0.00    +0.000 C 
ATOM     30  C   UNL     1      -3.224   2.985 128.187  0.00  0.00    +0.000 C 
ATOM     31  C   UNL     1      -5.310   3.368 129.434  0.00  0.00    +0.000 C 
ENDBRANCH  26  28
BRANCH  24  32
ATOM     32  C   UNL     1      -6.849   2.688 124.026  0.00  0.00    +0.000 C 
ATOM     33  C   UNL     1      -7.088   1.732 122.839  0.00  0.00    +0.000 C 
ATOM     34  C   UNL     1      -8.156   3.396 124.429  0.00  0.00    +0.000 C 
ATOM     35  C   UNL     1      -5.933   3.797 123.475  0.00  0.00    +0.000 C 
ENDBRANCH  24  32
BRANCH  25  36
ATOM     36  O   UNL     1      -5.675   3.745 126.642  0.00  0.00    +0.000 OA
ATOM     37  H   UNL     1      -4.916   4.132 127.068  0.00  0.00    +0.000 HD
ENDBRANCH  25  36
ENDBRANCH  21  22
ENDBRANCH   2  21
TORSDOF 10
ENDMDL
MODEL 9
REMARK VINA RESULT:      -7.4      2.883      7.039
REMARK  Name = Probucol
REMARK  24 active torsions:
REMARK  status: ('A' for Active; 'I' for Inactive)
REMARK    1  A    between atoms: C_1  and  C_2
REMARK    2  A    between atoms: C_2  and  C_3
REMARK    3  A    between atoms: C_2  and  S_4
REMARK    4  A    between atoms: C_2  and  S_20
REMARK    5  A    between atoms: S_4  and  C_5
REMARK    6  A    between atoms: C_7  and  C_16
REMARK    7  A    between atoms: C_8  and  O_9
REMARK    8  A    between atoms: C_10  and  C_12
REMARK    9  A    between atoms: C_12  and  C_13
REMARK   10  A    between atoms: C_12  and  C_14
REMARK   11  A    between atoms: C_12  and  C_15
REMARK   12  A    between atoms: C_16  and  C_17
REMARK   13  A    between atoms: C_16  and  C_18
REMARK   14  A    between atoms: C_16  and  C_19
REMARK   15  A    between atoms: S_20  and  C_21
REMARK   16  A    between atoms: C_23  and  C_32
REMARK   17  A    between atoms: C_24  and  O_25
REMARK   18  A    between atoms: C_26  and  C_28
REMARK   19  A    between atoms: C_28  and  C_29
REMARK   20  A    between atoms: C_28  and  C_30
REMARK   21  A    between atoms: C_28  and  C_31
REMARK   22  A    between atoms: C_32  and  C_33
REMARK   23  A    between atoms: C_32  and  C_34
REMARK   24  A    between atoms: C_32  and  C_35
REMARK                            x       y       z     vdW  Elec       q    Type
REMARK                         _______ _______ _______ _____ _____    ______ ____
ROOT
ATOM      1  C   UNL     1      -7.045   2.968 133.059  0.00  0.00    +0.000 C 
ATOM      2  C   UNL     1      -7.154   1.957 131.903  0.00  0.00    +0.000 C 
ATOM      3  C   UNL     1      -8.001   0.727 132.253  0.00  0.00    +0.000 C 
ENDROOT
BRANCH   2   4
ATOM      4  S   UNL     1      -7.698   2.892 130.402  0.00  0.00    +0.000 S 
BRANCH   4   5
ATOM      5  C   UNL     1      -7.775   1.765 129.028  0.00  0.00    +0.000 A 
ATOM      6  C   UNL     1      -7.738   0.372 129.087  0.00  0.00    +0.000 A 
ATOM      7  C   UNL     1      -7.717  -0.468 127.954  0.00  0.00    +0.000 A 
ATOM      8  C   UNL     1      -7.834   0.174 126.721  0.00  0.00    +0.000 A 
ATOM      9  C   UNL     1      -7.890   1.578 126.592  0.00  0.00    +0.000 A 
ATOM     10  C   UNL     1      -7.853   2.353 127.767  0.00  0.00    +0.000 A 
BRANCH   9  11
ATOM     11  C   UNL     1      -7.981   2.274 125.214  0.00  0.00    +0.000 C 
ATOM     12  C   UNL     1      -9.352   1.961 124.592  0.00  0.00    +0.000 C 
ATOM     13  C   UNL     1      -7.795   3.787 125.418  0.00  0.00    +0.000 C 
ATOM     14  C   UNL     1      -6.925   1.862 124.152  0.00  0.00    +0.000 C 
ENDBRANCH   9  11
BRANCH   7  15
ATOM     15  C   UNL     1      -7.576  -1.985 128.187  0.00  0.00    +0.000 C 
ATOM     16  C   UNL     1      -6.140  -2.429 127.829  0.00  0.00    +0.000 C 
ATOM     17  C   UNL     1      -7.887  -2.316 129.660  0.00  0.00    +0.000 C 
ATOM     18  C   UNL     1      -8.501  -2.880 127.350  0.00  0.00    +0.000 C 
ENDBRANCH   7  15
BRANCH   8  19
ATOM     19  O   UNL     1      -7.989  -0.471 125.550  0.00  0.00    +0.000 OA
ATOM     20  H   UNL     1      -8.669  -0.198 124.934  0.00  0.00    +0.000 HD
ENDBRANCH   8  19
ENDBRANCH   4   5
ENDBRANCH   2   4
BRANCH   2  21
ATOM     21  S   UNL     1      -5.389   1.348 131.623  0.00  0.00    +0.000 S 
BRANCH  21  22
ATOM     22  C   UNL     1      -4.621   2.640 130.643  0.00  0.00    +0.000 A 
ATOM     23  C   UNL     1      -4.126   3.812 131.229  0.00  0.00    +0.000 A 
ATOM     24  C   UNL     1      -3.452   4.820 130.497  0.00  0.00    +0.000 A 
ATOM     25  C   UNL     1      -3.238   4.553 129.140  0.00  0.00    +0.000 A 
ATOM     26  C   UNL     1      -3.721   3.393 128.494  0.00  0.00    +0.000 A 
ATOM     27  C   UNL     1      -4.411   2.441 129.277  0.00  0.00    +0.000 A 
BRANCH  26  28
ATOM     28  C   UNL     1      -3.498   3.158 126.976  0.00  0.00    +0.000 C 
ATOM     29  C   UNL     1      -4.137   1.817 126.580  0.00  0.00    +0.000 C 
ATOM     30  C   UNL     1      -4.137   4.326 126.205  0.00  0.00    +0.000 C 
ATOM     31  C   UNL     1      -2.027   3.087 126.466  0.00  0.00    +0.000 C 
ENDBRANCH  26  28
BRANCH  24  32
ATOM     32  C   UNL     1      -3.000   6.093 131.241  0.00  0.00    +0.000 C 
ATOM     33  C   UNL     1      -3.762   7.308 130.672  0.00  0.00    +0.000 C 
ATOM     34  C   UNL     1      -3.273   5.935 132.749  0.00  0.00    +0.000 C 
ATOM     35  C   UNL     1      -1.509   6.462 131.130  0.00  0.00    +0.000 C 
ENDBRANCH  24  32
BRANCH  25  36
ATOM     36  O   UNL     1      -2.481   5.322 128.331  0.00  0.00    +0.000 OA
ATOM     37  H   UNL     1      -1.693   4.976 127.922  0.00  0.00    +0.000 HD
ENDBRANCH  25  36
ENDBRANCH  21  22
ENDBRANCH   2  21
TORSDOF 10
ENDMDL
