MODEL 1
REMARK VINA RESULT:      -6.5      0.000      0.000
REMARK  Name = Probenecid
REMARK  10 active torsions:
REMARK  status: ('A' for Active; 'I' for Inactive)
REMARK    1  A    between atoms: C_1  and  C_2
REMARK    2  A    between atoms: C_2  and  C_3
REMARK    3  A    between atoms: C_3  and  N_4
REMARK    4  A    between atoms: N_4  and  C_5
REMARK    5  A    between atoms: N_4  and  S_8
REMARK    6  A    between atoms: C_5  and  C_6
REMARK    7  A    between atoms: C_6  and  C_7
REMARK    8  A    between atoms: S_8  and  C_11
REMARK    9  A    between atoms: C_14  and  C_17
REMARK   10  A    between atoms: C_17  and  O_18
REMARK                            x       y       z     vdW  Elec       q    Type
REMARK                         _______ _______ _______ _____ _____    ______ ____
ROOT
ATOM      1  S   UNL     1     -10.555   5.039 130.218  0.00  0.00    +0.000 S 
ATOM      2  O   UNL     1      -9.455   5.077 129.272  0.00  0.00    +0.000 OA
ATOM      3  O   UNL     1     -11.592   4.036 130.109  0.00  0.00    +0.000 OA
ENDROOT
BRANCH   1   4
ATOM      4  C   UNL     1     -11.388   6.620 130.124  0.00  0.00    +0.000 A 
ATOM      5  C   UNL     1     -12.332   7.040 131.057  0.00  0.00    +0.000 A 
ATOM      6  C   UNL     1     -12.998   8.257 130.921  0.00  0.00    +0.000 A 
ATOM      7  C   UNL     1     -12.726   9.097 129.846  0.00  0.00    +0.000 A 
ATOM      8  C   UNL     1     -11.811   8.658 128.870  0.00  0.00    +0.000 A 
ATOM      9  C   UNL     1     -11.137   7.431 129.010  0.00  0.00    +0.000 A 
BRANCH   7  10
ATOM     10  C   UNL     1     -13.351  10.449 129.702  0.00  0.00    +0.000 C 
ATOM     11  O   UNL     1     -13.404  11.232 130.625  0.00  0.00    +0.000 OA
BRANCH  10  12
ATOM     12  O   UNL     1     -13.887  10.743 128.493  0.00  0.00    +0.000 OA
ATOM     13  H   UNL     1     -14.795  11.077 128.436  0.00  0.00    +0.000 HD
ENDBRANCH  10  12
ENDBRANCH   7  10
ENDBRANCH   1   4
BRANCH   1  14
ATOM     14  N   UNL     1      -9.825   4.873 131.826  0.00  0.00    +0.000 NA
BRANCH  14  15
ATOM     15  C   UNL     1      -8.846   3.694 131.765  0.00  0.00    +0.000 C 
BRANCH  15  17
ATOM     16  C   UNL     1      -7.579   2.719 133.775  0.00  0.00    +0.000 C 
ATOM     17  C   UNL     1      -8.867   2.810 133.006  0.00  0.00    +0.000 C 
ENDBRANCH  15  17
ENDBRANCH  14  15
BRANCH  14  18
ATOM     18  C   UNL     1      -9.132   6.141 132.265  0.00  0.00    +0.000 C 
BRANCH  18  19
ATOM     19  C   UNL     1      -7.616   6.092 132.112  0.00  0.00    +0.000 C 
ATOM     20  C   UNL     1      -7.092   6.997 131.036  0.00  0.00    +0.000 C 
ENDBRANCH  18  19
ENDBRANCH  14  18
ENDBRANCH   1  14
TORSDOF 8
ENDMDL
MODEL 2
REMARK VINA RESULT:      -6.4      9.309     10.752
REMARK  Name = Probenecid
REMARK  10 active torsions:
REMARK  status: ('A' for Active; 'I' for Inactive)
REMARK    1  A    between atoms: C_1  and  C_2
REMARK    2  A    between atoms: C_2  and  C_3
REMARK    3  A    between atoms: C_3  and  N_4
REMARK    4  A    between atoms: N_4  and  C_5
REMARK    5  A    between atoms: N_4  and  S_8
REMARK    6  A    between atoms: C_5  and  C_6
REMARK    7  A    between atoms: C_6  and  C_7
REMARK    8  A    between atoms: S_8  and  C_11
REMARK    9  A    between atoms: C_14  and  C_17
REMARK   10  A    between atoms: C_17  and  O_18
REMARK                            x       y       z     vdW  Elec       q    Type
REMARK                         _______ _______ _______ _____ _____    ______ ____
ROOT
ATOM      1  S   UNL     1      -9.060   1.775 123.181  0.00  0.00    +0.000 S 
ATOM      2  O   UNL     1     -10.167   1.312 122.364  0.00  0.00    +0.000 OA
ATOM      3  O   UNL     1      -9.298   2.517 124.400  0.00  0.00    +0.000 OA
ENDROOT
BRANCH   1   4
ATOM      4  C   UNL     1      -8.050   2.834 122.151  0.00  0.00    +0.000 A 
ATOM      5  C   UNL     1      -8.514   3.420 120.976  0.00  0.00    +0.000 A 
ATOM      6  C   UNL     1      -7.681   4.198 120.173  0.00  0.00    +0.000 A 
ATOM      7  C   UNL     1      -6.356   4.421 120.534  0.00  0.00    +0.000 A 
ATOM      8  C   UNL     1      -5.864   3.791 121.693  0.00  0.00    +0.000 A 
ATOM      9  C   UNL     1      -6.707   3.009 122.504  0.00  0.00    +0.000 A 
BRANCH   7  10
ATOM     10  C   UNL     1      -5.447   5.317 119.752  0.00  0.00    +0.000 C 
ATOM     11  O   UNL     1      -4.650   6.051 120.293  0.00  0.00    +0.000 OA
BRANCH  10  12
ATOM     12  O   UNL     1      -5.585   5.291 118.404  0.00  0.00    +0.000 OA
ATOM     13  H   UNL     1      -4.897   4.885 117.856  0.00  0.00    +0.000 HD
ENDBRANCH  10  12
ENDBRANCH   7  10
ENDBRANCH   1   4
BRANCH   1  14
ATOM     14  N   UNL     1      -8.121   0.334 123.613  0.00  0.00    +0.000 NA
BRANCH  14  15
ATOM     15  C   UNL     1      -7.981   0.319 125.140  0.00  0.00    +0.000 C 
BRANCH  15  17
ATOM     16  C   UNL     1      -8.302  -1.708 126.684  0.00  0.00    +0.000 C 
ATOM     17  C   UNL     1      -8.938  -0.641 125.837  0.00  0.00    +0.000 C 
ENDBRANCH  15  17
ENDBRANCH  14  15
BRANCH  14  18
ATOM     18  C   UNL     1      -8.769  -0.934 123.108  0.00  0.00    +0.000 C 
BRANCH  18  19
ATOM     19  C   UNL     1      -7.778  -2.060 122.837  0.00  0.00    +0.000 C 
ATOM     20  C   UNL     1      -6.387  -1.579 122.549  0.00  0.00    +0.000 C 
ENDBRANCH  18  19
ENDBRANCH  14  18
ENDBRANCH   1  14
TORSDOF 8
ENDMDL
MODEL 3
REMARK VINA RESULT:      -6.3      0.912      2.244
REMARK  Name = Probenecid
REMARK  10 active torsions:
REMARK  status: ('A' for Active; 'I' for Inactive)
REMARK    1  A    between atoms: C_1  and  C_2
REMARK    2  A    between atoms: C_2  and  C_3
REMARK    3  A    between atoms: C_3  and  N_4
REMARK    4  A    between atoms: N_4  and  C_5
REMARK    5  A    between atoms: N_4  and  S_8
REMARK    6  A    between atoms: C_5  and  C_6
REMARK    7  A    between atoms: C_6  and  C_7
REMARK    8  A    between atoms: S_8  and  C_11
REMARK    9  A    between atoms: C_14  and  C_17
REMARK   10  A    between atoms: C_17  and  O_18
REMARK                            x       y       z     vdW  Elec       q    Type
REMARK                         _______ _______ _______ _____ _____    ______ ____
ROOT
ATOM      1  S   UNL     1      -9.916   4.896 130.026  0.00  0.00    +0.000 S 
ATOM      2  O   UNL     1      -8.996   4.941 128.904  0.00  0.00    +0.000 OA
ATOM      3  O   UNL     1     -10.835   3.790 130.188  0.00  0.00    +0.000 OA
ENDROOT
BRANCH   1   4
ATOM      4  C   UNL     1     -10.929   6.368 129.938  0.00  0.00    +0.000 A 
ATOM      5  C   UNL     1     -12.023   6.589 130.769  0.00  0.00    +0.000 A 
ATOM      6  C   UNL     1     -12.821   7.725 130.636  0.00  0.00    +0.000 A 
ATOM      7  C   UNL     1     -12.534   8.682 129.667  0.00  0.00    +0.000 A 
ATOM      8  C   UNL     1     -11.462   8.442 128.788  0.00  0.00    +0.000 A 
ATOM      9  C   UNL     1     -10.656   7.296 128.926  0.00  0.00    +0.000 A 
BRANCH   7  10
ATOM     10  C   UNL     1     -13.308   9.957 129.540  0.00  0.00    +0.000 C 
ATOM     11  O   UNL     1     -13.887  10.255 128.519  0.00  0.00    +0.000 OA
BRANCH  10  12
ATOM     12  O   UNL     1     -13.299  10.780 130.616  0.00  0.00    +0.000 OA
ATOM     13  H   UNL     1     -14.135  11.125 130.966  0.00  0.00    +0.000 HD
ENDBRANCH  10  12
ENDBRANCH   7  10
ENDBRANCH   1   4
BRANCH   1  14
ATOM     14  N   UNL     1      -8.919   4.975 131.491  0.00  0.00    +0.000 NA
BRANCH  14  15
ATOM     15  C   UNL     1      -8.496   6.437 131.679  0.00  0.00    +0.000 C 
BRANCH  15  17
ATOM     16  C   UNL     1      -6.004   6.190 132.254  0.00  0.00    +0.000 C 
ATOM     17  C   UNL     1      -7.044   6.712 131.302  0.00  0.00    +0.000 C 
ENDBRANCH  15  17
ENDBRANCH  14  15
BRANCH  14  18
ATOM     18  C   UNL     1      -9.657   4.457 132.704  0.00  0.00    +0.000 C 
BRANCH  18  19
ATOM     19  C   UNL     1      -8.790   3.616 133.633  0.00  0.00    +0.000 C 
ATOM     20  C   UNL     1      -8.165   4.403 134.747  0.00  0.00    +0.000 C 
ENDBRANCH  18  19
ENDBRANCH  14  18
ENDBRANCH   1  14
TORSDOF 8
ENDMDL
MODEL 4
REMARK VINA RESULT:      -6.2      9.118     11.418
REMARK  Name = Probenecid
REMARK  10 active torsions:
REMARK  status: ('A' for Active; 'I' for Inactive)
REMARK    1  A    between atoms: C_1  and  C_2
REMARK    2  A    between atoms: C_2  and  C_3
REMARK    3  A    between atoms: C_3  and  N_4
REMARK    4  A    between atoms: N_4  and  C_5
REMARK    5  A    between atoms: N_4  and  S_8
REMARK    6  A    between atoms: C_5  and  C_6
REMARK    7  A    between atoms: C_6  and  C_7
REMARK    8  A    between atoms: S_8  and  C_11
REMARK    9  A    between atoms: C_14  and  C_17
REMARK   10  A    between atoms: C_17  and  O_18
REMARK                            x       y       z     vdW  Elec       q    Type
REMARK                         _______ _______ _______ _____ _____    ______ ____
ROOT
ATOM      1  S   UNL     1      -8.090   2.856 123.069  0.00  0.00    +0.000 S 
ATOM      2  O   UNL     1      -8.554   3.526 124.270  0.00  0.00    +0.000 OA
ATOM      3  O   UNL     1      -8.671   3.159 121.779  0.00  0.00    +0.000 OA
ENDROOT
BRANCH   1   4
ATOM      4  C   UNL     1      -8.331   1.101 123.317  0.00  0.00    +0.000 A 
ATOM      5  C   UNL     1      -7.347   0.263 123.833  0.00  0.00    +0.000 A 
ATOM      6  C   UNL     1      -7.554  -1.111 123.963  0.00  0.00    +0.000 A 
ATOM      7  C   UNL     1      -8.766  -1.682 123.588  0.00  0.00    +0.000 A 
ATOM      8  C   UNL     1      -9.748  -0.851 123.017  0.00  0.00    +0.000 A 
ATOM      9  C   UNL     1      -9.538   0.535 122.889  0.00  0.00    +0.000 A 
BRANCH   7  10
ATOM     10  C   UNL     1      -9.068  -3.134 123.786  0.00  0.00    +0.000 C 
ATOM     11  O   UNL     1      -8.274  -3.887 124.305  0.00  0.00    +0.000 OA
BRANCH  10  12
ATOM     12  O   UNL     1     -10.263  -3.573 123.325  0.00  0.00    +0.000 OA
ATOM     13  H   UNL     1     -10.315  -4.019 122.466  0.00  0.00    +0.000 HD
ENDBRANCH  10  12
ENDBRANCH   7  10
ENDBRANCH   1   4
BRANCH   1  14
ATOM     14  N   UNL     1      -6.350   3.184 122.955  0.00  0.00    +0.000 NA
BRANCH  14  15
ATOM     15  C   UNL     1      -6.011   3.346 121.468  0.00  0.00    +0.000 C 
BRANCH  15  17
ATOM     16  C   UNL     1      -5.302   5.228 119.870  0.00  0.00    +0.000 C 
ATOM     17  C   UNL     1      -5.076   4.513 121.173  0.00  0.00    +0.000 C 
ENDBRANCH  15  17
ENDBRANCH  14  15
BRANCH  14  18
ATOM     18  C   UNL     1      -5.954   4.409 123.746  0.00  0.00    +0.000 C 
BRANCH  18  19
ATOM     19  C   UNL     1      -5.068   4.100 124.947  0.00  0.00    +0.000 C 
ATOM     20  C   UNL     1      -5.339   2.760 125.564  0.00  0.00    +0.000 C 
ENDBRANCH  18  19
ENDBRANCH  14  18
ENDBRANCH   1  14
TORSDOF 8
ENDMDL
MODEL 5
REMARK VINA RESULT:      -6.1      9.307     10.756
REMARK  Name = Probenecid
REMARK  10 active torsions:
REMARK  status: ('A' for Active; 'I' for Inactive)
REMARK    1  A    between atoms: C_1  and  C_2
REMARK    2  A    between atoms: C_2  and  C_3
REMARK    3  A    between atoms: C_3  and  N_4
REMARK    4  A    between atoms: N_4  and  C_5
REMARK    5  A    between atoms: N_4  and  S_8
REMARK    6  A    between atoms: C_5  and  C_6
REMARK    7  A    between atoms: C_6  and  C_7
REMARK    8  A    between atoms: S_8  and  C_11
REMARK    9  A    between atoms: C_14  and  C_17
REMARK   10  A    between atoms: C_17  and  O_18
REMARK                            x       y       z     vdW  Elec       q    Type
REMARK                         _______ _______ _______ _____ _____    ______ ____
ROOT
ATOM      1  S   UNL     1      -7.067   1.478 124.888  0.00  0.00    +0.000 S 
ATOM      2  O   UNL     1      -8.365   1.971 125.310  0.00  0.00    +0.000 OA
ATOM      3  O   UNL     1      -5.976   1.363 125.832  0.00  0.00    +0.000 OA
ENDROOT
BRANCH   1   4
ATOM      4  C   UNL     1      -6.484   2.567 123.593  0.00  0.00    +0.000 A 
ATOM      5  C   UNL     1      -6.656   2.299 122.239  0.00  0.00    +0.000 A 
ATOM      6  C   UNL     1      -6.141   3.146 121.257  0.00  0.00    +0.000 A 
ATOM      7  C   UNL     1      -5.446   4.298 121.611  0.00  0.00    +0.000 A 
ATOM      8  C   UNL     1      -5.222   4.551 122.977  0.00  0.00    +0.000 A 
ATOM      9  C   UNL     1      -5.745   3.697 123.966  0.00  0.00    +0.000 A 
BRANCH   7  10
ATOM     10  C   UNL     1      -4.950   5.282 120.598  0.00  0.00    +0.000 C 
ATOM     11  O   UNL     1      -5.287   5.230 119.436  0.00  0.00    +0.000 OA
BRANCH  10  12
ATOM     12  O   UNL     1      -4.073   6.215 121.040  0.00  0.00    +0.000 OA
ATOM     13  H   UNL     1      -3.485   6.661 120.411  0.00  0.00    +0.000 HD
ENDBRANCH  10  12
ENDBRANCH   7  10
ENDBRANCH   1   4
BRANCH   1  14
ATOM     14  N   UNL     1      -7.343  -0.133 124.199  0.00  0.00    +0.000 NA
BRANCH  14  15
ATOM     15  C   UNL     1      -6.459  -1.119 124.973  0.00  0.00    +0.000 C 
BRANCH  15  17
ATOM     16  C   UNL     1      -5.982  -2.016 122.613  0.00  0.00    +0.000 C 
ATOM     17  C   UNL     1      -5.818  -2.190 124.097  0.00  0.00    +0.000 C 
ENDBRANCH  15  17
ENDBRANCH  14  15
BRANCH  14  18
ATOM     18  C   UNL     1      -8.799  -0.532 124.264  0.00  0.00    +0.000 C 
BRANCH  18  19
ATOM     19  C   UNL     1      -9.471  -0.614 122.899  0.00  0.00    +0.000 C 
ATOM     20  C   UNL     1     -10.174   0.650 122.499  0.00  0.00    +0.000 C 
ENDBRANCH  18  19
ENDBRANCH  14  18
ENDBRANCH   1  14
TORSDOF 8
ENDMDL
MODEL 6
REMARK VINA RESULT:      -6.1      9.347     10.672
REMARK  Name = Probenecid
REMARK  10 active torsions:
REMARK  status: ('A' for Active; 'I' for Inactive)
REMARK    1  A    between atoms: C_1  and  C_2
REMARK    2  A    between atoms: C_2  and  C_3
REMARK    3  A    between atoms: C_3  and  N_4
REMARK    4  A    between atoms: N_4  and  C_5
REMARK    5  A    between atoms: N_4  and  S_8
REMARK    6  A    between atoms: C_5  and  C_6
REMARK    7  A    between atoms: C_6  and  C_7
REMARK    8  A    between atoms: S_8  and  C_11
REMARK    9  A    between atoms: C_14  and  C_17
REMARK   10  A    between atoms: C_17  and  O_18
REMARK                            x       y       z     vdW  Elec       q    Type
REMARK                         _______ _______ _______ _____ _____    ______ ____
ROOT
ATOM      1  S   UNL     1      -8.143   1.725 124.768  0.00  0.00    +0.000 S 
ATOM      2  O   UNL     1      -9.534   1.994 125.081  0.00  0.00    +0.000 OA
ATOM      3  O   UNL     1      -7.090   2.100 125.687  0.00  0.00    +0.000 OA
ENDROOT
BRANCH   1   4
ATOM      4  C   UNL     1      -7.775   2.567 123.232  0.00  0.00    +0.000 A 
ATOM      5  C   UNL     1      -8.747   2.895 122.292  0.00  0.00    +0.000 A 
ATOM      6  C   UNL     1      -8.415   3.505 121.082  0.00  0.00    +0.000 A 
ATOM      7  C   UNL     1      -7.091   3.815 120.787  0.00  0.00    +0.000 A 
ATOM      8  C   UNL     1      -6.095   3.441 121.708  0.00  0.00    +0.000 A 
ATOM      9  C   UNL     1      -6.433   2.829 122.929  0.00  0.00    +0.000 A 
BRANCH   7  10
ATOM     10  C   UNL     1      -6.694   4.545 119.542  0.00  0.00    +0.000 C 
ATOM     11  O   UNL     1      -5.663   5.178 119.473  0.00  0.00    +0.000 OA
BRANCH  10  12
ATOM     12  O   UNL     1      -7.563   4.491 118.505  0.00  0.00    +0.000 OA
ATOM     13  H   UNL     1      -8.067   3.680 118.339  0.00  0.00    +0.000 HD
ENDBRANCH  10  12
ENDBRANCH   7  10
ENDBRANCH   1   4
BRANCH   1  14
ATOM     14  N   UNL     1      -8.018  -0.024 124.505  0.00  0.00    +0.000 NA
BRANCH  14  15
ATOM     15  C   UNL     1      -9.154  -0.427 123.555  0.00  0.00    +0.000 C 
BRANCH  15  17
ATOM     16  C   UNL     1      -9.313  -2.988 123.445  0.00  0.00    +0.000 C 
ATOM     17  C   UNL     1      -8.883  -1.711 122.780  0.00  0.00    +0.000 C 
ENDBRANCH  15  17
ENDBRANCH  14  15
BRANCH  14  18
ATOM     18  C   UNL     1      -6.670  -0.416 123.946  0.00  0.00    +0.000 C 
BRANCH  18  19
ATOM     19  C   UNL     1      -5.925  -1.431 124.805  0.00  0.00    +0.000 C 
ATOM     20  C   UNL     1      -5.281  -2.530 124.012  0.00  0.00    +0.000 C 
ENDBRANCH  18  19
ENDBRANCH  14  18
ENDBRANCH   1  14
TORSDOF 8
ENDMDL
MODEL 7
REMARK VINA RESULT:      -6.1      8.749     10.200
REMARK  Name = Probenecid
REMARK  10 active torsions:
REMARK  status: ('A' for Active; 'I' for Inactive)
REMARK    1  A    between atoms: C_1  and  C_2
REMARK    2  A    between atoms: C_2  and  C_3
REMARK    3  A    between atoms: C_3  and  N_4
REMARK    4  A    between atoms: N_4  and  C_5
REMARK    5  A    between atoms: N_4  and  S_8
REMARK    6  A    between atoms: C_5  and  C_6
REMARK    7  A    between atoms: C_6  and  C_7
REMARK    8  A    between atoms: S_8  and  C_11
REMARK    9  A    between atoms: C_14  and  C_17
REMARK   10  A    between atoms: C_17  and  O_18
REMARK                            x       y       z     vdW  Elec       q    Type
REMARK                         _______ _______ _______ _____ _____    ______ ____
ROOT
ATOM      1  S   UNL     1      -8.372  -1.763 123.609  0.00  0.00    +0.000 S 
ATOM      2  O   UNL     1      -7.782  -1.946 122.296  0.00  0.00    +0.000 OA
ATOM      3  O   UNL     1      -9.763  -2.085 123.848  0.00  0.00    +0.000 OA
ENDROOT
BRANCH   1   4
ATOM      4  C   UNL     1      -8.189  -0.035 124.034  0.00  0.00    +0.000 A 
ATOM      5  C   UNL     1      -7.003   0.507 124.521  0.00  0.00    +0.000 A 
ATOM      6  C   UNL     1      -6.913   1.849 124.891  0.00  0.00    +0.000 A 
ATOM      7  C   UNL     1      -8.014   2.692 124.770  0.00  0.00    +0.000 A 
ATOM      8  C   UNL     1      -9.231   2.141 124.327  0.00  0.00    +0.000 A 
ATOM      9  C   UNL     1      -9.319   0.788 123.952  0.00  0.00    +0.000 A 
BRANCH   7  10
ATOM     10  C   UNL     1      -7.945   4.155 125.072  0.00  0.00    +0.000 C 
ATOM     11  O   UNL     1      -8.807   4.719 125.710  0.00  0.00    +0.000 OA
BRANCH  10  12
ATOM     12  O   UNL     1      -6.884   4.829 124.566  0.00  0.00    +0.000 OA
ATOM     13  H   UNL     1      -6.494   4.551 123.723  0.00  0.00    +0.000 HD
ENDBRANCH  10  12
ENDBRANCH   7  10
ENDBRANCH   1   4
BRANCH   1  14
ATOM     14  N   UNL     1      -7.403  -2.734 124.733  0.00  0.00    +0.000 NA
BRANCH  14  15
ATOM     15  C   UNL     1      -8.378  -3.455 125.673  0.00  0.00    +0.000 C 
BRANCH  15  17
ATOM     16  C   UNL     1      -8.778  -3.765 128.191  0.00  0.00    +0.000 C 
ATOM     17  C   UNL     1      -8.478  -2.825 127.057  0.00  0.00    +0.000 C 
ENDBRANCH  15  17
ENDBRANCH  14  15
BRANCH  14  18
ATOM     18  C   UNL     1      -6.513  -3.716 124.007  0.00  0.00    +0.000 C 
BRANCH  18  19
ATOM     19  C   UNL     1      -5.035  -3.346 124.049  0.00  0.00    +0.000 C 
ATOM     20  C   UNL     1      -4.123  -4.474 123.666  0.00  0.00    +0.000 C 
ENDBRANCH  18  19
ENDBRANCH  14  18
ENDBRANCH   1  14
TORSDOF 8
ENDMDL
MODEL 8
REMARK VINA RESULT:      -6.0      9.944     11.933
REMARK  Name = Probenecid
REMARK  10 active torsions:
REMARK  status: ('A' for Active; 'I' for Inactive)
REMARK    1  A    between atoms: C_1  and  C_2
REMARK    2  A    between atoms: C_2  and  C_3
REMARK    3  A    between atoms: C_3  and  N_4
REMARK    4  A    between atoms: N_4  and  C_5
REMARK    5  A    between atoms: N_4  and  S_8
REMARK    6  A    between atoms: C_5  and  C_6
REMARK    7  A    between atoms: C_6  and  C_7
REMARK    8  A    between atoms: S_8  and  C_11
REMARK    9  A    between atoms: C_14  and  C_17
REMARK   10  A    between atoms: C_17  and  O_18
REMARK                            x       y       z     vdW  Elec       q    Type
REMARK                         _______ _______ _______ _____ _____    ______ ____
ROOT
ATOM      1  S   UNL     1      -8.351  -2.348 124.759  0.00  0.00    +0.000 S 
ATOM      2  O   UNL     1      -9.502  -1.465 124.766  0.00  0.00    +0.000 OA
ATOM      3  O   UNL     1      -8.392  -3.613 124.056  0.00  0.00    +0.000 OA
ENDROOT
BRANCH   1   4
ATOM      4  C   UNL     1      -7.979  -2.746 126.463  0.00  0.00    +0.000 A 
ATOM      5  C   UNL     1      -8.835  -3.482 127.277  0.00  0.00    +0.000 A 
ATOM      6  C   UNL     1      -8.533  -3.728 128.617  0.00  0.00    +0.000 A 
ATOM      7  C   UNL     1      -7.352  -3.249 129.176  0.00  0.00    +0.000 A 
ATOM      8  C   UNL     1      -6.506  -2.460 128.375  0.00  0.00    +0.000 A 
ATOM      9  C   UNL     1      -6.810  -2.216 127.023  0.00  0.00    +0.000 A 
BRANCH   7  10
ATOM     10  C   UNL     1      -6.944  -3.558 130.582  0.00  0.00    +0.000 C 
ATOM     11  O   UNL     1      -7.451  -3.003 131.532  0.00  0.00    +0.000 OA
BRANCH  10  12
ATOM     12  O   UNL     1      -5.951  -4.466 130.739  0.00  0.00    +0.000 OA
ATOM     13  H   UNL     1      -5.759  -5.098 130.029  0.00  0.00    +0.000 HD
ENDBRANCH  10  12
ENDBRANCH   7  10
ENDBRANCH   1   4
BRANCH   1  14
ATOM     14  N   UNL     1      -7.006  -1.411 124.084  0.00  0.00    +0.000 NA
BRANCH  14  15
ATOM     15  C   UNL     1      -6.171  -2.364 123.219  0.00  0.00    +0.000 C 
BRANCH  15  17
ATOM     16  C   UNL     1      -4.581  -4.332 123.665  0.00  0.00    +0.000 C 
ATOM     17  C   UNL     1      -4.919  -2.889 123.913  0.00  0.00    +0.000 C 
ENDBRANCH  15  17
ENDBRANCH  14  15
BRANCH  14  18
ATOM     18  C   UNL     1      -7.490  -0.225 123.282  0.00  0.00    +0.000 C 
BRANCH  18  19
ATOM     19  C   UNL     1      -7.063   1.119 123.860  0.00  0.00    +0.000 C 
ATOM     20  C   UNL     1      -6.400   1.012 125.201  0.00  0.00    +0.000 C 
ENDBRANCH  18  19
ENDBRANCH  14  18
ENDBRANCH   1  14
TORSDOF 8
ENDMDL
MODEL 9
REMARK VINA RESULT:      -5.9      2.097      2.811
REMARK  Name = Probenecid
REMARK  10 active torsions:
REMARK  status: ('A' for Active; 'I' for Inactive)
REMARK    1  A    between atoms: C_1  and  C_2
REMARK    2  A    between atoms: C_2  and  C_3
REMARK    3  A    between atoms: C_3  and  N_4
REMARK    4  A    between atoms: N_4  and  C_5
REMARK    5  A    between atoms: N_4  and  S_8
REMARK    6  A    between atoms: C_5  and  C_6
REMARK    7  A    between atoms: C_6  and  C_7
REMARK    8  A    between atoms: S_8  and  C_11
REMARK    9  A    between atoms: C_14  and  C_17
REMARK   10  A    between atoms: C_17  and  O_18
REMARK                            x       y       z     vdW  Elec       q    Type
REMARK                         _______ _______ _______ _____ _____    ______ ____
ROOT
ATOM      1  S   UNL     1      -8.758   6.082 131.878  0.00  0.00    +0.000 S 
ATOM      2  O   UNL     1      -9.142   6.125 133.277  0.00  0.00    +0.000 OA
ATOM      3  O   UNL     1      -7.539   6.714 131.424  0.00  0.00    +0.000 OA
ENDROOT
BRANCH   1   4
ATOM      4  C   UNL     1     -10.083   6.840 130.944  0.00  0.00    +0.000 A 
ATOM      5  C   UNL     1     -11.425   6.717 131.290  0.00  0.00    +0.000 A 
ATOM      6  C   UNL     1     -12.433   7.279 130.507  0.00  0.00    +0.000 A 
ATOM      7  C   UNL     1     -12.119   7.995 129.356  0.00  0.00    +0.000 A 
ATOM      8  C   UNL     1     -10.768   8.081 128.970  0.00  0.00    +0.000 A 
ATOM      9  C   UNL     1      -9.752   7.516 129.763  0.00  0.00    +0.000 A 
BRANCH   7  10
ATOM     10  C   UNL     1     -13.157   8.689 128.530  0.00  0.00    +0.000 C 
ATOM     11  O   UNL     1     -13.887   8.082 127.778  0.00  0.00    +0.000 OA
BRANCH  10  12
ATOM     12  O   UNL     1     -13.216  10.038 128.640  0.00  0.00    +0.000 OA
ATOM     13  H   UNL     1     -13.268  10.449 129.517  0.00  0.00    +0.000 HD
ENDBRANCH  10  12
ENDBRANCH   7  10
ENDBRANCH   1   4
BRANCH   1  14
ATOM     14  N   UNL     1      -8.659   4.366 131.440  0.00  0.00    +0.000 NA
BRANCH  14  15
ATOM     15  C   UNL     1      -9.341   3.567 132.559  0.00  0.00    +0.000 C 
BRANCH  15  17
ATOM     16  C   UNL     1      -9.131   1.048 132.105  0.00  0.00    +0.000 C 
ATOM     17  C   UNL     1      -8.654   2.245 132.879  0.00  0.00    +0.000 C 
ENDBRANCH  15  17
ENDBRANCH  14  15
BRANCH  14  18
ATOM     18  C   UNL     1      -9.298   4.088 130.099  0.00  0.00    +0.000 C 
BRANCH  18  19
ATOM     19  C   UNL     1      -8.302   3.675 129.022  0.00  0.00    +0.000 C 
ATOM     20  C   UNL     1      -8.424   2.237 128.612  0.00  0.00    +0.000 C 
ENDBRANCH  18  19
ENDBRANCH  14  18
ENDBRANCH   1  14
TORSDOF 8
ENDMDL
