MODEL 1
REMARK VINA RESULT:      -7.1      0.000      0.000
REMARK  Name = Prochlorperazine
REMARK  5 active torsions:
REMARK  status: ('A' for Active; 'I' for Inactive)
REMARK    1  A    between atoms: C_1  and  N_2
REMARK    2  A    between atoms: N_5  and  C_6
REMARK    3  A    between atoms: C_6  and  C_7
REMARK    4  A    between atoms: C_7  and  C_8
REMARK    5  A    between atoms: C_8  and  N_9
REMARK                            x       y       z     vdW  Elec       q    Type
REMARK                         _______ _______ _______ _____ _____    ______ ____
ROOT
ATOM      1  N   UNL     1      -6.480  -1.570 126.373  0.00  0.00    +0.000 N 
ATOM      2  C   UNL     1      -7.245  -2.029 125.251  0.00  0.00    +0.000 A 
ATOM      3  C   UNL     1      -6.956  -1.654 123.918  0.00  0.00    +0.000 A 
ATOM      4  C   UNL     1      -7.772  -1.977 122.833  0.00  0.00    +0.000 A 
ATOM      5  C   UNL     1      -8.871  -2.797 123.028  0.00  0.00    +0.000 A 
ATOM      6  C   UNL     1      -9.143  -3.259 124.305  0.00  0.00    +0.000 A 
ATOM      7  C   UNL     1      -8.361  -2.875 125.410  0.00  0.00    +0.000 A 
ATOM      8  S   UNL     1      -8.888  -3.541 126.958  0.00  0.00    +0.000 S 
ATOM      9  C   UNL     1      -7.730  -2.830 128.093  0.00  0.00    +0.000 A 
ATOM     10  C   UNL     1      -6.700  -1.933 127.731  0.00  0.00    +0.000 A 
ATOM     11  C   UNL     1      -5.907  -1.456 128.799  0.00  0.00    +0.000 A 
ATOM     12  C   UNL     1      -6.099  -1.864 130.120  0.00  0.00    +0.000 A 
ATOM     13 CL   UNL     1      -5.069  -1.258 131.360  0.00  0.00    +0.000 Cl
ATOM     14  C   UNL     1      -7.104  -2.760 130.443  0.00  0.00    +0.000 A 
ATOM     15  C   UNL     1      -7.919  -3.234 129.427  0.00  0.00    +0.000 A 
ENDROOT
BRANCH   1  16
ATOM     16  C   UNL     1      -5.409  -0.595 126.073  0.00  0.00    +0.000 C 
BRANCH  16  17
ATOM     17  C   UNL     1      -5.823   0.820 126.465  0.00  0.00    +0.000 C 
BRANCH  17  18
ATOM     18  C   UNL     1      -6.229   1.604 125.226  0.00  0.00    +0.000 C 
BRANCH  18  23
ATOM     19  C   UNL     1     -10.361   0.936 122.747  0.00  0.00    +0.000 C 
ATOM     20  N   UNL     1      -9.653   1.705 123.755  0.00  0.00    +0.000 NA
ATOM     21  C   UNL     1      -8.468   2.381 123.195  0.00  0.00    +0.000 C 
ATOM     22  C   UNL     1      -7.733   3.224 124.269  0.00  0.00    +0.000 C 
ATOM     23  N   UNL     1      -7.376   2.478 125.498  0.00  0.00    +0.000 NA
ATOM     24  C   UNL     1      -8.579   1.739 125.965  0.00  0.00    +0.000 C 
ATOM     25  C   UNL     1      -9.238   0.861 124.884  0.00  0.00    +0.000 C 
ENDBRANCH  18  23
ENDBRANCH  17  18
ENDBRANCH  16  17
ENDBRANCH   1  16
TORSDOF 4
ENDMDL
MODEL 2
REMARK VINA RESULT:      -7.0      1.372      1.899
REMARK  Name = Prochlorperazine
REMARK  5 active torsions:
REMARK  status: ('A' for Active; 'I' for Inactive)
REMARK    1  A    between atoms: C_1  and  N_2
REMARK    2  A    between atoms: N_5  and  C_6
REMARK    3  A    between atoms: C_6  and  C_7
REMARK    4  A    between atoms: C_7  and  C_8
REMARK    5  A    between atoms: C_8  and  N_9
REMARK                            x       y       z     vdW  Elec       q    Type
REMARK                         _______ _______ _______ _____ _____    ______ ____
ROOT
ATOM      1  N   UNL     1      -6.632  -1.282 126.502  0.00  0.00    +0.000 N 
ATOM      2  C   UNL     1      -7.248  -1.724 125.286  0.00  0.00    +0.000 A 
ATOM      3  C   UNL     1      -6.874  -1.235 124.012  0.00  0.00    +0.000 A 
ATOM      4  C   UNL     1      -7.557  -1.549 122.836  0.00  0.00    +0.000 A 
ATOM      5  C   UNL     1      -8.590  -2.470 122.873  0.00  0.00    +0.000 A 
ATOM      6  C   UNL     1      -8.935  -3.041 124.088  0.00  0.00    +0.000 A 
ATOM      7  C   UNL     1      -8.293  -2.669 125.284  0.00  0.00    +0.000 A 
ATOM      8  S   UNL     1      -8.896  -3.483 126.731  0.00  0.00    +0.000 S 
ATOM      9  C   UNL     1      -7.914  -2.759 128.014  0.00  0.00    +0.000 A 
ATOM     10  C   UNL     1      -6.940  -1.755 127.808  0.00  0.00    +0.000 A 
ATOM     11  C   UNL     1      -6.294  -1.288 128.974  0.00  0.00    +0.000 A 
ATOM     12  C   UNL     1      -6.567  -1.801 130.244  0.00  0.00    +0.000 A 
ATOM     13 CL   UNL     1      -5.713  -1.199 131.611  0.00  0.00    +0.000 Cl
ATOM     14  C   UNL     1      -7.512  -2.799 130.412  0.00  0.00    +0.000 A 
ATOM     15  C   UNL     1      -8.186  -3.268 129.296  0.00  0.00    +0.000 A 
ENDROOT
BRANCH   1  16
ATOM     16  C   UNL     1      -5.631  -0.202 126.367  0.00  0.00    +0.000 C 
BRANCH  16  17
ATOM     17  C   UNL     1      -6.261   1.170 126.589  0.00  0.00    +0.000 C 
BRANCH  17  18
ATOM     18  C   UNL     1      -5.741   2.154 125.552  0.00  0.00    +0.000 C 
BRANCH  18  23
ATOM     19  C   UNL     1      -5.679   3.721 120.948  0.00  0.00    +0.000 C 
ATOM     20  N   UNL     1      -6.348   3.745 122.237  0.00  0.00    +0.000 NA
ATOM     21  C   UNL     1      -5.479   4.292 123.294  0.00  0.00    +0.000 C 
ATOM     22  C   UNL     1      -6.208   4.343 124.661  0.00  0.00    +0.000 C 
ATOM     23  N   UNL     1      -6.802   3.055 125.089  0.00  0.00    +0.000 NA
ATOM     24  C   UNL     1      -7.588   2.500 123.955  0.00  0.00    +0.000 C 
ATOM     25  C   UNL     1      -6.802   2.405 122.632  0.00  0.00    +0.000 C 
ENDBRANCH  18  23
ENDBRANCH  17  18
ENDBRANCH  16  17
ENDBRANCH   1  16
TORSDOF 4
ENDMDL
MODEL 3
REMARK VINA RESULT:      -7.0      2.618      4.244
REMARK  Name = Prochlorperazine
REMARK  5 active torsions:
REMARK  status: ('A' for Active; 'I' for Inactive)
REMARK    1  A    between atoms: C_1  and  N_2
REMARK    2  A    between atoms: N_5  and  C_6
REMARK    3  A    between atoms: C_6  and  C_7
REMARK    4  A    between atoms: C_7  and  C_8
REMARK    5  A    between atoms: C_8  and  N_9
REMARK                            x       y       z     vdW  Elec       q    Type
REMARK                         _______ _______ _______ _____ _____    ______ ____
ROOT
ATOM      1  N   UNL     1      -6.464  -0.552 126.524  0.00  0.00    +0.000 N 
ATOM      2  C   UNL     1      -7.166  -1.654 127.115  0.00  0.00    +0.000 A 
ATOM      3  C   UNL     1      -7.915  -2.584 126.356  0.00  0.00    +0.000 A 
ATOM      4  C   UNL     1      -8.716  -3.575 126.927  0.00  0.00    +0.000 A 
ATOM      5  C   UNL     1      -8.712  -3.747 128.301  0.00  0.00    +0.000 A 
ATOM      6  C   UNL     1      -7.925  -2.912 129.078  0.00  0.00    +0.000 A 
ATOM      7  C   UNL     1      -7.174  -1.868 128.508  0.00  0.00    +0.000 A 
ATOM      8  S   UNL     1      -6.264  -0.893 129.665  0.00  0.00    +0.000 S 
ATOM      9  C   UNL     1      -5.494   0.315 128.625  0.00  0.00    +0.000 A 
ATOM     10  C   UNL     1      -5.672   0.398 127.225  0.00  0.00    +0.000 A 
ATOM     11  C   UNL     1      -4.993   1.462 126.590  0.00  0.00    +0.000 A 
ATOM     12  C   UNL     1      -4.174   2.355 127.283  0.00  0.00    +0.000 A 
ATOM     13 CL   UNL     1      -3.357   3.606 126.428  0.00  0.00    +0.000 Cl
ATOM     14  C   UNL     1      -4.003   2.237 128.652  0.00  0.00    +0.000 A 
ATOM     15  C   UNL     1      -4.670   1.220 129.317  0.00  0.00    +0.000 A 
ENDROOT
BRANCH   1  16
ATOM     16  C   UNL     1      -6.638  -0.379 125.065  0.00  0.00    +0.000 C 
BRANCH  16  17
ATOM     17  C   UNL     1      -7.763   0.603 124.754  0.00  0.00    +0.000 C 
BRANCH  17  18
ATOM     18  C   UNL     1      -7.530   1.243 123.393  0.00  0.00    +0.000 C 
BRANCH  18  23
ATOM     19  C   UNL     1      -4.534   4.736 121.816  0.00  0.00    +0.000 C 
ATOM     20  N   UNL     1      -5.843   4.397 122.345  0.00  0.00    +0.000 NA
ATOM     21  C   UNL     1      -5.752   3.792 123.686  0.00  0.00    +0.000 C 
ATOM     22  C   UNL     1      -7.154   3.461 124.258  0.00  0.00    +0.000 C 
ATOM     23  N   UNL     1      -8.001   2.633 123.367  0.00  0.00    +0.000 NA
ATOM     24  C   UNL     1      -7.980   3.233 122.007  0.00  0.00    +0.000 C 
ATOM     25  C   UNL     1      -6.565   3.483 121.450  0.00  0.00    +0.000 C 
ENDBRANCH  18  23
ENDBRANCH  17  18
ENDBRANCH  16  17
ENDBRANCH   1  16
TORSDOF 4
ENDMDL
MODEL 4
REMARK VINA RESULT:      -7.0      2.352      3.625
REMARK  Name = Prochlorperazine
REMARK  5 active torsions:
REMARK  status: ('A' for Active; 'I' for Inactive)
REMARK    1  A    between atoms: C_1  and  N_2
REMARK    2  A    between atoms: N_5  and  C_6
REMARK    3  A    between atoms: C_6  and  C_7
REMARK    4  A    between atoms: C_7  and  C_8
REMARK    5  A    between atoms: C_8  and  N_9
REMARK                            x       y       z     vdW  Elec       q    Type
REMARK                         _______ _______ _______ _____ _____    ______ ____
ROOT
ATOM      1  N   UNL     1      -6.439  -1.487 126.413  0.00  0.00    +0.000 N 
ATOM      2  C   UNL     1      -7.118  -1.888 125.215  0.00  0.00    +0.000 A 
ATOM      3  C   UNL     1      -6.712  -1.473 123.925  0.00  0.00    +0.000 A 
ATOM      4  C   UNL     1      -7.443  -1.738 122.766  0.00  0.00    +0.000 A 
ATOM      5  C   UNL     1      -8.570  -2.540 122.839  0.00  0.00    +0.000 A 
ATOM      6  C   UNL     1      -8.956  -3.040 124.072  0.00  0.00    +0.000 A 
ATOM      7  C   UNL     1      -8.260  -2.713 125.250  0.00  0.00    +0.000 A 
ATOM      8  S   UNL     1      -8.926  -3.422 126.724  0.00  0.00    +0.000 S 
ATOM      9  C   UNL     1      -7.852  -2.779 127.976  0.00  0.00    +0.000 A 
ATOM     10  C   UNL     1      -6.778  -1.893 127.734  0.00  0.00    +0.000 A 
ATOM     11  C   UNL     1      -6.067  -1.472 128.880  0.00  0.00    +0.000 A 
ATOM     12  C   UNL     1      -6.376  -1.922 130.165  0.00  0.00    +0.000 A 
ATOM     13 CL   UNL     1      -5.440  -1.384 131.507  0.00  0.00    +0.000 Cl
ATOM     14  C   UNL     1      -7.421  -2.806 130.370  0.00  0.00    +0.000 A 
ATOM     15  C   UNL     1      -8.159  -3.225 129.274  0.00  0.00    +0.000 A 
ENDROOT
BRANCH   1  16
ATOM     16  C   UNL     1      -5.329  -0.526 126.238  0.00  0.00    +0.000 C 
BRANCH  16  17
ATOM     17  C   UNL     1      -5.824   0.914 126.320  0.00  0.00    +0.000 C 
BRANCH  17  18
ATOM     18  C   UNL     1      -4.847   1.753 127.130  0.00  0.00    +0.000 C 
BRANCH  18  23
ATOM     19  C   UNL     1      -3.670   6.315 128.342  0.00  0.00    +0.000 C 
ATOM     20  N   UNL     1      -3.523   5.227 127.391  0.00  0.00    +0.000 NA
ATOM     21  C   UNL     1      -4.813   4.855 126.782  0.00  0.00    +0.000 C 
ATOM     22  C   UNL     1      -4.645   3.714 125.745  0.00  0.00    +0.000 C 
ATOM     23  N   UNL     1      -3.944   2.515 126.260  0.00  0.00    +0.000 NA
ATOM     24  C   UNL     1      -2.701   2.955 126.947  0.00  0.00    +0.000 C 
ATOM     25  C   UNL     1      -2.924   4.041 128.017  0.00  0.00    +0.000 C 
ENDBRANCH  18  23
ENDBRANCH  17  18
ENDBRANCH  16  17
ENDBRANCH   1  16
TORSDOF 4
ENDMDL
MODEL 5
REMARK VINA RESULT:      -6.9      2.628      6.362
REMARK  Name = Prochlorperazine
REMARK  5 active torsions:
REMARK  status: ('A' for Active; 'I' for Inactive)
REMARK    1  A    between atoms: C_1  and  N_2
REMARK    2  A    between atoms: N_5  and  C_6
REMARK    3  A    between atoms: C_6  and  C_7
REMARK    4  A    between atoms: C_7  and  C_8
REMARK    5  A    between atoms: C_8  and  N_9
REMARK                            x       y       z     vdW  Elec       q    Type
REMARK                         _______ _______ _______ _____ _____    ______ ____
ROOT
ATOM      1  N   UNL     1      -6.423  -1.033 125.758  0.00  0.00    +0.000 N 
ATOM      2  C   UNL     1      -7.442  -1.708 125.008  0.00  0.00    +0.000 A 
ATOM      3  C   UNL     1      -7.784  -3.064 125.223  0.00  0.00    +0.000 A 
ATOM      4  C   UNL     1      -8.670  -3.772 124.410  0.00  0.00    +0.000 A 
ATOM      5  C   UNL     1      -9.347  -3.109 123.400  0.00  0.00    +0.000 A 
ATOM      6  C   UNL     1      -9.107  -1.758 123.209  0.00  0.00    +0.000 A 
ATOM      7  C   UNL     1      -8.160  -1.061 123.982  0.00  0.00    +0.000 A 
ATOM      8  S   UNL     1      -7.973   0.644 123.565  0.00  0.00    +0.000 S 
ATOM      9  C   UNL     1      -6.706   1.174 124.682  0.00  0.00    +0.000 A 
ATOM     10  C   UNL     1      -6.054   0.333 125.612  0.00  0.00    +0.000 A 
ATOM     11  C   UNL     1      -5.045   0.950 126.385  0.00  0.00    +0.000 A 
ATOM     12  C   UNL     1      -4.731   2.306 126.270  0.00  0.00    +0.000 A 
ATOM     13 CL   UNL     1      -3.508   2.988 127.272  0.00  0.00    +0.000 Cl
ATOM     14  C   UNL     1      -5.401   3.110 125.365  0.00  0.00    +0.000 A 
ATOM     15  C   UNL     1      -6.382   2.538 124.570  0.00  0.00    +0.000 A 
ENDROOT
BRANCH   1  16
ATOM     16  C   UNL     1      -5.669  -1.863 126.722  0.00  0.00    +0.000 C 
BRANCH  16  17
ATOM     17  C   UNL     1      -6.335  -1.863 128.094  0.00  0.00    +0.000 C 
BRANCH  17  18
ATOM     18  C   UNL     1      -5.587  -2.796 129.034  0.00  0.00    +0.000 C 
BRANCH  18  23
ATOM     19  C   UNL     1      -5.944  -2.787 133.885  0.00  0.00    +0.000 C 
ATOM     20  N   UNL     1      -6.377  -3.376 132.630  0.00  0.00    +0.000 NA
ATOM     21  C   UNL     1      -5.254  -3.990 131.898  0.00  0.00    +0.000 C 
ATOM     22  C   UNL     1      -5.727  -4.644 130.574  0.00  0.00    +0.000 C 
ATOM     23  N   UNL     1      -6.499  -3.743 129.686  0.00  0.00    +0.000 NA
ATOM     24  C   UNL     1      -7.555  -3.077 130.495  0.00  0.00    +0.000 C 
ATOM     25  C   UNL     1      -7.030  -2.383 131.767  0.00  0.00    +0.000 C 
ENDBRANCH  18  23
ENDBRANCH  17  18
ENDBRANCH  16  17
ENDBRANCH   1  16
TORSDOF 4
ENDMDL
MODEL 6
REMARK VINA RESULT:      -6.4      3.729      5.814
REMARK  Name = Prochlorperazine
REMARK  5 active torsions:
REMARK  status: ('A' for Active; 'I' for Inactive)
REMARK    1  A    between atoms: C_1  and  N_2
REMARK    2  A    between atoms: N_5  and  C_6
REMARK    3  A    between atoms: C_6  and  C_7
REMARK    4  A    between atoms: C_7  and  C_8
REMARK    5  A    between atoms: C_8  and  N_9
REMARK                            x       y       z     vdW  Elec       q    Type
REMARK                         _______ _______ _______ _____ _____    ______ ____
ROOT
ATOM      1  N   UNL     1      -7.364   0.474 126.231  0.00  0.00    +0.000 N 
ATOM      2  C   UNL     1      -6.990   1.429 125.229  0.00  0.00    +0.000 A 
ATOM      3  C   UNL     1      -6.519   2.727 125.542  0.00  0.00    +0.000 A 
ATOM      4  C   UNL     1      -6.286   3.712 124.582  0.00  0.00    +0.000 A 
ATOM      5  C   UNL     1      -6.410   3.399 123.238  0.00  0.00    +0.000 A 
ATOM      6  C   UNL     1      -6.786   2.113 122.883  0.00  0.00    +0.000 A 
ATOM      7  C   UNL     1      -7.090   1.141 123.853  0.00  0.00    +0.000 A 
ATOM      8  S   UNL     1      -7.581  -0.426 123.203  0.00  0.00    +0.000 S 
ATOM      9  C   UNL     1      -7.917  -1.360 124.668  0.00  0.00    +0.000 A 
ATOM     10  C   UNL     1      -7.814  -0.853 125.984  0.00  0.00    +0.000 A 
ATOM     11  C   UNL     1      -8.163  -1.757 127.012  0.00  0.00    +0.000 A 
ATOM     12  C   UNL     1      -8.550  -3.074 126.758  0.00  0.00    +0.000 A 
ATOM     13 CL   UNL     1      -8.929  -4.122 128.071  0.00  0.00    +0.000 Cl
ATOM     14  C   UNL     1      -8.622  -3.549 125.460  0.00  0.00    +0.000 A 
ATOM     15  C   UNL     1      -8.311  -2.687 124.421  0.00  0.00    +0.000 A 
ENDROOT
BRANCH   1  16
ATOM     16  C   UNL     1      -7.320   0.950 127.630  0.00  0.00    +0.000 C 
BRANCH  16  17
ATOM     17  C   UNL     1      -8.646   1.583 128.042  0.00  0.00    +0.000 C 
BRANCH  17  18
ATOM     18  C   UNL     1      -8.467   2.365 129.335  0.00  0.00    +0.000 C 
BRANCH  18  23
ATOM     19  C   UNL     1      -9.041   3.747 133.963  0.00  0.00    +0.000 C 
ATOM     20  N   UNL     1      -8.515   2.756 133.041  0.00  0.00    +0.000 NA
ATOM     21  C   UNL     1      -7.500   3.331 132.140  0.00  0.00    +0.000 C 
ATOM     22  C   UNL     1      -6.921   2.261 131.179  0.00  0.00    +0.000 C 
ATOM     23  N   UNL     1      -7.940   1.513 130.407  0.00  0.00    +0.000 NA
ATOM     24  C   UNL     1      -8.988   1.039 131.349  0.00  0.00    +0.000 C 
ATOM     25  C   UNL     1      -9.585   2.148 132.238  0.00  0.00    +0.000 C 
ENDBRANCH  18  23
ENDBRANCH  17  18
ENDBRANCH  16  17
ENDBRANCH   1  16
TORSDOF 4
ENDMDL
MODEL 7
REMARK VINA RESULT:      -6.4      2.700      4.897
REMARK  Name = Prochlorperazine
REMARK  5 active torsions:
REMARK  status: ('A' for Active; 'I' for Inactive)
REMARK    1  A    between atoms: C_1  and  N_2
REMARK    2  A    between atoms: N_5  and  C_6
REMARK    3  A    between atoms: C_6  and  C_7
REMARK    4  A    between atoms: C_7  and  C_8
REMARK    5  A    between atoms: C_8  and  N_9
REMARK                            x       y       z     vdW  Elec       q    Type
REMARK                         _______ _______ _______ _____ _____    ______ ____
ROOT
ATOM      1  N   UNL     1      -7.881  -0.270 127.636  0.00  0.00    +0.000 N 
ATOM      2  C   UNL     1      -7.703  -0.505 129.039  0.00  0.00    +0.000 A 
ATOM      3  C   UNL     1      -7.433   0.532 129.964  0.00  0.00    +0.000 A 
ATOM      4  C   UNL     1      -7.119   0.304 131.304  0.00  0.00    +0.000 A 
ATOM      5  C   UNL     1      -7.175  -0.985 131.808  0.00  0.00    +0.000 A 
ATOM      6  C   UNL     1      -7.520  -2.022 130.956  0.00  0.00    +0.000 A 
ATOM      7  C   UNL     1      -7.765  -1.801 129.589  0.00  0.00    +0.000 A 
ATOM      8  S   UNL     1      -8.157  -3.252 128.663  0.00  0.00    +0.000 S 
ATOM      9  C   UNL     1      -8.356  -2.617 127.022  0.00  0.00    +0.000 A 
ATOM     10  C   UNL     1      -8.183  -1.261 126.661  0.00  0.00    +0.000 A 
ATOM     11  C   UNL     1      -8.355  -0.972 125.289  0.00  0.00    +0.000 A 
ATOM     12  C   UNL     1      -8.707  -1.945 124.352  0.00  0.00    +0.000 A 
ATOM     13 CL   UNL     1      -8.928  -1.504 122.703  0.00  0.00    +0.000 Cl
ATOM     14  C   UNL     1      -8.890  -3.262 124.738  0.00  0.00    +0.000 A 
ATOM     15  C   UNL     1      -8.708  -3.592 126.072  0.00  0.00    +0.000 A 
ENDROOT
BRANCH   1  16
ATOM     16  C   UNL     1      -7.672   1.121 127.179  0.00  0.00    +0.000 C 
BRANCH  16  17
ATOM     17  C   UNL     1      -6.195   1.409 126.934  0.00  0.00    +0.000 C 
BRANCH  17  18
ATOM     18  C   UNL     1      -5.979   1.814 125.483  0.00  0.00    +0.000 C 
BRANCH  18  23
ATOM     19  C   UNL     1      -5.408   4.105 121.230  0.00  0.00    +0.000 C 
ATOM     20  N   UNL     1      -6.236   3.901 122.406  0.00  0.00    +0.000 NA
ATOM     21  C   UNL     1      -5.536   4.295 123.642  0.00  0.00    +0.000 C 
ATOM     22  C   UNL     1      -6.435   4.104 124.891  0.00  0.00    +0.000 C 
ATOM     23  N   UNL     1      -7.016   2.749 125.028  0.00  0.00    +0.000 NA
ATOM     24  C   UNL     1      -7.622   2.362 123.727  0.00  0.00    +0.000 C 
ATOM     25  C   UNL     1      -6.671   2.503 122.522  0.00  0.00    +0.000 C 
ENDBRANCH  18  23
ENDBRANCH  17  18
ENDBRANCH  16  17
ENDBRANCH   1  16
TORSDOF 4
ENDMDL
MODEL 8
REMARK VINA RESULT:      -6.4      5.013      7.388
REMARK  Name = Prochlorperazine
REMARK  5 active torsions:
REMARK  status: ('A' for Active; 'I' for Inactive)
REMARK    1  A    between atoms: C_1  and  N_2
REMARK    2  A    between atoms: N_5  and  C_6
REMARK    3  A    between atoms: C_6  and  C_7
REMARK    4  A    between atoms: C_7  and  C_8
REMARK    5  A    between atoms: C_8  and  N_9
REMARK                            x       y       z     vdW  Elec       q    Type
REMARK                         _______ _______ _______ _____ _____    ______ ____
ROOT
ATOM      1  N   UNL     1      -6.605   4.215 129.022  0.00  0.00    +0.000 N 
ATOM      2  C   UNL     1      -7.521   4.862 129.916  0.00  0.00    +0.000 A 
ATOM      3  C   UNL     1      -8.877   4.479 130.037  0.00  0.00    +0.000 A 
ATOM      4  C   UNL     1      -9.811   5.187 130.795  0.00  0.00    +0.000 A 
ATOM      5  C   UNL     1      -9.393   6.260 131.564  0.00  0.00    +0.000 A 
ATOM      6  C   UNL     1      -8.054   6.617 131.542  0.00  0.00    +0.000 A 
ATOM      7  C   UNL     1      -7.127   5.949 130.723  0.00  0.00    +0.000 A 
ATOM      8  S   UNL     1      -5.478   6.573 130.809  0.00  0.00    +0.000 S 
ATOM      9  C   UNL     1      -4.620   5.547 129.648  0.00  0.00    +0.000 A 
ATOM     10  C   UNL     1      -5.227   4.532 128.874  0.00  0.00    +0.000 A 
ATOM     11  C   UNL     1      -4.367   3.854 127.981  0.00  0.00    +0.000 A 
ATOM     12  C   UNL     1      -3.003   4.137 127.887  0.00  0.00    +0.000 A 
ATOM     13 CL   UNL     1      -2.018   3.243 126.794  0.00  0.00    +0.000 Cl
ATOM     14  C   UNL     1      -2.432   5.124 128.672  0.00  0.00    +0.000 A 
ATOM     15  C   UNL     1      -3.246   5.829 129.545  0.00  0.00    +0.000 A 
ENDROOT
BRANCH   1  16
ATOM     16  C   UNL     1      -7.181   3.168 128.149  0.00  0.00    +0.000 C 
BRANCH  16  17
ATOM     17  C   UNL     1      -7.685   3.757 126.835  0.00  0.00    +0.000 C 
BRANCH  17  18
ATOM     18  C   UNL     1      -7.690   2.685 125.755  0.00  0.00    +0.000 C 
BRANCH  18  23
ATOM     19  C   UNL     1      -8.276  -1.392 123.168  0.00  0.00    +0.000 C 
ATOM     20  N   UNL     1      -8.909  -0.301 123.887  0.00  0.00    +0.000 NA
ATOM     21  C   UNL     1      -8.595   1.007 123.284  0.00  0.00    +0.000 C 
ATOM     22  C   UNL     1      -9.298   2.165 124.038  0.00  0.00    +0.000 C 
ATOM     23  N   UNL     1      -9.047   2.190 125.498  0.00  0.00    +0.000 NA
ATOM     24  C   UNL     1      -9.284   0.825 126.039  0.00  0.00    +0.000 C 
ATOM     25  C   UNL     1      -8.513  -0.288 125.302  0.00  0.00    +0.000 C 
ENDBRANCH  18  23
ENDBRANCH  17  18
ENDBRANCH  16  17
ENDBRANCH   1  16
TORSDOF 4
ENDMDL
MODEL 9
REMARK VINA RESULT:      -6.2      3.044      4.618
REMARK  Name = Prochlorperazine
REMARK  5 active torsions:
REMARK  status: ('A' for Active; 'I' for Inactive)
REMARK    1  A    between atoms: C_1  and  N_2
REMARK    2  A    between atoms: N_5  and  C_6
REMARK    3  A    between atoms: C_6  and  C_7
REMARK    4  A    between atoms: C_7  and  C_8
REMARK    5  A    between atoms: C_8  and  N_9
REMARK                            x       y       z     vdW  Elec       q    Type
REMARK                         _______ _______ _______ _____ _____    ______ ____
ROOT
ATOM      1  N   UNL     1      -7.307   0.092 127.179  0.00  0.00    +0.000 N 
ATOM      2  C   UNL     1      -7.473   0.492 125.812  0.00  0.00    +0.000 A 
ATOM      3  C   UNL     1      -7.024   1.740 125.316  0.00  0.00    +0.000 A 
ATOM      4  C   UNL     1      -7.303   2.201 124.029  0.00  0.00    +0.000 A 
ATOM      5  C   UNL     1      -7.956   1.370 123.134  0.00  0.00    +0.000 A 
ATOM      6  C   UNL     1      -8.338   0.105 123.551  0.00  0.00    +0.000 A 
ATOM      7  C   UNL     1      -8.122  -0.332 124.871  0.00  0.00    +0.000 A 
ATOM      8  S   UNL     1      -8.709  -1.960 125.218  0.00  0.00    +0.000 S 
ATOM      9  C   UNL     1      -8.314  -2.151 126.933  0.00  0.00    +0.000 A 
ATOM     10  C   UNL     1      -7.707  -1.156 127.732  0.00  0.00    +0.000 A 
ATOM     11  C   UNL     1      -7.511  -1.502 129.088  0.00  0.00    +0.000 A 
ATOM     12  C   UNL     1      -7.858  -2.751 129.604  0.00  0.00    +0.000 A 
ATOM     13 CL   UNL     1      -7.558  -3.104 131.262  0.00  0.00    +0.000 Cl
ATOM     14  C   UNL     1      -8.433  -3.714 128.793  0.00  0.00    +0.000 A 
ATOM     15  C   UNL     1      -8.664  -3.407 127.461  0.00  0.00    +0.000 A 
ENDROOT
BRANCH   1  16
ATOM     16  C   UNL     1      -6.715   1.102 128.083  0.00  0.00    +0.000 C 
BRANCH  16  17
ATOM     17  C   UNL     1      -5.207   0.912 128.216  0.00  0.00    +0.000 C 
BRANCH  17  18
ATOM     18  C   UNL     1      -4.542   2.245 128.525  0.00  0.00    +0.000 C 
BRANCH  18  23
ATOM     19  C   UNL     1      -2.172   6.492 128.596  0.00  0.00    +0.000 C 
ATOM     20  N   UNL     1      -3.156   5.654 127.934  0.00  0.00    +0.000 NA
ATOM     21  C   UNL     1      -4.293   5.342 128.819  0.00  0.00    +0.000 C 
ATOM     22  C   UNL     1      -5.354   4.473 128.097  0.00  0.00    +0.000 C 
ATOM     23  N   UNL     1      -4.819   3.237 127.479  0.00  0.00    +0.000 NA
ATOM     24  C   UNL     1      -3.619   3.594 126.678  0.00  0.00    +0.000 C 
ATOM     25  C   UNL     1      -2.559   4.400 127.454  0.00  0.00    +0.000 C 
ENDBRANCH  18  23
ENDBRANCH  17  18
ENDBRANCH  16  17
ENDBRANCH   1  16
TORSDOF 4
ENDMDL
