MODEL 1
REMARK VINA RESULT:      -6.1      0.000      0.000
REMARK  Name = Procainamide
REMARK  9 active torsions:
REMARK  status: ('A' for Active; 'I' for Inactive)
REMARK    1  A    between atoms: C_1  and  C_2
REMARK    2  A    between atoms: C_2  and  N_3
REMARK    3  A    between atoms: N_3  and  C_4
REMARK    4  A    between atoms: N_3  and  C_6
REMARK    5  A    between atoms: C_4  and  C_5
REMARK    6  A    between atoms: C_6  and  C_7
REMARK    7  A    between atoms: C_7  and  N_8
REMARK    8  A    between atoms: C_9  and  C_11
REMARK    9  A    between atoms: C_14  and  N_15
REMARK                            x       y       z     vdW  Elec       q    Type
REMARK                         _______ _______ _______ _____ _____    ______ ____
ROOT
ATOM      1  N   UNL     1      -6.911   1.721 123.208  0.00  0.00    +0.000 N 
ATOM      2  C   UNL     1      -7.664   2.801 122.768  0.00  0.00    +0.000 C 
ATOM      3  O   UNL     1      -8.680   3.189 123.320  0.00  0.00    +0.000 OA
ATOM      4  H   UNL     1      -6.000   1.546 122.807  0.00  0.00    +0.000 HD
ENDROOT
BRANCH   2   5
ATOM      5  C   UNL     1      -7.158   3.518 121.569  0.00  0.00    +0.000 A 
ATOM      6  C   UNL     1      -7.987   3.774 120.475  0.00  0.00    +0.000 A 
ATOM      7  C   UNL     1      -7.493   4.492 119.379  0.00  0.00    +0.000 A 
ATOM      8  C   UNL     1      -6.184   4.982 119.366  0.00  0.00    +0.000 A 
ATOM      9  C   UNL     1      -5.358   4.712 120.460  0.00  0.00    +0.000 A 
ATOM     10  C   UNL     1      -5.842   3.998 121.564  0.00  0.00    +0.000 A 
BRANCH   8  11
ATOM     11  N   UNL     1      -5.676   5.600 118.233  0.00  0.00    +0.000 N 
ATOM     12  H   UNL     1      -4.680   5.571 118.052  0.00  0.00    +0.000 HD
ATOM     13  H   UNL     1      -6.282   5.760 117.438  0.00  0.00    +0.000 HD
ENDBRANCH   8  11
ENDBRANCH   2   5
BRANCH   1  14
ATOM     14  C   UNL     1      -7.312   1.023 124.420  0.00  0.00    +0.000 C 
BRANCH  14  15
ATOM     15  C   UNL     1      -8.085  -0.294 124.177  0.00  0.00    +0.000 C 
BRANCH  15  16
ATOM     16  N   UNL     1      -7.339  -1.318 123.381  0.00  0.00    +0.000 NA
BRANCH  16  18
ATOM     17  C   UNL     1      -5.207  -2.682 123.696  0.00  0.00    +0.000 C 
ATOM     18  C   UNL     1      -6.487  -2.109 124.299  0.00  0.00    +0.000 C 
ENDBRANCH  16  18
BRANCH  16  19
ATOM     19  C   UNL     1      -8.293  -2.140 122.606  0.00  0.00    +0.000 C 
ATOM     20  C   UNL     1      -9.277  -2.987 123.400  0.00  0.00    +0.000 C 
ENDBRANCH  16  19
ENDBRANCH  15  16
ENDBRANCH  14  15
ENDBRANCH   1  14
TORSDOF 7
ENDMDL
MODEL 2
REMARK VINA RESULT:      -6.1      0.636      2.051
REMARK  Name = Procainamide
REMARK  9 active torsions:
REMARK  status: ('A' for Active; 'I' for Inactive)
REMARK    1  A    between atoms: C_1  and  C_2
REMARK    2  A    between atoms: C_2  and  N_3
REMARK    3  A    between atoms: N_3  and  C_4
REMARK    4  A    between atoms: N_3  and  C_6
REMARK    5  A    between atoms: C_4  and  C_5
REMARK    6  A    between atoms: C_6  and  C_7
REMARK    7  A    between atoms: C_7  and  N_8
REMARK    8  A    between atoms: C_9  and  C_11
REMARK    9  A    between atoms: C_14  and  N_15
REMARK                            x       y       z     vdW  Elec       q    Type
REMARK                         _______ _______ _______ _____ _____    ______ ____
ROOT
ATOM      1  N   UNL     1      -7.223   1.497 123.026  0.00  0.00    +0.000 N 
ATOM      2  C   UNL     1      -7.824   2.713 122.728  0.00  0.00    +0.000 C 
ATOM      3  O   UNL     1      -8.791   3.156 123.326  0.00  0.00    +0.000 OA
ATOM      4  H   UNL     1      -6.336   1.259 122.606  0.00  0.00    +0.000 HD
ENDROOT
BRANCH   2   5
ATOM      5  C   UNL     1      -7.210   3.506 121.631  0.00  0.00    +0.000 A 
ATOM      6  C   UNL     1      -5.881   3.929 121.700  0.00  0.00    +0.000 A 
ATOM      7  C   UNL     1      -5.318   4.636 120.631  0.00  0.00    +0.000 A 
ATOM      8  C   UNL     1      -6.056   4.908 119.475  0.00  0.00    +0.000 A 
ATOM      9  C   UNL     1      -7.388   4.490 119.420  0.00  0.00    +0.000 A 
ATOM     10  C   UNL     1      -7.961   3.779 120.482  0.00  0.00    +0.000 A 
BRANCH   8  11
ATOM     11  N   UNL     1      -5.521   5.697 118.469  0.00  0.00    +0.000 N 
ATOM     12  H   UNL     1      -5.004   6.533 118.711  0.00  0.00    +0.000 HD
ATOM     13  H   UNL     1      -5.333   5.289 117.561  0.00  0.00    +0.000 HD
ENDBRANCH   8  11
ENDBRANCH   2   5
BRANCH   1  14
ATOM     14  C   UNL     1      -7.731   0.708 124.137  0.00  0.00    +0.000 C 
BRANCH  14  15
ATOM     15  C   UNL     1      -6.800  -0.439 124.591  0.00  0.00    +0.000 C 
BRANCH  15  16
ATOM     16  N   UNL     1      -7.463  -1.776 124.699  0.00  0.00    +0.000 NA
BRANCH  16  18
ATOM     17  C   UNL     1      -9.313  -3.172 123.634  0.00  0.00    +0.000 C 
ATOM     18  C   UNL     1      -8.567  -1.842 123.714  0.00  0.00    +0.000 C 
ENDBRANCH  16  18
BRANCH  16  19
ATOM     19  C   UNL     1      -6.459  -2.847 124.532  0.00  0.00    +0.000 C 
ATOM     20  C   UNL     1      -5.495  -2.712 123.362  0.00  0.00    +0.000 C 
ENDBRANCH  16  19
ENDBRANCH  15  16
ENDBRANCH  14  15
ENDBRANCH   1  14
TORSDOF 7
ENDMDL
MODEL 3
REMARK VINA RESULT:      -5.8      1.381      2.437
REMARK  Name = Procainamide
REMARK  9 active torsions:
REMARK  status: ('A' for Active; 'I' for Inactive)
REMARK    1  A    between atoms: C_1  and  C_2
REMARK    2  A    between atoms: C_2  and  N_3
REMARK    3  A    between atoms: N_3  and  C_4
REMARK    4  A    between atoms: N_3  and  C_6
REMARK    5  A    between atoms: C_4  and  C_5
REMARK    6  A    between atoms: C_6  and  C_7
REMARK    7  A    between atoms: C_7  and  N_8
REMARK    8  A    between atoms: C_9  and  C_11
REMARK    9  A    between atoms: C_14  and  N_15
REMARK                            x       y       z     vdW  Elec       q    Type
REMARK                         _______ _______ _______ _____ _____    ______ ____
ROOT
ATOM      1  N   UNL     1      -7.086   2.020 123.258  0.00  0.00    +0.000 N 
ATOM      2  C   UNL     1      -6.249   3.128 123.248  0.00  0.00    +0.000 C 
ATOM      3  O   UNL     1      -5.630   3.518 124.224  0.00  0.00    +0.000 OA
ATOM      4  H   UNL     1      -7.446   1.654 122.388  0.00  0.00    +0.000 HD
ENDROOT
BRANCH   2   5
ATOM      5  C   UNL     1      -6.104   3.839 121.951  0.00  0.00    +0.000 A 
ATOM      6  C   UNL     1      -4.972   4.606 121.669  0.00  0.00    +0.000 A 
ATOM      7  C   UNL     1      -4.843   5.226 120.420  0.00  0.00    +0.000 A 
ATOM      8  C   UNL     1      -5.821   5.073 119.433  0.00  0.00    +0.000 A 
ATOM      9  C   UNL     1      -6.955   4.313 119.728  0.00  0.00    +0.000 A 
ATOM     10  C   UNL     1      -7.093   3.684 120.972  0.00  0.00    +0.000 A 
BRANCH   8  11
ATOM     11  N   UNL     1      -5.732   5.776 118.241  0.00  0.00    +0.000 N 
ATOM     12  H   UNL     1      -4.824   5.945 117.827  0.00  0.00    +0.000 HD
ATOM     13  H   UNL     1      -6.532   5.810 117.621  0.00  0.00    +0.000 HD
ENDBRANCH   8  11
ENDBRANCH   2   5
BRANCH   1  14
ATOM     14  C   UNL     1      -7.214   1.238 124.478  0.00  0.00    +0.000 C 
BRANCH  14  15
ATOM     15  C   UNL     1      -8.553   0.479 124.618  0.00  0.00    +0.000 C 
BRANCH  15  16
ATOM     16  N   UNL     1      -8.537  -0.918 124.082  0.00  0.00    +0.000 NA
BRANCH  16  18
ATOM     17  C   UNL     1     -10.175   0.237 122.504  0.00  0.00    +0.000 C 
ATOM     18  C   UNL     1      -9.236  -0.936 122.776  0.00  0.00    +0.000 C 
ENDBRANCH  16  18
BRANCH  16  19
ATOM     19  C   UNL     1      -7.145  -1.412 124.012  0.00  0.00    +0.000 C 
ATOM     20  C   UNL     1      -6.642  -1.862 122.649  0.00  0.00    +0.000 C 
ENDBRANCH  16  19
ENDBRANCH  15  16
ENDBRANCH  14  15
ENDBRANCH   1  14
TORSDOF 7
ENDMDL
MODEL 4
REMARK VINA RESULT:      -5.5      2.209      6.717
REMARK  Name = Procainamide
REMARK  9 active torsions:
REMARK  status: ('A' for Active; 'I' for Inactive)
REMARK    1  A    between atoms: C_1  and  C_2
REMARK    2  A    between atoms: C_2  and  N_3
REMARK    3  A    between atoms: N_3  and  C_4
REMARK    4  A    between atoms: N_3  and  C_6
REMARK    5  A    between atoms: C_4  and  C_5
REMARK    6  A    between atoms: C_6  and  C_7
REMARK    7  A    between atoms: C_7  and  N_8
REMARK    8  A    between atoms: C_9  and  C_11
REMARK    9  A    between atoms: C_14  and  N_15
REMARK                            x       y       z     vdW  Elec       q    Type
REMARK                         _______ _______ _______ _____ _____    ______ ____
ROOT
ATOM      1  N   UNL     1      -8.159   0.651 123.751  0.00  0.00    +0.000 N 
ATOM      2  C   UNL     1      -8.554  -0.628 123.381  0.00  0.00    +0.000 C 
ATOM      3  O   UNL     1      -9.653  -0.892 122.922  0.00  0.00    +0.000 OA
ATOM      4  H   UNL     1      -7.191   0.834 123.973  0.00  0.00    +0.000 HD
ENDROOT
BRANCH   2   5
ATOM      5  C   UNL     1      -7.543  -1.707 123.541  0.00  0.00    +0.000 A 
ATOM      6  C   UNL     1      -7.815  -2.845 124.302  0.00  0.00    +0.000 A 
ATOM      7  C   UNL     1      -6.860  -3.864 124.397  0.00  0.00    +0.000 A 
ATOM      8  C   UNL     1      -5.638  -3.776 123.722  0.00  0.00    +0.000 A 
ATOM      9  C   UNL     1      -5.372  -2.628 122.972  0.00  0.00    +0.000 A 
ATOM     10  C   UNL     1      -6.321  -1.604 122.866  0.00  0.00    +0.000 A 
BRANCH   8  11
ATOM     11  N   UNL     1      -4.661  -4.742 123.908  0.00  0.00    +0.000 N 
ATOM     12  H   UNL     1      -4.934  -5.695 124.111  0.00  0.00    +0.000 HD
ATOM     13  H   UNL     1      -3.740  -4.603 123.510  0.00  0.00    +0.000 HD
ENDBRANCH   8  11
ENDBRANCH   2   5
BRANCH   1  14
ATOM     14  C   UNL     1      -9.076   1.762 123.549  0.00  0.00    +0.000 C 
BRANCH  14  15
ATOM     15  C   UNL     1      -8.453   2.991 122.848  0.00  0.00    +0.000 C 
BRANCH  15  16
ATOM     16  N   UNL     1      -6.960   2.966 122.755  0.00  0.00    +0.000 NA
BRANCH  16  18
ATOM     17  C   UNL     1      -5.194   4.031 121.253  0.00  0.00    +0.000 C 
ATOM     18  C   UNL     1      -6.561   3.362 121.385  0.00  0.00    +0.000 C 
ENDBRANCH  16  18
BRANCH  16  19
ATOM     19  C   UNL     1      -6.379   3.824 123.809  0.00  0.00    +0.000 C 
ATOM     20  C   UNL     1      -5.750   3.120 125.002  0.00  0.00    +0.000 C 
ENDBRANCH  16  19
ENDBRANCH  15  16
ENDBRANCH  14  15
ENDBRANCH   1  14
TORSDOF 7
ENDMDL
MODEL 5
REMARK VINA RESULT:      -5.5      9.202     10.457
REMARK  Name = Procainamide
REMARK  9 active torsions:
REMARK  status: ('A' for Active; 'I' for Inactive)
REMARK    1  A    between atoms: C_1  and  C_2
REMARK    2  A    between atoms: C_2  and  N_3
REMARK    3  A    between atoms: N_3  and  C_4
REMARK    4  A    between atoms: N_3  and  C_6
REMARK    5  A    between atoms: C_4  and  C_5
REMARK    6  A    between atoms: C_6  and  C_7
REMARK    7  A    between atoms: C_7  and  N_8
REMARK    8  A    between atoms: C_9  and  C_11
REMARK    9  A    between atoms: C_14  and  N_15
REMARK                            x       y       z     vdW  Elec       q    Type
REMARK                         _______ _______ _______ _____ _____    ______ ____
ROOT
ATOM      1  N   UNL     1      -9.454   5.096 130.002  0.00  0.00    +0.000 N 
ATOM      2  C   UNL     1     -10.841   5.130 129.949  0.00  0.00    +0.000 C 
ATOM      3  O   UNL     1     -11.549   4.145 130.080  0.00  0.00    +0.000 OA
ATOM      4  H   UNL     1      -8.931   5.959 130.046  0.00  0.00    +0.000 HD
ENDROOT
BRANCH   2   5
ATOM      5  C   UNL     1     -11.465   6.464 129.747  0.00  0.00    +0.000 A 
ATOM      6  C   UNL     1     -12.287   7.034 130.721  0.00  0.00    +0.000 A 
ATOM      7  C   UNL     1     -12.823   8.312 130.520  0.00  0.00    +0.000 A 
ATOM      8  C   UNL     1     -12.532   9.045 129.366  0.00  0.00    +0.000 A 
ATOM      9  C   UNL     1     -11.717   8.463 128.393  0.00  0.00    +0.000 A 
ATOM     10  C   UNL     1     -11.171   7.187 128.584  0.00  0.00    +0.000 A 
BRANCH   8  11
ATOM     11  N   UNL     1     -13.151  10.263 129.133  0.00  0.00    +0.000 N 
ATOM     12  H   UNL     1     -13.018  11.025 129.786  0.00  0.00    +0.000 HD
ATOM     13  H   UNL     1     -13.426  10.511 128.190  0.00  0.00    +0.000 HD
ENDBRANCH   8  11
ENDBRANCH   2   5
BRANCH   1  14
ATOM     14  C   UNL     1      -8.785   3.833 130.272  0.00  0.00    +0.000 C 
BRANCH  14  15
ATOM     15  C   UNL     1      -8.001   3.791 131.603  0.00  0.00    +0.000 C 
BRANCH  15  16
ATOM     16  N   UNL     1      -8.590   2.897 132.648  0.00  0.00    +0.000 NA
BRANCH  16  18
ATOM     17  C   UNL     1      -8.665   5.194 133.755  0.00  0.00    +0.000 C 
ATOM     18  C   UNL     1      -9.113   3.734 133.752  0.00  0.00    +0.000 C 
ENDBRANCH  16  18
BRANCH  16  19
ATOM     19  C   UNL     1      -9.612   2.021 132.037  0.00  0.00    +0.000 C 
ATOM     20  C   UNL     1      -9.250   0.553 131.870  0.00  0.00    +0.000 C 
ENDBRANCH  16  19
ENDBRANCH  15  16
ENDBRANCH  14  15
ENDBRANCH   1  14
TORSDOF 7
ENDMDL
MODEL 6
REMARK VINA RESULT:      -5.5      8.970     10.432
REMARK  Name = Procainamide
REMARK  9 active torsions:
REMARK  status: ('A' for Active; 'I' for Inactive)
REMARK    1  A    between atoms: C_1  and  C_2
REMARK    2  A    between atoms: C_2  and  N_3
REMARK    3  A    between atoms: N_3  and  C_4
REMARK    4  A    between atoms: N_3  and  C_6
REMARK    5  A    between atoms: C_4  and  C_5
REMARK    6  A    between atoms: C_6  and  C_7
REMARK    7  A    between atoms: C_7  and  N_8
REMARK    8  A    between atoms: C_9  and  C_11
REMARK    9  A    between atoms: C_14  and  N_15
REMARK                            x       y       z     vdW  Elec       q    Type
REMARK                         _______ _______ _______ _____ _____    ______ ____
ROOT
ATOM      1  N   UNL     1      -9.800   4.691 130.334  0.00  0.00    +0.000 N 
ATOM      2  C   UNL     1      -9.639   5.511 129.225  0.00  0.00    +0.000 C 
ATOM      3  O   UNL     1      -8.835   5.294 128.333  0.00  0.00    +0.000 OA
ATOM      4  H   UNL     1     -10.585   4.834 130.954  0.00  0.00    +0.000 HD
ENDROOT
BRANCH   2   5
ATOM      5  C   UNL     1     -10.532   6.696 129.139  0.00  0.00    +0.000 A 
ATOM      6  C   UNL     1     -10.568   7.493 127.993  0.00  0.00    +0.000 A 
ATOM      7  C   UNL     1     -11.453   8.576 127.926  0.00  0.00    +0.000 A 
ATOM      8  C   UNL     1     -12.325   8.865 128.980  0.00  0.00    +0.000 A 
ATOM      9  C   UNL     1     -12.273   8.068 130.126  0.00  0.00    +0.000 A 
ATOM     10  C   UNL     1     -11.395   6.979 130.204  0.00  0.00    +0.000 A 
BRANCH   8  11
ATOM     11  N   UNL     1     -13.120   9.999 128.943  0.00  0.00    +0.000 N 
ATOM     12  H   UNL     1     -14.034   9.955 128.510  0.00  0.00    +0.000 HD
ATOM     13  H   UNL     1     -12.970  10.737 129.621  0.00  0.00    +0.000 HD
ENDBRANCH   8  11
ENDBRANCH   2   5
BRANCH   1  14
ATOM     14  C   UNL     1      -9.008   3.476 130.440  0.00  0.00    +0.000 C 
BRANCH  14  15
ATOM     15  C   UNL     1      -7.782   3.587 131.374  0.00  0.00    +0.000 C 
BRANCH  15  16
ATOM     16  N   UNL     1      -7.683   4.877 132.125  0.00  0.00    +0.000 NA
BRANCH  16  18
ATOM     17  C   UNL     1      -8.900   3.918 134.151  0.00  0.00    +0.000 C 
ATOM     18  C   UNL     1      -7.652   4.584 133.576  0.00  0.00    +0.000 C 
ENDBRANCH  16  18
BRANCH  16  19
ATOM     19  C   UNL     1      -6.510   5.643 131.653  0.00  0.00    +0.000 C 
ATOM     20  C   UNL     1      -6.774   7.029 131.084  0.00  0.00    +0.000 C 
ENDBRANCH  16  19
ENDBRANCH  15  16
ENDBRANCH  14  15
ENDBRANCH   1  14
TORSDOF 7
ENDMDL
MODEL 7
REMARK VINA RESULT:      -5.4      9.532     11.514
REMARK  Name = Procainamide
REMARK  9 active torsions:
REMARK  status: ('A' for Active; 'I' for Inactive)
REMARK    1  A    between atoms: C_1  and  C_2
REMARK    2  A    between atoms: C_2  and  N_3
REMARK    3  A    between atoms: N_3  and  C_4
REMARK    4  A    between atoms: N_3  and  C_6
REMARK    5  A    between atoms: C_4  and  C_5
REMARK    6  A    between atoms: C_6  and  C_7
REMARK    7  A    between atoms: C_7  and  N_8
REMARK    8  A    between atoms: C_9  and  C_11
REMARK    9  A    between atoms: C_14  and  N_15
REMARK                            x       y       z     vdW  Elec       q    Type
REMARK                         _______ _______ _______ _____ _____    ______ ____
ROOT
ATOM      1  N   UNL     1     -10.162   5.642 130.479  0.00  0.00    +0.000 N 
ATOM      2  C   UNL     1      -9.749   6.154 131.701  0.00  0.00    +0.000 C 
ATOM      3  O   UNL     1     -10.516   6.504 132.584  0.00  0.00    +0.000 OA
ATOM      4  H   UNL     1      -9.487   5.224 129.855  0.00  0.00    +0.000 HD
ENDROOT
BRANCH   2   5
ATOM      5  C   UNL     1      -8.282   6.242 131.923  0.00  0.00    +0.000 A 
ATOM      6  C   UNL     1      -7.680   5.645 133.032  0.00  0.00    +0.000 A 
ATOM      7  C   UNL     1      -6.290   5.706 133.189  0.00  0.00    +0.000 A 
ATOM      8  C   UNL     1      -5.483   6.338 132.238  0.00  0.00    +0.000 A 
ATOM      9  C   UNL     1      -6.095   6.942 131.137  0.00  0.00    +0.000 A 
ATOM     10  C   UNL     1      -7.484   6.883 130.967  0.00  0.00    +0.000 A 
BRANCH   8  11
ATOM     11  N   UNL     1      -4.122   6.483 132.457  0.00  0.00    +0.000 N 
ATOM     12  H   UNL     1      -3.478   6.386 131.682  0.00  0.00    +0.000 HD
ATOM     13  H   UNL     1      -3.798   7.012 133.258  0.00  0.00    +0.000 HD
ENDBRANCH   8  11
ENDBRANCH   2   5
BRANCH   1  14
ATOM     14  C   UNL     1     -11.584   5.461 130.229  0.00  0.00    +0.000 C 
BRANCH  14  15
ATOM     15  C   UNL     1     -12.192   6.462 129.220  0.00  0.00    +0.000 C 
BRANCH  15  16
ATOM     16  N   UNL     1     -11.216   7.438 128.644  0.00  0.00    +0.000 NA
BRANCH  16  18
ATOM     17  C   UNL     1     -12.280   7.142 126.344  0.00  0.00    +0.000 C 
ATOM     18  C   UNL     1     -11.022   7.127 127.209  0.00  0.00    +0.000 C 
ENDBRANCH  16  18
BRANCH  16  19
ATOM     19  C   UNL     1     -11.685   8.818 128.890  0.00  0.00    +0.000 C 
ATOM     20  C   UNL     1     -12.829   8.992 129.878  0.00  0.00    +0.000 C 
ENDBRANCH  16  19
ENDBRANCH  15  16
ENDBRANCH  14  15
ENDBRANCH   1  14
TORSDOF 7
ENDMDL
MODEL 8
REMARK VINA RESULT:      -5.4      8.506     10.225
REMARK  Name = Procainamide
REMARK  9 active torsions:
REMARK  status: ('A' for Active; 'I' for Inactive)
REMARK    1  A    between atoms: C_1  and  C_2
REMARK    2  A    between atoms: C_2  and  N_3
REMARK    3  A    between atoms: N_3  and  C_4
REMARK    4  A    between atoms: N_3  and  C_6
REMARK    5  A    between atoms: C_4  and  C_5
REMARK    6  A    between atoms: C_6  and  C_7
REMARK    7  A    between atoms: C_7  and  N_8
REMARK    8  A    between atoms: C_9  and  C_11
REMARK    9  A    between atoms: C_14  and  N_15
REMARK                            x       y       z     vdW  Elec       q    Type
REMARK                         _______ _______ _______ _____ _____    ______ ____
ROOT
ATOM      1  N   UNL     1      -9.063   5.217 129.553  0.00  0.00    +0.000 N 
ATOM      2  C   UNL     1      -9.542   6.131 130.483  0.00  0.00    +0.000 C 
ATOM      3  O   UNL     1      -9.178   6.167 131.647  0.00  0.00    +0.000 OA
ATOM      4  H   UNL     1      -9.281   5.335 128.574  0.00  0.00    +0.000 HD
ENDROOT
BRANCH   2   5
ATOM      5  C   UNL     1     -10.532   7.123 129.989  0.00  0.00    +0.000 A 
ATOM      6  C   UNL     1     -10.305   7.851 128.819  0.00  0.00    +0.000 A 
ATOM      7  C   UNL     1     -11.277   8.746 128.355  0.00  0.00    +0.000 A 
ATOM      8  C   UNL     1     -12.490   8.910 129.032  0.00  0.00    +0.000 A 
ATOM      9  C   UNL     1     -12.703   8.186 130.207  0.00  0.00    +0.000 A 
ATOM     10  C   UNL     1     -11.739   7.285 130.678  0.00  0.00    +0.000 A 
BRANCH   8  11
ATOM     11  N   UNL     1     -13.398   9.874 128.621  0.00  0.00    +0.000 N 
ATOM     12  H   UNL     1     -13.598  10.662 129.224  0.00  0.00    +0.000 HD
ATOM     13  H   UNL     1     -13.586   9.994 127.633  0.00  0.00    +0.000 HD
ENDBRANCH   8  11
ENDBRANCH   2   5
BRANCH   1  14
ATOM     14  C   UNL     1      -8.038   4.267 129.955  0.00  0.00    +0.000 C 
BRANCH  14  15
ATOM     15  C   UNL     1      -6.824   4.188 129.001  0.00  0.00    +0.000 C 
BRANCH  15  16
ATOM     16  N   UNL     1      -5.818   5.281 129.179  0.00  0.00    +0.000 NA
BRANCH  16  18
ATOM     17  C   UNL     1      -5.751   7.003 131.060  0.00  0.00    +0.000 C 
ATOM     18  C   UNL     1      -5.648   5.542 130.627  0.00  0.00    +0.000 C 
ENDBRANCH  16  18
BRANCH  16  19
ATOM     19  C   UNL     1      -4.560   4.919 128.493  0.00  0.00    +0.000 C 
ATOM     20  C   UNL     1      -3.778   6.052 127.845  0.00  0.00    +0.000 C 
ENDBRANCH  16  19
ENDBRANCH  15  16
ENDBRANCH  14  15
ENDBRANCH   1  14
TORSDOF 7
ENDMDL
MODEL 9
REMARK VINA RESULT:      -5.3      9.735     10.755
REMARK  Name = Procainamide
REMARK  9 active torsions:
REMARK  status: ('A' for Active; 'I' for Inactive)
REMARK    1  A    between atoms: C_1  and  C_2
REMARK    2  A    between atoms: C_2  and  N_3
REMARK    3  A    between atoms: N_3  and  C_4
REMARK    4  A    between atoms: N_3  and  C_6
REMARK    5  A    between atoms: C_4  and  C_5
REMARK    6  A    between atoms: C_6  and  C_7
REMARK    7  A    between atoms: C_7  and  N_8
REMARK    8  A    between atoms: C_9  and  C_11
REMARK    9  A    between atoms: C_14  and  N_15
REMARK                            x       y       z     vdW  Elec       q    Type
REMARK                         _______ _______ _______ _____ _____    ______ ____
ROOT
ATOM      1  N   UNL     1      -9.553   5.891 132.971  0.00  0.00    +0.000 N 
ATOM      2  C   UNL     1      -9.196   6.283 131.688  0.00  0.00    +0.000 C 
ATOM      3  O   UNL     1      -8.082   6.125 131.216  0.00  0.00    +0.000 OA
ATOM      4  H   UNL     1     -10.524   5.903 133.248  0.00  0.00    +0.000 HD
ENDROOT
BRANCH   2   5
ATOM      5  C   UNL     1     -10.265   6.902 130.861  0.00  0.00    +0.000 A 
ATOM      6  C   UNL     1      -9.970   7.534 129.652  0.00  0.00    +0.000 A 
ATOM      7  C   UNL     1     -11.004   8.068 128.874  0.00  0.00    +0.000 A 
ATOM      8  C   UNL     1     -12.340   7.961 129.274  0.00  0.00    +0.000 A 
ATOM      9  C   UNL     1     -12.624   7.337 130.491  0.00  0.00    +0.000 A 
ATOM     10  C   UNL     1     -11.597   6.795 131.276  0.00  0.00    +0.000 A 
BRANCH   8  11
ATOM     11  N   UNL     1     -13.343   8.584 128.548  0.00  0.00    +0.000 N 
ATOM     12  H   UNL     1     -13.246   9.560 128.297  0.00  0.00    +0.000 HD
ATOM     13  H   UNL     1     -13.971   8.025 127.983  0.00  0.00    +0.000 HD
ENDBRANCH   8  11
ENDBRANCH   2   5
BRANCH   1  14
ATOM     14  C   UNL     1      -8.573   5.212 133.804  0.00  0.00    +0.000 C 
BRANCH  14  15
ATOM     15  C   UNL     1      -8.757   3.680 133.896  0.00  0.00    +0.000 C 
BRANCH  15  16
ATOM     16  N   UNL     1      -8.546   2.947 132.609  0.00  0.00    +0.000 NA
BRANCH  16  18
ATOM     17  C   UNL     1      -6.614   2.077 134.029  0.00  0.00    +0.000 C 
ATOM     18  C   UNL     1      -7.216   2.296 132.644  0.00  0.00    +0.000 C 
ENDBRANCH  16  18
BRANCH  16  19
ATOM     19  C   UNL     1      -9.660   2.001 132.383  0.00  0.00    +0.000 C 
ATOM     20  C   UNL     1      -9.306   0.652 131.776  0.00  0.00    +0.000 C 
ENDBRANCH  16  19
ENDBRANCH  15  16
ENDBRANCH  14  15
ENDBRANCH   1  14
TORSDOF 7
ENDMDL
