MODEL 1
REMARK VINA RESULT:      -7.1      0.000      0.000
REMARK  Name = Procyclidine
REMARK  6 active torsions:
REMARK  status: ('A' for Active; 'I' for Inactive)
REMARK    1  A    between atoms: O_1  and  C_2
REMARK    2  A    between atoms: C_2  and  C_3
REMARK    3  A    between atoms: C_2  and  C_10
REMARK    4  A    between atoms: C_2  and  C_16
REMARK    5  A    between atoms: C_3  and  C_4
REMARK    6  A    between atoms: C_4  and  N_5
REMARK                            x       y       z     vdW  Elec       q    Type
REMARK                         _______ _______ _______ _____ _____    ______ ____
ROOT
ATOM      1  C   UNL     1     -10.539   6.085 131.099  0.00  0.00    +0.000 C 
ENDROOT
BRANCH   1   2
ATOM      2  C   UNL     1     -10.905   7.358 130.194  0.00  0.00    +0.000 C 
ATOM      3  C   UNL     1     -10.595   7.159 128.690  0.00  0.00    +0.000 C 
ATOM      4  C   UNL     1     -11.088   8.319 127.832  0.00  0.00    +0.000 C 
ATOM      5  C   UNL     1     -12.564   8.588 128.071  0.00  0.00    +0.000 C 
ATOM      6  C   UNL     1     -12.815   8.981 129.522  0.00  0.00    +0.000 C 
ATOM      7  C   UNL     1     -12.322   7.920 130.486  0.00  0.00    +0.000 C 
ENDBRANCH   1   2
BRANCH   1   8
ATOM      8  C   UNL     1      -9.100   6.132 131.679  0.00  0.00    +0.000 A 
ATOM      9  C   UNL     1      -8.689   5.509 132.872  0.00  0.00    +0.000 A 
ATOM     10  C   UNL     1      -7.393   5.607 133.379  0.00  0.00    +0.000 A 
ATOM     11  C   UNL     1      -6.396   6.121 132.603  0.00  0.00    +0.000 A 
ATOM     12  C   UNL     1      -6.728   6.702 131.385  0.00  0.00    +0.000 A 
ATOM     13  C   UNL     1      -8.076   6.828 131.026  0.00  0.00    +0.000 A 
ENDBRANCH   1   8
BRANCH   1  14
ATOM     14  O   UNL     1     -11.400   6.070 132.253  0.00  0.00    +0.000 OA
ATOM     15  H   UNL     1     -10.878   5.775 133.018  0.00  0.00    +0.000 HD
ENDBRANCH   1  14
BRANCH   1  16
ATOM     16  C   UNL     1     -10.923   4.828 130.243  0.00  0.00    +0.000 C 
BRANCH  16  17
ATOM     17  C   UNL     1     -10.238   3.525 130.661  0.00  0.00    +0.000 C 
BRANCH  17  18
ATOM     18  N   UNL     1      -9.458   2.882 129.589  0.00  0.00    +0.000 NA
ATOM     19  C   UNL     1      -8.605   1.850 130.219  0.00  0.00    +0.000 C 
ATOM     20  C   UNL     1      -7.352   2.575 130.674  0.00  0.00    +0.000 C 
ATOM     21  C   UNL     1      -7.108   3.538 129.533  0.00  0.00    +0.000 C 
ATOM     22  C   UNL     1      -8.501   3.859 128.993  0.00  0.00    +0.000 C 
ENDBRANCH  17  18
ENDBRANCH  16  17
ENDBRANCH   1  16
TORSDOF 6
ENDMDL
MODEL 2
REMARK VINA RESULT:      -6.7      6.810      9.459
REMARK  Name = Procyclidine
REMARK  6 active torsions:
REMARK  status: ('A' for Active; 'I' for Inactive)
REMARK    1  A    between atoms: O_1  and  C_2
REMARK    2  A    between atoms: C_2  and  C_3
REMARK    3  A    between atoms: C_2  and  C_10
REMARK    4  A    between atoms: C_2  and  C_16
REMARK    5  A    between atoms: C_3  and  C_4
REMARK    6  A    between atoms: C_4  and  N_5
REMARK                            x       y       z     vdW  Elec       q    Type
REMARK                         _______ _______ _______ _____ _____    ______ ____
ROOT
ATOM      1  C   UNL     1      -7.492   3.111 123.203  0.00  0.00    +0.000 C 
ENDROOT
BRANCH   1   2
ATOM      2  C   UNL     1      -8.147   1.689 123.556  0.00  0.00    +0.000 C 
ATOM      3  C   UNL     1      -7.138   0.516 123.516  0.00  0.00    +0.000 C 
ATOM      4  C   UNL     1      -7.746  -0.796 123.999  0.00  0.00    +0.000 C 
ATOM      5  C   UNL     1      -8.368  -0.637 125.376  0.00  0.00    +0.000 C 
ATOM      6  C   UNL     1      -9.500   0.384 125.344  0.00  0.00    +0.000 C 
ATOM      7  C   UNL     1      -9.029   1.731 124.833  0.00  0.00    +0.000 C 
ENDBRANCH   1   2
BRANCH   1   8
ATOM      8  C   UNL     1      -7.643   3.507 121.709  0.00  0.00    +0.000 A 
ATOM      9  C   UNL     1      -8.867   3.637 121.027  0.00  0.00    +0.000 A 
ATOM     10  C   UNL     1      -8.957   3.958 119.673  0.00  0.00    +0.000 A 
ATOM     11  C   UNL     1      -7.854   4.402 119.004  0.00  0.00    +0.000 A 
ATOM     12  C   UNL     1      -6.620   4.352 119.642  0.00  0.00    +0.000 A 
ATOM     13  C   UNL     1      -6.523   3.770 120.911  0.00  0.00    +0.000 A 
ENDBRANCH   1   8
BRANCH   1  14
ATOM     14  O   UNL     1      -8.191   4.140 123.928  0.00  0.00    +0.000 OA
ATOM     15  H   UNL     1      -8.427   4.846 123.303  0.00  0.00    +0.000 HD
ENDBRANCH   1  14
BRANCH   1  16
ATOM     16  C   UNL     1      -6.037   3.068 123.787  0.00  0.00    +0.000 C 
BRANCH  16  17
ATOM     17  C   UNL     1      -5.646   4.275 124.641  0.00  0.00    +0.000 C 
BRANCH  17  18
ATOM     18  N   UNL     1      -5.794   4.063 126.091  0.00  0.00    +0.000 NA
ATOM     19  C   UNL     1      -4.658   4.737 126.758  0.00  0.00    +0.000 C 
ATOM     20  C   UNL     1      -3.520   3.733 126.744  0.00  0.00    +0.000 C 
ATOM     21  C   UNL     1      -4.239   2.432 127.027  0.00  0.00    +0.000 C 
ATOM     22  C   UNL     1      -5.629   2.617 126.419  0.00  0.00    +0.000 C 
ENDBRANCH  17  18
ENDBRANCH  16  17
ENDBRANCH   1  16
TORSDOF 6
ENDMDL
MODEL 3
REMARK VINA RESULT:      -6.5      6.927      9.568
REMARK  Name = Procyclidine
REMARK  6 active torsions:
REMARK  status: ('A' for Active; 'I' for Inactive)
REMARK    1  A    between atoms: O_1  and  C_2
REMARK    2  A    between atoms: C_2  and  C_3
REMARK    3  A    between atoms: C_2  and  C_10
REMARK    4  A    between atoms: C_2  and  C_16
REMARK    5  A    between atoms: C_3  and  C_4
REMARK    6  A    between atoms: C_4  and  N_5
REMARK                            x       y       z     vdW  Elec       q    Type
REMARK                         _______ _______ _______ _____ _____    ______ ____
ROOT
ATOM      1  C   UNL     1      -7.060  -1.195 126.618  0.00  0.00    +0.000 C 
ENDROOT
BRANCH   1   2
ATOM      2  C   UNL     1      -7.263  -2.014 125.253  0.00  0.00    +0.000 C 
ATOM      3  C   UNL     1      -8.738  -2.387 124.969  0.00  0.00    +0.000 C 
ATOM      4  C   UNL     1      -8.926  -3.031 123.600  0.00  0.00    +0.000 C 
ATOM      5  C   UNL     1      -8.346  -2.157 122.500  0.00  0.00    +0.000 C 
ATOM      6  C   UNL     1      -6.845  -1.970 122.693  0.00  0.00    +0.000 C 
ATOM      7  C   UNL     1      -6.522  -1.374 124.049  0.00  0.00    +0.000 C 
ENDBRANCH   1   2
BRANCH   1   8
ATOM      8  C   UNL     1      -6.875  -2.104 127.863  0.00  0.00    +0.000 A 
ATOM      9  C   UNL     1      -5.636  -2.444 128.438  0.00  0.00    +0.000 A 
ATOM     10  C   UNL     1      -5.511  -3.296 129.535  0.00  0.00    +0.000 A 
ATOM     11  C   UNL     1      -6.617  -3.647 130.254  0.00  0.00    +0.000 A 
ATOM     12  C   UNL     1      -7.870  -3.292 129.769  0.00  0.00    +0.000 A 
ATOM     13  C   UNL     1      -7.975  -2.668 128.520  0.00  0.00    +0.000 A 
ENDBRANCH   1   8
BRANCH   1  14
ATOM     14  O   UNL     1      -5.838  -0.439 126.531  0.00  0.00    +0.000 OA
ATOM     15  H   UNL     1      -5.246  -0.734 127.243  0.00  0.00    +0.000 HD
ENDBRANCH   1  14
BRANCH   1  16
ATOM     16  C   UNL     1      -8.227  -0.148 126.665  0.00  0.00    +0.000 C 
BRANCH  16  17
ATOM     17  C   UNL     1      -7.850   1.264 126.211  0.00  0.00    +0.000 C 
BRANCH  17  18
ATOM     18  N   UNL     1      -8.975   2.043 125.664  0.00  0.00    +0.000 NA
ATOM     19  C   UNL     1      -9.694   1.172 124.708  0.00  0.00    +0.000 C 
ATOM     20  C   UNL     1      -8.965   1.327 123.385  0.00  0.00    +0.000 C 
ATOM     21  C   UNL     1      -8.641   2.805 123.370  0.00  0.00    +0.000 C 
ATOM     22  C   UNL     1      -8.464   3.178 124.842  0.00  0.00    +0.000 C 
ENDBRANCH  17  18
ENDBRANCH  16  17
ENDBRANCH   1  16
TORSDOF 6
ENDMDL
MODEL 4
REMARK VINA RESULT:      -6.5      7.401     10.143
REMARK  Name = Procyclidine
REMARK  6 active torsions:
REMARK  status: ('A' for Active; 'I' for Inactive)
REMARK    1  A    between atoms: O_1  and  C_2
REMARK    2  A    between atoms: C_2  and  C_3
REMARK    3  A    between atoms: C_2  and  C_10
REMARK    4  A    between atoms: C_2  and  C_16
REMARK    5  A    between atoms: C_3  and  C_4
REMARK    6  A    between atoms: C_4  and  N_5
REMARK                            x       y       z     vdW  Elec       q    Type
REMARK                         _______ _______ _______ _____ _____    ______ ____
ROOT
ATOM      1  C   UNL     1      -8.230  -0.839 125.460  0.00  0.00    +0.000 C 
ENDROOT
BRANCH   1   2
ATOM      2  C   UNL     1      -8.597  -1.650 126.795  0.00  0.00    +0.000 C 
ATOM      3  C   UNL     1      -8.771  -3.171 126.567  0.00  0.00    +0.000 C 
ATOM      4  C   UNL     1      -8.970  -3.939 127.868  0.00  0.00    +0.000 C 
ATOM      5  C   UNL     1      -7.854  -3.643 128.856  0.00  0.00    +0.000 C 
ATOM      6  C   UNL     1      -7.834  -2.163 129.220  0.00  0.00    +0.000 C 
ATOM      7  C   UNL     1      -7.684  -1.283 127.995  0.00  0.00    +0.000 C 
ENDBRANCH   1   2
BRANCH   1   8
ATOM      8  C   UNL     1      -7.104  -1.505 124.622  0.00  0.00    +0.000 A 
ATOM      9  C   UNL     1      -6.019  -2.225 125.155  0.00  0.00    +0.000 A 
ATOM     10  C   UNL     1      -5.007  -2.776 124.369  0.00  0.00    +0.000 A 
ATOM     11  C   UNL     1      -5.160  -2.846 123.015  0.00  0.00    +0.000 A 
ATOM     12  C   UNL     1      -6.243  -2.202 122.429  0.00  0.00    +0.000 A 
ATOM     13  C   UNL     1      -7.097  -1.427 123.225  0.00  0.00    +0.000 A 
ENDBRANCH   1   8
BRANCH   1  14
ATOM     14  O   UNL     1      -9.377  -0.829 124.590  0.00  0.00    +0.000 OA
ATOM     15  H   UNL     1     -10.158  -0.595 125.119  0.00  0.00    +0.000 HD
ENDBRANCH   1  14
BRANCH   1  16
ATOM     16  C   UNL     1      -8.001   0.646 125.911  0.00  0.00    +0.000 C 
BRANCH  16  17
ATOM     17  C   UNL     1      -6.988   1.428 125.073  0.00  0.00    +0.000 C 
BRANCH  17  18
ATOM     18  N   UNL     1      -7.429   2.786 124.706  0.00  0.00    +0.000 NA
ATOM     19  C   UNL     1      -8.858   2.702 124.331  0.00  0.00    +0.000 C 
ATOM     20  C   UNL     1      -8.875   2.318 122.863  0.00  0.00    +0.000 C 
ATOM     21  C   UNL     1      -7.723   3.126 122.308  0.00  0.00    +0.000 C 
ATOM     22  C   UNL     1      -6.732   3.236 123.466  0.00  0.00    +0.000 C 
ENDBRANCH  17  18
ENDBRANCH  16  17
ENDBRANCH   1  16
TORSDOF 6
ENDMDL
MODEL 5
REMARK VINA RESULT:      -6.5      1.673      5.463
REMARK  Name = Procyclidine
REMARK  6 active torsions:
REMARK  status: ('A' for Active; 'I' for Inactive)
REMARK    1  A    between atoms: O_1  and  C_2
REMARK    2  A    between atoms: C_2  and  C_3
REMARK    3  A    between atoms: C_2  and  C_10
REMARK    4  A    between atoms: C_2  and  C_16
REMARK    5  A    between atoms: C_3  and  C_4
REMARK    6  A    between atoms: C_4  and  N_5
REMARK                            x       y       z     vdW  Elec       q    Type
REMARK                         _______ _______ _______ _____ _____    ______ ____
ROOT
ATOM      1  C   UNL     1      -8.922   5.935 131.922  0.00  0.00    +0.000 C 
ENDROOT
BRANCH   1   2
ATOM      2  C   UNL     1      -7.425   6.456 132.169  0.00  0.00    +0.000 C 
ATOM      3  C   UNL     1      -6.618   5.574 133.153  0.00  0.00    +0.000 C 
ATOM      4  C   UNL     1      -5.158   5.999 133.257  0.00  0.00    +0.000 C 
ATOM      5  C   UNL     1      -4.504   6.053 131.887  0.00  0.00    +0.000 C 
ATOM      6  C   UNL     1      -5.196   7.080 130.998  0.00  0.00    +0.000 C 
ATOM      7  C   UNL     1      -6.677   6.792 130.852  0.00  0.00    +0.000 C 
ENDBRANCH   1   2
BRANCH   1   8
ATOM      8  C   UNL     1      -9.030   4.389 131.814  0.00  0.00    +0.000 A 
ATOM      9  C   UNL     1      -9.414   3.531 132.862  0.00  0.00    +0.000 A 
ATOM     10  C   UNL     1      -9.462   2.143 132.734  0.00  0.00    +0.000 A 
ATOM     11  C   UNL     1      -9.367   1.570 131.500  0.00  0.00    +0.000 A 
ATOM     12  C   UNL     1      -9.044   2.372 130.412  0.00  0.00    +0.000 A 
ATOM     13  C   UNL     1      -8.737   3.723 130.619  0.00  0.00    +0.000 A 
ENDBRANCH   1   8
BRANCH   1  14
ATOM     14  O   UNL     1      -9.731   6.280 133.062  0.00  0.00    +0.000 OA
ATOM     15  H   UNL     1     -10.316   5.530 133.259  0.00  0.00    +0.000 HD
ENDBRANCH   1  14
BRANCH   1  16
ATOM     16  C   UNL     1      -9.473   6.774 130.717  0.00  0.00    +0.000 C 
BRANCH  16  17
ATOM     17  C   UNL     1     -10.979   6.652 130.477  0.00  0.00    +0.000 C 
BRANCH  17  18
ATOM     18  N   UNL     1     -11.351   6.447 129.066  0.00  0.00    +0.000 NA
ATOM     19  C   UNL     1     -10.886   7.629 128.307  0.00  0.00    +0.000 C 
ATOM     20  C   UNL     1     -11.995   8.659 128.432  0.00  0.00    +0.000 C 
ATOM     21  C   UNL     1     -13.238   7.803 128.322  0.00  0.00    +0.000 C 
ATOM     22  C   UNL     1     -12.835   6.455 128.918  0.00  0.00    +0.000 C 
ENDBRANCH  17  18
ENDBRANCH  16  17
ENDBRANCH   1  16
TORSDOF 6
ENDMDL
MODEL 6
REMARK VINA RESULT:      -6.4      2.054      5.229
REMARK  Name = Procyclidine
REMARK  6 active torsions:
REMARK  status: ('A' for Active; 'I' for Inactive)
REMARK    1  A    between atoms: O_1  and  C_2
REMARK    2  A    between atoms: C_2  and  C_3
REMARK    3  A    between atoms: C_2  and  C_10
REMARK    4  A    between atoms: C_2  and  C_16
REMARK    5  A    between atoms: C_3  and  C_4
REMARK    6  A    between atoms: C_4  and  N_5
REMARK                            x       y       z     vdW  Elec       q    Type
REMARK                         _______ _______ _______ _____ _____    ______ ____
ROOT
ATOM      1  C   UNL     1      -7.573   5.731 131.068  0.00  0.00    +0.000 C 
ENDROOT
BRANCH   1   2
ATOM      2  C   UNL     1      -7.892   4.267 131.640  0.00  0.00    +0.000 C 
ATOM      3  C   UNL     1      -8.891   4.269 132.824  0.00  0.00    +0.000 C 
ATOM      4  C   UNL     1      -9.293   2.863 133.252  0.00  0.00    +0.000 C 
ATOM      5  C   UNL     1      -9.821   2.061 132.073  0.00  0.00    +0.000 C 
ATOM      6  C   UNL     1      -8.746   1.901 131.004  0.00  0.00    +0.000 C 
ATOM      7  C   UNL     1      -8.226   3.242 130.524  0.00  0.00    +0.000 C 
ENDBRANCH   1   2
BRANCH   1   8
ATOM      8  C   UNL     1      -6.178   6.269 131.489  0.00  0.00    +0.000 A 
ATOM      9  C   UNL     1      -5.493   5.905 132.663  0.00  0.00    +0.000 A 
ATOM     10  C   UNL     1      -4.256   6.441 133.024  0.00  0.00    +0.000 A 
ATOM     11  C   UNL     1      -3.541   7.171 132.119  0.00  0.00    +0.000 A 
ATOM     12  C   UNL     1      -4.142   7.517 130.914  0.00  0.00    +0.000 A 
ATOM     13  C   UNL     1      -5.485   7.190 130.695  0.00  0.00    +0.000 A 
ENDBRANCH   1   8
BRANCH   1  14
ATOM     14  O   UNL     1      -7.524   5.670 129.631  0.00  0.00    +0.000 OA
ATOM     15  H   UNL     1      -6.811   5.060 129.376  0.00  0.00    +0.000 HD
ENDBRANCH   1  14
BRANCH   1  16
ATOM     16  C   UNL     1      -8.818   6.613 131.432  0.00  0.00    +0.000 C 
BRANCH  16  17
ATOM     17  C   UNL     1      -9.623   7.122 130.235  0.00  0.00    +0.000 C 
BRANCH  17  18
ATOM     18  N   UNL     1     -10.870   6.376 129.985  0.00  0.00    +0.000 NA
ATOM     19  C   UNL     1     -11.692   7.183 129.056  0.00  0.00    +0.000 C 
ATOM     20  C   UNL     1     -12.466   8.152 129.931  0.00  0.00    +0.000 C 
ATOM     21  C   UNL     1     -12.826   7.290 131.121  0.00  0.00    +0.000 C 
ATOM     22  C   UNL     1     -11.677   6.289 131.237  0.00  0.00    +0.000 C 
ENDBRANCH  17  18
ENDBRANCH  16  17
ENDBRANCH   1  16
TORSDOF 6
ENDMDL
MODEL 7
REMARK VINA RESULT:      -6.4      1.561      2.127
REMARK  Name = Procyclidine
REMARK  6 active torsions:
REMARK  status: ('A' for Active; 'I' for Inactive)
REMARK    1  A    between atoms: O_1  and  C_2
REMARK    2  A    between atoms: C_2  and  C_3
REMARK    3  A    between atoms: C_2  and  C_10
REMARK    4  A    between atoms: C_2  and  C_16
REMARK    5  A    between atoms: C_3  and  C_4
REMARK    6  A    between atoms: C_4  and  N_5
REMARK                            x       y       z     vdW  Elec       q    Type
REMARK                         _______ _______ _______ _____ _____    ______ ____
ROOT
ATOM      1  C   UNL     1      -9.876   5.234 130.354  0.00  0.00    +0.000 C 
ENDROOT
BRANCH   1   2
ATOM      2  C   UNL     1     -10.556   6.678 130.192  0.00  0.00    +0.000 C 
ATOM      3  C   UNL     1     -10.461   7.249 128.756  0.00  0.00    +0.000 C 
ATOM      4  C   UNL     1     -11.241   8.548 128.590  0.00  0.00    +0.000 C 
ATOM      5  C   UNL     1     -12.685   8.380 129.033  0.00  0.00    +0.000 C 
ATOM      6  C   UNL     1     -12.757   8.014 130.511  0.00  0.00    +0.000 C 
ATOM      7  C   UNL     1     -11.974   6.752 130.817  0.00  0.00    +0.000 C 
ENDBRANCH   1   2
BRANCH   1   8
ATOM      8  C   UNL     1      -9.394   4.937 131.800  0.00  0.00    +0.000 A 
ATOM      9  C   UNL     1      -9.493   3.689 132.445  0.00  0.00    +0.000 A 
ATOM     10  C   UNL     1      -9.081   3.474 133.760  0.00  0.00    +0.000 A 
ATOM     11  C   UNL     1      -8.335   4.417 134.403  0.00  0.00    +0.000 A 
ATOM     12  C   UNL     1      -8.152   5.654 133.795  0.00  0.00    +0.000 A 
ATOM     13  C   UNL     1      -8.806   5.933 132.589  0.00  0.00    +0.000 A 
ENDBRANCH   1   8
BRANCH   1  14
ATOM     14  O   UNL     1     -10.862   4.221 130.081  0.00  0.00    +0.000 OA
ATOM     15  H   UNL     1     -10.900   4.084 129.120  0.00  0.00    +0.000 HD
ENDBRANCH   1  14
BRANCH   1  16
ATOM     16  C   UNL     1      -8.808   5.133 129.211  0.00  0.00    +0.000 C 
BRANCH  16  17
ATOM     17  C   UNL     1      -8.130   3.768 129.076  0.00  0.00    +0.000 C 
BRANCH  17  18
ATOM     18  N   UNL     1      -6.657   3.824 129.076  0.00  0.00    +0.000 NA
ATOM     19  C   UNL     1      -6.167   2.598 129.745  0.00  0.00    +0.000 C 
ATOM     20  C   UNL     1      -6.163   2.914 131.229  0.00  0.00    +0.000 C 
ATOM     21  C   UNL     1      -5.678   4.347 131.249  0.00  0.00    +0.000 C 
ATOM     22  C   UNL     1      -6.184   4.946 129.938  0.00  0.00    +0.000 C 
ENDBRANCH  17  18
ENDBRANCH  16  17
ENDBRANCH   1  16
TORSDOF 6
ENDMDL
MODEL 8
REMARK VINA RESULT:      -6.3      6.654      9.794
REMARK  Name = Procyclidine
REMARK  6 active torsions:
REMARK  status: ('A' for Active; 'I' for Inactive)
REMARK    1  A    between atoms: O_1  and  C_2
REMARK    2  A    between atoms: C_2  and  C_3
REMARK    3  A    between atoms: C_2  and  C_10
REMARK    4  A    between atoms: C_2  and  C_16
REMARK    5  A    between atoms: C_3  and  C_4
REMARK    6  A    between atoms: C_4  and  N_5
REMARK                            x       y       z     vdW  Elec       q    Type
REMARK                         _______ _______ _______ _____ _____    ______ ____
ROOT
ATOM      1  C   UNL     1      -7.577   1.032 123.981  0.00  0.00    +0.000 C 
ENDROOT
BRANCH   1   2
ATOM      2  C   UNL     1      -7.466  -0.503 123.531  0.00  0.00    +0.000 C 
ATOM      3  C   UNL     1      -6.370  -1.293 124.288  0.00  0.00    +0.000 C 
ATOM      4  C   UNL     1      -6.383  -2.780 123.954  0.00  0.00    +0.000 C 
ATOM      5  C   UNL     1      -7.762  -3.379 124.176  0.00  0.00    +0.000 C 
ATOM      6  C   UNL     1      -8.791  -2.718 123.267  0.00  0.00    +0.000 C 
ATOM      7  C   UNL     1      -8.843  -1.217 123.473  0.00  0.00    +0.000 C 
ENDBRANCH   1   2
BRANCH   1   8
ATOM      8  C   UNL     1      -7.547   2.029 122.791  0.00  0.00    +0.000 A 
ATOM      9  C   UNL     1      -8.672   2.691 122.263  0.00  0.00    +0.000 A 
ATOM     10  C   UNL     1      -8.608   3.552 121.167  0.00  0.00    +0.000 A 
ATOM     11  C   UNL     1      -7.396   3.978 120.707  0.00  0.00    +0.000 A 
ATOM     12  C   UNL     1      -6.243   3.403 121.227  0.00  0.00    +0.000 A 
ATOM     13  C   UNL     1      -6.351   2.345 122.138  0.00  0.00    +0.000 A 
ENDBRANCH   1   8
BRANCH   1  14
ATOM     14  O   UNL     1      -8.857   1.244 124.605  0.00  0.00    +0.000 OA
ATOM     15  H   UNL     1      -8.770   1.050 125.554  0.00  0.00    +0.000 HD
ENDBRANCH   1  14
BRANCH   1  16
ATOM     16  C   UNL     1      -6.499   1.228 125.103  0.00  0.00    +0.000 C 
BRANCH  16  17
ATOM     17  C   UNL     1      -7.015   1.870 126.393  0.00  0.00    +0.000 C 
BRANCH  17  18
ATOM     18  N   UNL     1      -6.355   3.142 126.739  0.00  0.00    +0.000 NA
ATOM     19  C   UNL     1      -7.419   4.140 126.988  0.00  0.00    +0.000 C 
ATOM     20  C   UNL     1      -7.770   4.712 125.627  0.00  0.00    +0.000 C 
ATOM     21  C   UNL     1      -6.415   4.814 124.964  0.00  0.00    +0.000 C 
ATOM     22  C   UNL     1      -5.602   3.668 125.564  0.00  0.00    +0.000 C 
ENDBRANCH  17  18
ENDBRANCH  16  17
ENDBRANCH   1  16
TORSDOF 6
ENDMDL
MODEL 9
REMARK VINA RESULT:      -6.3      2.257      4.049
REMARK  Name = Procyclidine
REMARK  6 active torsions:
REMARK  status: ('A' for Active; 'I' for Inactive)
REMARK    1  A    between atoms: O_1  and  C_2
REMARK    2  A    between atoms: C_2  and  C_3
REMARK    3  A    between atoms: C_2  and  C_10
REMARK    4  A    between atoms: C_2  and  C_16
REMARK    5  A    between atoms: C_3  and  C_4
REMARK    6  A    between atoms: C_4  and  N_5
REMARK                            x       y       z     vdW  Elec       q    Type
REMARK                         _______ _______ _______ _____ _____    ______ ____
ROOT
ATOM      1  C   UNL     1      -8.751   5.797 130.877  0.00  0.00    +0.000 C 
ENDROOT
BRANCH   1   2
ATOM      2  C   UNL     1      -9.977   6.829 130.791  0.00  0.00    +0.000 C 
ATOM      3  C   UNL     1     -10.317   7.267 129.346  0.00  0.00    +0.000 C 
ATOM      4  C   UNL     1     -11.575   8.125 129.275  0.00  0.00    +0.000 C 
ATOM      5  C   UNL     1     -12.750   7.430 129.943  0.00  0.00    +0.000 C 
ATOM      6  C   UNL     1     -12.468   7.191 131.421  0.00  0.00    +0.000 C 
ATOM      7  C   UNL     1     -11.204   6.379 131.629  0.00  0.00    +0.000 C 
ENDBRANCH   1   2
BRANCH   1   8
ATOM      8  C   UNL     1      -9.160   4.392 131.395  0.00  0.00    +0.000 A 
ATOM      9  C   UNL     1      -9.842   3.419 130.640  0.00  0.00    +0.000 A 
ATOM     10  C   UNL     1     -10.225   2.181 131.156  0.00  0.00    +0.000 A 
ATOM     11  C   UNL     1      -9.735   1.764 132.359  0.00  0.00    +0.000 A 
ATOM     12  C   UNL     1      -9.005   2.660 133.131  0.00  0.00    +0.000 A 
ATOM     13  C   UNL     1      -8.867   3.986 132.702  0.00  0.00    +0.000 A 
ENDBRANCH   1   8
BRANCH   1  14
ATOM     14  O   UNL     1      -8.243   5.565 129.550  0.00  0.00    +0.000 OA
ATOM     15  H   UNL     1      -7.527   6.200 129.382  0.00  0.00    +0.000 HD
ENDBRANCH   1  14
BRANCH   1  16
ATOM     16  C   UNL     1      -7.617   6.545 131.661  0.00  0.00    +0.000 C 
BRANCH  16  17
ATOM     17  C   UNL     1      -6.634   7.327 130.789  0.00  0.00    +0.000 C 
BRANCH  17  18
ATOM     18  N   UNL     1      -5.463   6.546 130.350  0.00  0.00    +0.000 NA
ATOM     19  C   UNL     1      -4.978   5.779 131.519  0.00  0.00    +0.000 C 
ATOM     20  C   UNL     1      -4.049   6.719 132.268  0.00  0.00    +0.000 C 
ATOM     21  C   UNL     1      -3.326   7.420 131.139  0.00  0.00    +0.000 C 
ATOM     22  C   UNL     1      -4.339   7.460 129.995  0.00  0.00    +0.000 C 
ENDBRANCH  17  18
ENDBRANCH  16  17
ENDBRANCH   1  16
TORSDOF 6
ENDMDL
