MODEL 1
REMARK VINA RESULT:      -5.8      0.000      0.000
REMARK  Name = Procaine
REMARK  10 active torsions:
REMARK  status: ('A' for Active; 'I' for Inactive)
REMARK    1  A    between atoms: C_1  and  C_2
REMARK    2  A    between atoms: C_2  and  N_3
REMARK    3  A    between atoms: N_3  and  C_4
REMARK    4  A    between atoms: N_3  and  C_6
REMARK    5  A    between atoms: C_4  and  C_5
REMARK    6  A    between atoms: C_6  and  C_7
REMARK    7  A    between atoms: C_7  and  O_8
REMARK    8  A    between atoms: O_8  and  C_9
REMARK    9  A    between atoms: C_9  and  C_11
REMARK   10  A    between atoms: C_14  and  N_15
REMARK                            x       y       z     vdW  Elec       q    Type
REMARK                         _______ _______ _______ _____ _____    ______ ____
ROOT
ATOM      1  C   UNL     1      -6.552   2.813 123.124  0.00  0.00    +0.000 C 
ATOM      2  O   UNL     1      -6.287   3.228 124.236  0.00  0.00    +0.000 OA
ENDROOT
BRANCH   1   3
ATOM      3  C   UNL     1      -6.330   3.629 121.900  0.00  0.00    +0.000 A 
ATOM      4  C   UNL     1      -5.153   4.353 121.707  0.00  0.00    +0.000 A 
ATOM      5  C   UNL     1      -4.951   5.056 120.510  0.00  0.00    +0.000 A 
ATOM      6  C   UNL     1      -5.907   5.036 119.489  0.00  0.00    +0.000 A 
ATOM      7  C   UNL     1      -7.084   4.312 119.690  0.00  0.00    +0.000 A 
ATOM      8  C   UNL     1      -7.293   3.602 120.882  0.00  0.00    +0.000 A 
BRANCH   6   9
ATOM      9  N   UNL     1      -5.720   5.773 118.333  0.00  0.00    +0.000 N 
ATOM     10  H   UNL     1      -6.436   6.409 118.009  0.00  0.00    +0.000 HD
ATOM     11  H   UNL     1      -4.811   5.820 117.894  0.00  0.00    +0.000 HD
ENDBRANCH   6   9
ENDBRANCH   1   3
BRANCH   1  12
ATOM     12  O   UNL     1      -7.026   1.566 122.819  0.00  0.00    +0.000 OA
BRANCH  12  13
ATOM     13  C   UNL     1      -8.000   1.092 123.777  0.00  0.00    +0.000 C 
BRANCH  13  14
ATOM     14  C   UNL     1      -7.625  -0.295 124.354  0.00  0.00    +0.000 C 
BRANCH  14  15
ATOM     15  N   UNL     1      -6.897  -1.199 123.403  0.00  0.00    +0.000 NA
BRANCH  15  17
ATOM     16  C   UNL     1      -5.058  -2.974 123.342  0.00  0.00    +0.000 C 
ATOM     17  C   UNL     1      -5.946  -2.043 124.169  0.00  0.00    +0.000 C 
ENDBRANCH  15  17
BRANCH  15  18
ATOM     18  C   UNL     1      -7.871  -1.987 122.616  0.00  0.00    +0.000 C 
ATOM     19  C   UNL     1      -8.897  -2.797 123.399  0.00  0.00    +0.000 C 
ENDBRANCH  15  18
ENDBRANCH  14  15
ENDBRANCH  13  14
ENDBRANCH  12  13
ENDBRANCH   1  12
TORSDOF 8
ENDMDL
MODEL 2
REMARK VINA RESULT:      -5.8      0.909      2.191
REMARK  Name = Procaine
REMARK  10 active torsions:
REMARK  status: ('A' for Active; 'I' for Inactive)
REMARK    1  A    between atoms: C_1  and  C_2
REMARK    2  A    between atoms: C_2  and  N_3
REMARK    3  A    between atoms: N_3  and  C_4
REMARK    4  A    between atoms: N_3  and  C_6
REMARK    5  A    between atoms: C_4  and  C_5
REMARK    6  A    between atoms: C_6  and  C_7
REMARK    7  A    between atoms: C_7  and  O_8
REMARK    8  A    between atoms: O_8  and  C_9
REMARK    9  A    between atoms: C_9  and  C_11
REMARK   10  A    between atoms: C_14  and  N_15
REMARK                            x       y       z     vdW  Elec       q    Type
REMARK                         _______ _______ _______ _____ _____    ______ ____
ROOT
ATOM      1  C   UNL     1      -7.786   2.776 122.882  0.00  0.00    +0.000 C 
ATOM      2  O   UNL     1      -8.909   2.989 123.298  0.00  0.00    +0.000 OA
ENDROOT
BRANCH   1   3
ATOM      3  C   UNL     1      -7.244   3.459 121.677  0.00  0.00    +0.000 A 
ATOM      4  C   UNL     1      -8.045   3.727 120.566  0.00  0.00    +0.000 A 
ATOM      5  C   UNL     1      -7.517   4.434 119.475  0.00  0.00    +0.000 A 
ATOM      6  C   UNL     1      -6.195   4.892 119.482  0.00  0.00    +0.000 A 
ATOM      7  C   UNL     1      -5.399   4.617 120.595  0.00  0.00    +0.000 A 
ATOM      8  C   UNL     1      -5.919   3.915 121.693  0.00  0.00    +0.000 A 
BRANCH   6   9
ATOM      9  N   UNL     1      -5.669   5.544 118.381  0.00  0.00    +0.000 N 
ATOM     10  H   UNL     1      -6.259   6.120 117.795  0.00  0.00    +0.000 HD
ATOM     11  H   UNL     1      -4.669   5.598 118.244  0.00  0.00    +0.000 HD
ENDBRANCH   6   9
ENDBRANCH   1   3
BRANCH   1  12
ATOM     12  O   UNL     1      -6.857   1.953 123.456  0.00  0.00    +0.000 OA
BRANCH  12  13
ATOM     13  C   UNL     1      -7.103   0.556 123.176  0.00  0.00    +0.000 C 
BRANCH  13  14
ATOM     14  C   UNL     1      -7.511  -0.231 124.446  0.00  0.00    +0.000 C 
BRANCH  14  15
ATOM     15  N   UNL     1      -7.201  -1.699 124.406  0.00  0.00    +0.000 NA
BRANCH  15  17
ATOM     16  C   UNL     1      -9.194  -3.050 123.546  0.00  0.00    +0.000 C 
ATOM     17  C   UNL     1      -7.892  -2.307 123.242  0.00  0.00    +0.000 C 
ENDBRANCH  15  17
BRANCH  15  18
ATOM     18  C   UNL     1      -5.737  -1.902 124.386  0.00  0.00    +0.000 C 
ATOM     19  C   UNL     1      -5.199  -2.958 123.428  0.00  0.00    +0.000 C 
ENDBRANCH  15  18
ENDBRANCH  14  15
ENDBRANCH  13  14
ENDBRANCH  12  13
ENDBRANCH   1  12
TORSDOF 8
ENDMDL
MODEL 3
REMARK VINA RESULT:      -5.5      9.524     10.651
REMARK  Name = Procaine
REMARK  10 active torsions:
REMARK  status: ('A' for Active; 'I' for Inactive)
REMARK    1  A    between atoms: C_1  and  C_2
REMARK    2  A    between atoms: C_2  and  N_3
REMARK    3  A    between atoms: N_3  and  C_4
REMARK    4  A    between atoms: N_3  and  C_6
REMARK    5  A    between atoms: C_4  and  C_5
REMARK    6  A    between atoms: C_6  and  C_7
REMARK    7  A    between atoms: C_7  and  O_8
REMARK    8  A    between atoms: O_8  and  C_9
REMARK    9  A    between atoms: C_9  and  C_11
REMARK   10  A    between atoms: C_14  and  N_15
REMARK                            x       y       z     vdW  Elec       q    Type
REMARK                         _______ _______ _______ _____ _____    ______ ____
ROOT
ATOM      1  C   UNL     1     -10.883   5.115 130.155  0.00  0.00    +0.000 C 
ATOM      2  O   UNL     1     -11.514   4.075 130.110  0.00  0.00    +0.000 OA
ENDROOT
BRANCH   1   3
ATOM      3  C   UNL     1     -11.509   6.434 129.872  0.00  0.00    +0.000 A 
ATOM      4  C   UNL     1     -12.388   7.035 130.774  0.00  0.00    +0.000 A 
ATOM      5  C   UNL     1     -12.905   8.311 130.504  0.00  0.00    +0.000 A 
ATOM      6  C   UNL     1     -12.545   9.007 129.346  0.00  0.00    +0.000 A 
ATOM      7  C   UNL     1     -11.668   8.399 128.446  0.00  0.00    +0.000 A 
ATOM      8  C   UNL     1     -11.142   7.125 128.709  0.00  0.00    +0.000 A 
BRANCH   6   9
ATOM      9  N   UNL     1     -13.099  10.243 129.064  0.00  0.00    +0.000 N 
ATOM     10  H   UNL     1     -12.976  10.666 128.154  0.00  0.00    +0.000 HD
ATOM     11  H   UNL     1     -13.773  10.661 129.692  0.00  0.00    +0.000 HD
ENDBRANCH   6   9
ENDBRANCH   1   3
BRANCH   1  12
ATOM     12  O   UNL     1      -9.569   5.246 130.509  0.00  0.00    +0.000 OA
BRANCH  12  13
ATOM     13  C   UNL     1      -8.847   3.995 130.442  0.00  0.00    +0.000 C 
BRANCH  13  14
ATOM     14  C   UNL     1      -7.993   3.744 131.709  0.00  0.00    +0.000 C 
BRANCH  14  15
ATOM     15  N   UNL     1      -8.627   2.845 132.730  0.00  0.00    +0.000 NA
BRANCH  15  17
ATOM     16  C   UNL     1      -8.202   4.459 134.666  0.00  0.00    +0.000 C 
ATOM     17  C   UNL     1      -9.204   3.677 133.816  0.00  0.00    +0.000 C 
ENDBRANCH  15  17
BRANCH  15  18
ATOM     18  C   UNL     1      -9.623   1.969 132.076  0.00  0.00    +0.000 C 
ATOM     19  C   UNL     1      -9.207   0.527 131.814  0.00  0.00    +0.000 C 
ENDBRANCH  15  18
ENDBRANCH  14  15
ENDBRANCH  13  14
ENDBRANCH  12  13
ENDBRANCH   1  12
TORSDOF 8
ENDMDL
MODEL 4
REMARK VINA RESULT:      -5.4      9.445     10.676
REMARK  Name = Procaine
REMARK  10 active torsions:
REMARK  status: ('A' for Active; 'I' for Inactive)
REMARK    1  A    between atoms: C_1  and  C_2
REMARK    2  A    between atoms: C_2  and  N_3
REMARK    3  A    between atoms: N_3  and  C_4
REMARK    4  A    between atoms: N_3  and  C_6
REMARK    5  A    between atoms: C_4  and  C_5
REMARK    6  A    between atoms: C_6  and  C_7
REMARK    7  A    between atoms: C_7  and  O_8
REMARK    8  A    between atoms: O_8  and  C_9
REMARK    9  A    between atoms: C_9  and  C_11
REMARK   10  A    between atoms: C_14  and  N_15
REMARK                            x       y       z     vdW  Elec       q    Type
REMARK                         _______ _______ _______ _____ _____    ______ ____
ROOT
ATOM      1  C   UNL     1      -9.809   5.412 129.182  0.00  0.00    +0.000 C 
ATOM      2  O   UNL     1      -8.797   5.291 128.518  0.00  0.00    +0.000 OA
ENDROOT
BRANCH   1   3
ATOM      3  C   UNL     1     -10.629   6.653 129.161  0.00  0.00    +0.000 A 
ATOM      4  C   UNL     1     -10.604   7.527 128.073  0.00  0.00    +0.000 A 
ATOM      5  C   UNL     1     -11.442   8.653 128.060  0.00  0.00    +0.000 A 
ATOM      6  C   UNL     1     -12.319   8.914 129.117  0.00  0.00    +0.000 A 
ATOM      7  C   UNL     1     -12.336   8.037 130.204  0.00  0.00    +0.000 A 
ATOM      8  C   UNL     1     -11.505   6.907 130.224  0.00  0.00    +0.000 A 
BRANCH   6   9
ATOM      9  N   UNL     1     -13.105  10.053 129.117  0.00  0.00    +0.000 N 
ATOM     10  H   UNL     1     -12.977  10.765 129.825  0.00  0.00    +0.000 HD
ATOM     11  H   UNL     1     -13.690  10.275 128.324  0.00  0.00    +0.000 HD
ENDBRANCH   6   9
ENDBRANCH   1   3
BRANCH   1  12
ATOM     12  O   UNL     1     -10.369   4.453 129.980  0.00  0.00    +0.000 OA
BRANCH  12  13
ATOM     13  C   UNL     1      -9.425   3.426 130.361  0.00  0.00    +0.000 C 
BRANCH  13  14
ATOM     14  C   UNL     1      -8.490   3.888 131.507  0.00  0.00    +0.000 C 
BRANCH  14  15
ATOM     15  N   UNL     1      -9.182   4.576 132.648  0.00  0.00    +0.000 NA
BRANCH  15  17
ATOM     16  C   UNL     1      -8.048   4.575 134.939  0.00  0.00    +0.000 C 
ATOM     17  C   UNL     1      -8.896   3.837 133.903  0.00  0.00    +0.000 C 
ENDBRANCH  15  17
BRANCH  15  18
ATOM     18  C   UNL     1      -8.768   5.995 132.701  0.00  0.00    +0.000 C 
ATOM     19  C   UNL     1      -7.658   6.427 131.750  0.00  0.00    +0.000 C 
ENDBRANCH  15  18
ENDBRANCH  14  15
ENDBRANCH  13  14
ENDBRANCH  12  13
ENDBRANCH   1  12
TORSDOF 8
ENDMDL
MODEL 5
REMARK VINA RESULT:      -5.3      9.261     10.794
REMARK  Name = Procaine
REMARK  10 active torsions:
REMARK  status: ('A' for Active; 'I' for Inactive)
REMARK    1  A    between atoms: C_1  and  C_2
REMARK    2  A    between atoms: C_2  and  N_3
REMARK    3  A    between atoms: N_3  and  C_4
REMARK    4  A    between atoms: N_3  and  C_6
REMARK    5  A    between atoms: C_4  and  C_5
REMARK    6  A    between atoms: C_6  and  C_7
REMARK    7  A    between atoms: C_7  and  O_8
REMARK    8  A    between atoms: O_8  and  C_9
REMARK    9  A    between atoms: C_9  and  C_11
REMARK   10  A    between atoms: C_14  and  N_15
REMARK                            x       y       z     vdW  Elec       q    Type
REMARK                         _______ _______ _______ _____ _____    ______ ____
ROOT
ATOM      1  C   UNL     1      -9.138   6.810 131.023  0.00  0.00    +0.000 C 
ATOM      2  O   UNL     1      -9.229   6.482 132.191  0.00  0.00    +0.000 OA
ENDROOT
BRANCH   1   3
ATOM      3  C   UNL     1     -10.315   7.259 130.231  0.00  0.00    +0.000 A 
ATOM      4  C   UNL     1     -10.166   7.959 129.034  0.00  0.00    +0.000 A 
ATOM      5  C   UNL     1     -11.298   8.307 128.280  0.00  0.00    +0.000 A 
ATOM      6  C   UNL     1     -12.584   7.953 128.701  0.00  0.00    +0.000 A 
ATOM      7  C   UNL     1     -12.725   7.256 129.902  0.00  0.00    +0.000 A 
ATOM      8  C   UNL     1     -11.599   6.899 130.660  0.00  0.00    +0.000 A 
BRANCH   6   9
ATOM      9  N   UNL     1     -13.696   8.344 127.977  0.00  0.00    +0.000 N 
ATOM     10  H   UNL     1     -14.084   9.271 128.092  0.00  0.00    +0.000 HD
ATOM     11  H   UNL     1     -14.030   7.784 127.204  0.00  0.00    +0.000 HD
ENDBRANCH   6   9
ENDBRANCH   1   3
BRANCH   1  12
ATOM     12  O   UNL     1      -7.985   6.868 130.289  0.00  0.00    +0.000 OA
BRANCH  12  13
ATOM     13  C   UNL     1      -6.799   6.766 131.108  0.00  0.00    +0.000 C 
BRANCH  13  14
ATOM     14  C   UNL     1      -5.730   5.840 130.476  0.00  0.00    +0.000 C 
BRANCH  14  15
ATOM     15  N   UNL     1      -4.699   6.542 129.641  0.00  0.00    +0.000 NA
BRANCH  15  17
ATOM     16  C   UNL     1      -3.313   7.999 131.220  0.00  0.00    +0.000 C 
ATOM     17  C   UNL     1      -4.455   7.892 130.209  0.00  0.00    +0.000 C 
ENDBRANCH  15  17
BRANCH  15  18
ATOM     18  C   UNL     1      -3.475   5.716 129.558  0.00  0.00    +0.000 C 
ATOM     19  C   UNL     1      -2.675   5.796 128.264  0.00  0.00    +0.000 C 
ENDBRANCH  15  18
ENDBRANCH  14  15
ENDBRANCH  13  14
ENDBRANCH  12  13
ENDBRANCH   1  12
TORSDOF 8
ENDMDL
MODEL 6
REMARK VINA RESULT:      -5.3      9.389     10.413
REMARK  Name = Procaine
REMARK  10 active torsions:
REMARK  status: ('A' for Active; 'I' for Inactive)
REMARK    1  A    between atoms: C_1  and  C_2
REMARK    2  A    between atoms: C_2  and  N_3
REMARK    3  A    between atoms: N_3  and  C_4
REMARK    4  A    between atoms: N_3  and  C_6
REMARK    5  A    between atoms: C_4  and  C_5
REMARK    6  A    between atoms: C_6  and  C_7
REMARK    7  A    between atoms: C_7  and  O_8
REMARK    8  A    between atoms: O_8  and  C_9
REMARK    9  A    between atoms: C_9  and  C_11
REMARK   10  A    between atoms: C_14  and  N_15
REMARK                            x       y       z     vdW  Elec       q    Type
REMARK                         _______ _______ _______ _____ _____    ______ ____
ROOT
ATOM      1  C   UNL     1      -9.137   6.917 130.835  0.00  0.00    +0.000 C 
ATOM      2  O   UNL     1      -8.044   6.872 130.303  0.00  0.00    +0.000 OA
ENDROOT
BRANCH   1   3
ATOM      3  C   UNL     1     -10.369   7.283 130.085  0.00  0.00    +0.000 A 
ATOM      4  C   UNL     1     -11.641   7.000 130.585  0.00  0.00    +0.000 A 
ATOM      5  C   UNL     1     -12.779   7.421 129.883  0.00  0.00    +0.000 A 
ATOM      6  C   UNL     1     -12.668   8.137 128.686  0.00  0.00    +0.000 A 
ATOM      7  C   UNL     1     -11.392   8.413 128.190  0.00  0.00    +0.000 A 
ATOM      8  C   UNL     1     -10.247   8.000 128.887  0.00  0.00    +0.000 A 
BRANCH   6   9
ATOM      9  N   UNL     1     -13.796   8.504 127.975  0.00  0.00    +0.000 N 
ATOM     10  H   UNL     1     -14.285   9.362 128.195  0.00  0.00    +0.000 HD
ATOM     11  H   UNL     1     -14.049   8.021 127.124  0.00  0.00    +0.000 HD
ENDBRANCH   6   9
ENDBRANCH   1   3
BRANCH   1  12
ATOM     12  O   UNL     1      -9.415   6.601 132.136  0.00  0.00    +0.000 OA
BRANCH  12  13
ATOM     13  C   UNL     1      -8.524   5.593 132.666  0.00  0.00    +0.000 C 
BRANCH  13  14
ATOM     14  C   UNL     1      -9.128   4.171 132.572  0.00  0.00    +0.000 C 
BRANCH  14  15
ATOM     15  N   UNL     1      -8.425   3.247 131.621  0.00  0.00    +0.000 NA
BRANCH  15  17
ATOM     16  C   UNL     1     -10.691   3.491 130.463  0.00  0.00    +0.000 C 
ATOM     17  C   UNL     1      -9.198   3.174 130.356  0.00  0.00    +0.000 C 
ENDBRANCH  15  17
BRANCH  15  18
ATOM     18  C   UNL     1      -7.030   3.697 131.426  0.00  0.00    +0.000 C 
ATOM     19  C   UNL     1      -5.933   2.829 132.031  0.00  0.00    +0.000 C 
ENDBRANCH  15  18
ENDBRANCH  14  15
ENDBRANCH  13  14
ENDBRANCH  12  13
ENDBRANCH   1  12
TORSDOF 8
ENDMDL
MODEL 7
REMARK VINA RESULT:      -5.2      2.203      2.876
REMARK  Name = Procaine
REMARK  10 active torsions:
REMARK  status: ('A' for Active; 'I' for Inactive)
REMARK    1  A    between atoms: C_1  and  C_2
REMARK    2  A    between atoms: C_2  and  N_3
REMARK    3  A    between atoms: N_3  and  C_4
REMARK    4  A    between atoms: N_3  and  C_6
REMARK    5  A    between atoms: C_4  and  C_5
REMARK    6  A    between atoms: C_6  and  C_7
REMARK    7  A    between atoms: C_7  and  O_8
REMARK    8  A    between atoms: O_8  and  C_9
REMARK    9  A    between atoms: C_9  and  C_11
REMARK   10  A    between atoms: C_14  and  N_15
REMARK                            x       y       z     vdW  Elec       q    Type
REMARK                         _______ _______ _______ _____ _____    ______ ____
ROOT
ATOM      1  C   UNL     1      -8.157   2.092 124.491  0.00  0.00    +0.000 C 
ATOM      2  O   UNL     1      -8.667   2.700 125.413  0.00  0.00    +0.000 OA
ENDROOT
BRANCH   1   3
ATOM      3  C   UNL     1      -7.810   2.751 123.203  0.00  0.00    +0.000 A 
ATOM      4  C   UNL     1      -6.495   3.096 122.888  0.00  0.00    +0.000 A 
ATOM      5  C   UNL     1      -6.197   3.654 121.636  0.00  0.00    +0.000 A 
ATOM      6  C   UNL     1      -7.197   3.862 120.681  0.00  0.00    +0.000 A 
ATOM      7  C   UNL     1      -8.512   3.518 121.004  0.00  0.00    +0.000 A 
ATOM      8  C   UNL     1      -8.819   2.956 122.252  0.00  0.00    +0.000 A 
BRANCH   6   9
ATOM      9  N   UNL     1      -6.902   4.458 119.468  0.00  0.00    +0.000 N 
ATOM     10  H   UNL     1      -7.345   4.139 118.617  0.00  0.00    +0.000 HD
ATOM     11  H   UNL     1      -6.379   5.323 119.433  0.00  0.00    +0.000 HD
ENDBRANCH   6   9
ENDBRANCH   1   3
BRANCH   1  12
ATOM     12  O   UNL     1      -7.783   0.776 124.500  0.00  0.00    +0.000 OA
BRANCH  12  13
ATOM     13  C   UNL     1      -8.156   0.101 125.722  0.00  0.00    +0.000 C 
BRANCH  13  14
ATOM     14  C   UNL     1      -9.304  -0.915 125.503  0.00  0.00    +0.000 C 
BRANCH  14  15
ATOM     15  N   UNL     1      -8.997  -2.319 125.936  0.00  0.00    +0.000 NA
BRANCH  15  17
ATOM     16  C   UNL     1      -9.405  -3.224 123.580  0.00  0.00    +0.000 C 
ATOM     17  C   UNL     1      -8.463  -3.077 124.777  0.00  0.00    +0.000 C 
ENDBRANCH  15  17
BRANCH  15  18
ATOM     18  C   UNL     1      -8.074  -2.296 127.091  0.00  0.00    +0.000 C 
ATOM     19  C   UNL     1      -8.380  -3.250 128.239  0.00  0.00    +0.000 C 
ENDBRANCH  15  18
ENDBRANCH  14  15
ENDBRANCH  13  14
ENDBRANCH  12  13
ENDBRANCH   1  12
TORSDOF 8
ENDMDL
MODEL 8
REMARK VINA RESULT:      -5.2      9.916     10.794
REMARK  Name = Procaine
REMARK  10 active torsions:
REMARK  status: ('A' for Active; 'I' for Inactive)
REMARK    1  A    between atoms: C_1  and  C_2
REMARK    2  A    between atoms: C_2  and  N_3
REMARK    3  A    between atoms: N_3  and  C_4
REMARK    4  A    between atoms: N_3  and  C_6
REMARK    5  A    between atoms: C_4  and  C_5
REMARK    6  A    between atoms: C_6  and  C_7
REMARK    7  A    between atoms: C_7  and  O_8
REMARK    8  A    between atoms: O_8  and  C_9
REMARK    9  A    between atoms: C_9  and  C_11
REMARK   10  A    between atoms: C_14  and  N_15
REMARK                            x       y       z     vdW  Elec       q    Type
REMARK                         _______ _______ _______ _____ _____    ______ ____
ROOT
ATOM      1  C   UNL     1     -11.069   5.501 130.694  0.00  0.00    +0.000 C 
ATOM      2  O   UNL     1     -11.113   4.501 130.002  0.00  0.00    +0.000 OA
ENDROOT
BRANCH   1   3
ATOM      3  C   UNL     1     -11.590   6.813 130.225  0.00  0.00    +0.000 A 
ATOM      4  C   UNL     1     -11.177   7.374 129.016  0.00  0.00    +0.000 A 
ATOM      5  C   UNL     1     -11.741   8.581 128.575  0.00  0.00    +0.000 A 
ATOM      6  C   UNL     1     -12.728   9.233 129.321  0.00  0.00    +0.000 A 
ATOM      7  C   UNL     1     -13.133   8.668 130.531  0.00  0.00    +0.000 A 
ATOM      8  C   UNL     1     -12.578   7.460 130.979  0.00  0.00    +0.000 A 
BRANCH   6   9
ATOM      9  N   UNL     1     -13.242  10.447 128.902  0.00  0.00    +0.000 N 
ATOM     10  H   UNL     1     -14.199  10.699 129.110  0.00  0.00    +0.000 HD
ATOM     11  H   UNL     1     -12.632  11.168 128.539  0.00  0.00    +0.000 HD
ENDBRANCH   6   9
ENDBRANCH   1   3
BRANCH   1  12
ATOM     12  O   UNL     1     -10.604   5.573 131.978  0.00  0.00    +0.000 OA
BRANCH  12  13
ATOM     13  C   UNL     1      -9.219   5.980 132.046  0.00  0.00    +0.000 C 
BRANCH  13  14
ATOM     14  C   UNL     1      -8.349   4.966 132.830  0.00  0.00    +0.000 C 
BRANCH  14  15
ATOM     15  N   UNL     1      -8.158   3.641 132.152  0.00  0.00    +0.000 NA
BRANCH  15  17
ATOM     16  C   UNL     1      -5.855   4.278 131.245  0.00  0.00    +0.000 C 
ATOM     17  C   UNL     1      -6.707   3.333 132.093  0.00  0.00    +0.000 C 
ENDBRANCH  15  17
BRANCH  15  18
ATOM     18  C   UNL     1      -8.945   2.602 132.852  0.00  0.00    +0.000 C 
ATOM     19  C   UNL     1      -9.929   1.798 132.011  0.00  0.00    +0.000 C 
ENDBRANCH  15  18
ENDBRANCH  14  15
ENDBRANCH  13  14
ENDBRANCH  12  13
ENDBRANCH   1  12
TORSDOF 8
ENDMDL
MODEL 9
REMARK VINA RESULT:      -5.1      2.783      6.934
REMARK  Name = Procaine
REMARK  10 active torsions:
REMARK  status: ('A' for Active; 'I' for Inactive)
REMARK    1  A    between atoms: C_1  and  C_2
REMARK    2  A    between atoms: C_2  and  N_3
REMARK    3  A    between atoms: N_3  and  C_4
REMARK    4  A    between atoms: N_3  and  C_6
REMARK    5  A    between atoms: C_4  and  C_5
REMARK    6  A    between atoms: C_6  and  C_7
REMARK    7  A    between atoms: C_7  and  O_8
REMARK    8  A    between atoms: O_8  and  C_9
REMARK    9  A    between atoms: C_9  and  C_11
REMARK   10  A    between atoms: C_14  and  N_15
REMARK                            x       y       z     vdW  Elec       q    Type
REMARK                         _______ _______ _______ _____ _____    ______ ____
ROOT
ATOM      1  C   UNL     1      -8.402  -1.298 124.071  0.00  0.00    +0.000 C 
ATOM      2  O   UNL     1      -9.440  -1.645 124.603  0.00  0.00    +0.000 OA
ENDROOT
BRANCH   1   3
ATOM      3  C   UNL     1      -7.262  -2.232 123.873  0.00  0.00    +0.000 A 
ATOM      4  C   UNL     1      -6.125  -1.857 123.156  0.00  0.00    +0.000 A 
ATOM      5  C   UNL     1      -5.041  -2.741 123.047  0.00  0.00    +0.000 A 
ATOM      6  C   UNL     1      -5.070  -3.999 123.659  0.00  0.00    +0.000 A 
ATOM      7  C   UNL     1      -6.212  -4.369 124.371  0.00  0.00    +0.000 A 
ATOM      8  C   UNL     1      -7.299  -3.490 124.489  0.00  0.00    +0.000 A 
BRANCH   6   9
ATOM      9  N   UNL     1      -4.017  -4.882 123.504  0.00  0.00    +0.000 N 
ATOM     10  H   UNL     1      -3.136  -4.719 123.973  0.00  0.00    +0.000 HD
ATOM     11  H   UNL     1      -4.160  -5.784 123.069  0.00  0.00    +0.000 HD
ENDBRANCH   6   9
ENDBRANCH   1   3
BRANCH   1  12
ATOM     12  O   UNL     1      -8.141  -0.064 123.543  0.00  0.00    +0.000 OA
BRANCH  12  13
ATOM     13  C   UNL     1      -9.343   0.654 123.184  0.00  0.00    +0.000 C 
BRANCH  13  14
ATOM     14  C   UNL     1      -9.597   1.868 124.112  0.00  0.00    +0.000 C 
BRANCH  14  15
ATOM     15  N   UNL     1      -8.861   3.119 123.731  0.00  0.00    +0.000 NA
BRANCH  15  17
ATOM     16  C   UNL     1      -7.934   4.584 125.610  0.00  0.00    +0.000 C 
ATOM     17  C   UNL     1      -7.772   3.357 124.712  0.00  0.00    +0.000 C 
ENDBRANCH  15  17
BRANCH  15  18
ATOM     18  C   UNL     1      -8.377   3.012 122.338  0.00  0.00    +0.000 C 
ATOM     19  C   UNL     1      -6.913   3.352 122.087  0.00  0.00    +0.000 C 
ENDBRANCH  15  18
ENDBRANCH  14  15
ENDBRANCH  13  14
ENDBRANCH  12  13
ENDBRANCH   1  12
TORSDOF 8
ENDMDL
