MODEL 1
REMARK VINA RESULT:      -6.8      0.000      0.000
REMARK  Name = Procaterol
REMARK  10 active torsions:
REMARK  status: ('A' for Active; 'I' for Inactive)
REMARK    1  A    between atoms: C_1  and  C_2
REMARK    2  A    between atoms: C_2  and  C_3
REMARK    3  A    between atoms: C_3  and  N_4
REMARK    4  A    between atoms: C_3  and  C_8
REMARK    5  A    between atoms: N_4  and  C_5
REMARK    6  A    between atoms: C_5  and  C_6
REMARK    7  A    between atoms: C_5  and  C_7
REMARK    8  A    between atoms: C_8  and  O_9
REMARK    9  A    between atoms: C_8  and  C_10
REMARK   10  A    between atoms: C_13  and  O_14
REMARK                            x       y       z     vdW  Elec       q    Type
REMARK                         _______ _______ _______ _____ _____    ______ ____
ROOT
ATOM      1  C   UNL     1      -7.683   2.987 123.477  0.00  0.00    +0.000 A 
ATOM      2  C   UNL     1      -6.557   3.276 124.283  0.00  0.00    +0.000 A 
ATOM      3  C   UNL     1      -5.417   3.883 123.753  0.00  0.00    +0.000 A 
ATOM      4  C   UNL     1      -5.378   4.189 122.398  0.00  0.00    +0.000 A 
ATOM      5  C   UNL     1      -6.482   3.916 121.585  0.00  0.00    +0.000 A 
ATOM      6  C   UNL     1      -7.639   3.314 122.107  0.00  0.00    +0.000 A 
ATOM      7  C   UNL     1      -8.795   3.207 121.206  0.00  0.00    +0.000 A 
ATOM      8  C   UNL     1      -8.835   3.867 120.051  0.00  0.00    +0.000 A 
ATOM      9  C   UNL     1      -7.573   4.317 119.429  0.00  0.00    +0.000 A 
ATOM     10  O   UNL     1      -7.553   4.618 118.257  0.00  0.00    +0.000 OA
ATOM     11  N   UNL     1      -6.465   4.309 120.239  0.00  0.00    +0.000 N 
ATOM     12  H   UNL     1      -5.590   4.624 119.840  0.00  0.00    +0.000 HD
ENDROOT
BRANCH   4  13
ATOM     13  O   UNL     1      -4.296   4.820 121.847  0.00  0.00    +0.000 OA
ATOM     14  H   UNL     1      -3.513   4.252 121.947  0.00  0.00    +0.000 HD
ENDBRANCH   4  13
BRANCH   1  15
ATOM     15  C   UNL     1      -8.956   2.518 124.172  0.00  0.00    +0.000 C 
BRANCH  15  16
ATOM     16  O   UNL     1      -9.306   3.458 125.189  0.00  0.00    +0.000 OA
ATOM     17  H   UNL     1     -10.057   3.984 124.888  0.00  0.00    +0.000 HD
ENDBRANCH  15  16
BRANCH  15  18
ATOM     18  C   UNL     1      -8.831   1.000 124.642  0.00  0.00    +0.000 C 
BRANCH  18  20
ATOM     19  C   UNL     1      -8.098   0.775 127.209  0.00  0.00    +0.000 C 
ATOM     20  C   UNL     1      -9.231   0.903 126.150  0.00  0.00    +0.000 C 
ENDBRANCH  18  20
BRANCH  18  21
ATOM     21  N   UNL     1      -9.592   0.170 123.642  0.00  0.00    +0.000 NA
ATOM     22  H   UNL     1      -9.983   0.806 122.938  0.00  0.00    +0.000 HD
BRANCH  21  23
ATOM     23  C   UNL     1      -8.833  -0.871 122.951  0.00  0.00    +0.000 C 
ATOM     24  C   UNL     1      -7.362  -0.756 123.300  0.00  0.00    +0.000 C 
ATOM     25  C   UNL     1      -9.129  -2.290 123.413  0.00  0.00    +0.000 C 
ENDBRANCH  21  23
ENDBRANCH  18  21
ENDBRANCH  15  18
ENDBRANCH   1  15
TORSDOF 7
ENDMDL
MODEL 2
REMARK VINA RESULT:      -6.6      3.378      5.548
REMARK  Name = Procaterol
REMARK  10 active torsions:
REMARK  status: ('A' for Active; 'I' for Inactive)
REMARK    1  A    between atoms: C_1  and  C_2
REMARK    2  A    between atoms: C_2  and  C_3
REMARK    3  A    between atoms: C_3  and  N_4
REMARK    4  A    between atoms: C_3  and  C_8
REMARK    5  A    between atoms: N_4  and  C_5
REMARK    6  A    between atoms: C_5  and  C_6
REMARK    7  A    between atoms: C_5  and  C_7
REMARK    8  A    between atoms: C_8  and  O_9
REMARK    9  A    between atoms: C_8  and  C_10
REMARK   10  A    between atoms: C_13  and  O_14
REMARK                            x       y       z     vdW  Elec       q    Type
REMARK                         _______ _______ _______ _____ _____    ______ ____
ROOT
ATOM      1  C   UNL     1      -7.759  -0.944 123.439  0.00  0.00    +0.000 A 
ATOM      2  C   UNL     1      -8.768  -1.576 122.676  0.00  0.00    +0.000 A 
ATOM      3  C   UNL     1     -10.000  -0.960 122.443  0.00  0.00    +0.000 A 
ATOM      4  C   UNL     1     -10.247   0.292 122.993  0.00  0.00    +0.000 A 
ATOM      5  C   UNL     1      -9.261   0.935 123.746  0.00  0.00    +0.000 A 
ATOM      6  C   UNL     1      -8.015   0.331 123.981  0.00  0.00    +0.000 A 
ATOM      7  C   UNL     1      -6.997   1.149 124.655  0.00  0.00    +0.000 A 
ATOM      8  C   UNL     1      -7.155   2.462 124.806  0.00  0.00    +0.000 A 
ATOM      9  C   UNL     1      -8.513   3.041 124.748  0.00  0.00    +0.000 A 
ATOM     10  O   UNL     1      -8.715   4.147 125.195  0.00  0.00    +0.000 OA
ATOM     11  N   UNL     1      -9.491   2.234 124.223  0.00  0.00    +0.000 N 
ATOM     12  H   UNL     1     -10.427   2.612 124.161  0.00  0.00    +0.000 HD
ENDROOT
BRANCH   4  13
ATOM     13  O   UNL     1     -11.426   0.946 122.756  0.00  0.00    +0.000 OA
ATOM     14  H   UNL     1     -11.844   1.163 123.607  0.00  0.00    +0.000 HD
ENDBRANCH   4  13
BRANCH   1  15
ATOM     15  C   UNL     1      -6.379  -1.591 123.470  0.00  0.00    +0.000 C 
BRANCH  15  16
ATOM     16  O   UNL     1      -5.956  -1.853 122.131  0.00  0.00    +0.000 OA
ATOM     17  H   UNL     1      -5.313  -2.574 122.138  0.00  0.00    +0.000 HD
ENDBRANCH  15  16
BRANCH  15  18
ATOM     18  C   UNL     1      -6.347  -2.836 124.465  0.00  0.00    +0.000 C 
BRANCH  18  20
ATOM     19  C   UNL     1      -4.576  -4.692 123.692  0.00  0.00    +0.000 C 
ATOM     20  C   UNL     1      -4.893  -3.408 124.513  0.00  0.00    +0.000 C 
ENDBRANCH  18  20
BRANCH  18  21
ATOM     21  N   UNL     1      -6.983  -2.382 125.753  0.00  0.00    +0.000 NA
ATOM     22  H   UNL     1      -7.395  -1.455 125.590  0.00  0.00    +0.000 HD
BRANCH  21  23
ATOM     23  C   UNL     1      -8.015  -3.253 126.311  0.00  0.00    +0.000 C 
ATOM     24  C   UNL     1      -8.039  -3.124 127.821  0.00  0.00    +0.000 C 
ATOM     25  C   UNL     1      -9.442  -2.856 125.964  0.00  0.00    +0.000 C 
ENDBRANCH  21  23
ENDBRANCH  18  21
ENDBRANCH  15  18
ENDBRANCH   1  15
TORSDOF 7
ENDMDL
MODEL 3
REMARK VINA RESULT:      -6.4      2.937      5.710
REMARK  Name = Procaterol
REMARK  10 active torsions:
REMARK  status: ('A' for Active; 'I' for Inactive)
REMARK    1  A    between atoms: C_1  and  C_2
REMARK    2  A    between atoms: C_2  and  C_3
REMARK    3  A    between atoms: C_3  and  N_4
REMARK    4  A    between atoms: C_3  and  C_8
REMARK    5  A    between atoms: N_4  and  C_5
REMARK    6  A    between atoms: C_5  and  C_6
REMARK    7  A    between atoms: C_5  and  C_7
REMARK    8  A    between atoms: C_8  and  O_9
REMARK    9  A    between atoms: C_8  and  C_10
REMARK   10  A    between atoms: C_13  and  O_14
REMARK                            x       y       z     vdW  Elec       q    Type
REMARK                         _______ _______ _______ _____ _____    ______ ____
ROOT
ATOM      1  C   UNL     1      -7.088   2.070 125.018  0.00  0.00    +0.000 A 
ATOM      2  C   UNL     1      -7.677   0.861 125.456  0.00  0.00    +0.000 A 
ATOM      3  C   UNL     1      -7.000  -0.013 126.311  0.00  0.00    +0.000 A 
ATOM      4  C   UNL     1      -5.710   0.303 126.721  0.00  0.00    +0.000 A 
ATOM      5  C   UNL     1      -5.112   1.495 126.303  0.00  0.00    +0.000 A 
ATOM      6  C   UNL     1      -5.785   2.387 125.451  0.00  0.00    +0.000 A 
ATOM      7  C   UNL     1      -5.131   3.677 125.191  0.00  0.00    +0.000 A 
ATOM      8  C   UNL     1      -4.093   4.084 125.917  0.00  0.00    +0.000 A 
ATOM      9  C   UNL     1      -3.284   3.087 126.648  0.00  0.00    +0.000 A 
ATOM     10  O   UNL     1      -2.175   3.379 127.036  0.00  0.00    +0.000 OA
ATOM     11  N   UNL     1      -3.845   1.843 126.794  0.00  0.00    +0.000 N 
ATOM     12  H   UNL     1      -3.316   1.147 127.301  0.00  0.00    +0.000 HD
ENDROOT
BRANCH   4  13
ATOM     13  O   UNL     1      -5.028  -0.506 127.589  0.00  0.00    +0.000 OA
ATOM     14  H   UNL     1      -4.088  -0.514 127.342  0.00  0.00    +0.000 HD
ENDBRANCH   4  13
BRANCH   1  15
ATOM     15  C   UNL     1      -7.968   3.057 124.260  0.00  0.00    +0.000 C 
BRANCH  15  16
ATOM     16  O   UNL     1      -9.093   3.397 125.071  0.00  0.00    +0.000 OA
ATOM     17  H   UNL     1      -9.161   4.358 125.129  0.00  0.00    +0.000 HD
ENDBRANCH  15  16
BRANCH  15  18
ATOM     18  C   UNL     1      -8.302   2.525 122.796  0.00  0.00    +0.000 C 
BRANCH  18  20
ATOM     19  C   UNL     1      -9.930   0.411 122.552  0.00  0.00    +0.000 C 
ATOM     20  C   UNL     1      -9.752   1.939 122.789  0.00  0.00    +0.000 C 
ENDBRANCH  18  20
BRANCH  18  21
ATOM     21  N   UNL     1      -7.977   3.643 121.840  0.00  0.00    +0.000 NA
ATOM     22  H   UNL     1      -7.888   4.508 122.387  0.00  0.00    +0.000 HD
BRANCH  21  23
ATOM     23  C   UNL     1      -6.766   3.480 121.038  0.00  0.00    +0.000 C 
ATOM     24  C   UNL     1      -6.905   4.239 119.733  0.00  0.00    +0.000 C 
ATOM     25  C   UNL     1      -5.521   4.133 121.620  0.00  0.00    +0.000 C 
ENDBRANCH  21  23
ENDBRANCH  18  21
ENDBRANCH  15  18
ENDBRANCH   1  15
TORSDOF 7
ENDMDL
MODEL 4
REMARK VINA RESULT:      -6.2      2.183      3.439
REMARK  Name = Procaterol
REMARK  10 active torsions:
REMARK  status: ('A' for Active; 'I' for Inactive)
REMARK    1  A    between atoms: C_1  and  C_2
REMARK    2  A    between atoms: C_2  and  C_3
REMARK    3  A    between atoms: C_3  and  N_4
REMARK    4  A    between atoms: C_3  and  C_8
REMARK    5  A    between atoms: N_4  and  C_5
REMARK    6  A    between atoms: C_5  and  C_6
REMARK    7  A    between atoms: C_5  and  C_7
REMARK    8  A    between atoms: C_8  and  O_9
REMARK    9  A    between atoms: C_8  and  C_10
REMARK   10  A    between atoms: C_13  and  O_14
REMARK                            x       y       z     vdW  Elec       q    Type
REMARK                         _______ _______ _______ _____ _____    ______ ____
ROOT
ATOM      1  C   UNL     1      -7.687   1.513 124.036  0.00  0.00    +0.000 A 
ATOM      2  C   UNL     1      -8.058   1.713 125.386  0.00  0.00    +0.000 A 
ATOM      3  C   UNL     1      -7.565   2.789 126.126  0.00  0.00    +0.000 A 
ATOM      4  C   UNL     1      -6.671   3.671 125.530  0.00  0.00    +0.000 A 
ATOM      5  C   UNL     1      -6.296   3.494 124.195  0.00  0.00    +0.000 A 
ATOM      6  C   UNL     1      -6.791   2.420 123.436  0.00  0.00    +0.000 A 
ATOM      7  C   UNL     1      -6.454   2.408 122.006  0.00  0.00    +0.000 A 
ATOM      8  C   UNL     1      -5.931   3.476 121.410  0.00  0.00    +0.000 A 
ATOM      9  C   UNL     1      -5.240   4.496 122.225  0.00  0.00    +0.000 A 
ATOM     10  O   UNL     1      -4.491   5.285 121.695  0.00  0.00    +0.000 OA
ATOM     11  N   UNL     1      -5.462   4.439 123.578  0.00  0.00    +0.000 N 
ATOM     12  H   UNL     1      -5.010   5.133 124.158  0.00  0.00    +0.000 HD
ENDROOT
BRANCH   4  13
ATOM     13  O   UNL     1      -6.195   4.760 126.208  0.00  0.00    +0.000 OA
ATOM     14  H   UNL     1      -6.942   5.332 126.452  0.00  0.00    +0.000 HD
ENDBRANCH   4  13
BRANCH   1  15
ATOM     15  C   UNL     1      -8.427   0.441 123.245  0.00  0.00    +0.000 C 
BRANCH  15  16
ATOM     16  O   UNL     1      -9.832   0.677 123.340  0.00  0.00    +0.000 OA
ATOM     17  H   UNL     1     -10.270   0.297 122.568  0.00  0.00    +0.000 HD
ENDBRANCH  15  16
BRANCH  15  18
ATOM     18  C   UNL     1      -7.939  -1.020 123.655  0.00  0.00    +0.000 C 
BRANCH  18  20
ATOM     19  C   UNL     1      -9.375  -3.278 123.792  0.00  0.00    +0.000 C 
ATOM     20  C   UNL     1      -8.854  -2.075 122.952  0.00  0.00    +0.000 C 
ENDBRANCH  18  20
BRANCH  18  21
ATOM     21  N   UNL     1      -6.455  -1.072 123.400  0.00  0.00    +0.000 NA
ATOM     22  H   UNL     1      -6.116  -0.106 123.321  0.00  0.00    +0.000 HD
BRANCH  21  23
ATOM     23  C   UNL     1      -5.648  -1.763 124.403  0.00  0.00    +0.000 C 
ATOM     24  C   UNL     1      -6.423  -1.875 125.702  0.00  0.00    +0.000 C 
ATOM     25  C   UNL     1      -5.375  -3.230 124.103  0.00  0.00    +0.000 C 
ENDBRANCH  21  23
ENDBRANCH  18  21
ENDBRANCH  15  18
ENDBRANCH   1  15
TORSDOF 7
ENDMDL
MODEL 5
REMARK VINA RESULT:      -6.0      2.354      2.975
REMARK  Name = Procaterol
REMARK  10 active torsions:
REMARK  status: ('A' for Active; 'I' for Inactive)
REMARK    1  A    between atoms: C_1  and  C_2
REMARK    2  A    between atoms: C_2  and  C_3
REMARK    3  A    between atoms: C_3  and  N_4
REMARK    4  A    between atoms: C_3  and  C_8
REMARK    5  A    between atoms: N_4  and  C_5
REMARK    6  A    between atoms: C_5  and  C_6
REMARK    7  A    between atoms: C_5  and  C_7
REMARK    8  A    between atoms: C_8  and  O_9
REMARK    9  A    between atoms: C_8  and  C_10
REMARK   10  A    between atoms: C_13  and  O_14
REMARK                            x       y       z     vdW  Elec       q    Type
REMARK                         _______ _______ _______ _____ _____    ______ ____
ROOT
ATOM      1  C   UNL     1      -6.892   1.336 125.257  0.00  0.00    +0.000 A 
ATOM      2  C   UNL     1      -5.834   2.034 125.886  0.00  0.00    +0.000 A 
ATOM      3  C   UNL     1      -5.313   3.211 125.344  0.00  0.00    +0.000 A 
ATOM      4  C   UNL     1      -5.830   3.694 124.148  0.00  0.00    +0.000 A 
ATOM      5  C   UNL     1      -6.879   3.022 123.513  0.00  0.00    +0.000 A 
ATOM      6  C   UNL     1      -7.419   1.842 124.052  0.00  0.00    +0.000 A 
ATOM      7  C   UNL     1      -8.612   1.297 123.392  0.00  0.00    +0.000 A 
ATOM      8  C   UNL     1      -9.294   2.009 122.499  0.00  0.00    +0.000 A 
ATOM      9  C   UNL     1      -8.628   3.129 121.803  0.00  0.00    +0.000 A 
ATOM     10  O   UNL     1      -9.103   3.571 120.781  0.00  0.00    +0.000 OA
ATOM     11  N   UNL     1      -7.450   3.567 122.354  0.00  0.00    +0.000 N 
ATOM     12  H   UNL     1      -6.980   4.340 121.903  0.00  0.00    +0.000 HD
ENDROOT
BRANCH   4  13
ATOM     13  O   UNL     1      -5.375   4.865 123.603  0.00  0.00    +0.000 OA
ATOM     14  H   UNL     1      -5.036   4.687 122.710  0.00  0.00    +0.000 HD
ENDBRANCH   4  13
BRANCH   1  15
ATOM     15  C   UNL     1      -7.536   0.183 126.019  0.00  0.00    +0.000 C 
BRANCH  15  16
ATOM     16  O   UNL     1      -8.015   0.664 127.275  0.00  0.00    +0.000 OA
ATOM     17  H   UNL     1      -7.274   1.018 127.782  0.00  0.00    +0.000 HD
ENDBRANCH  15  16
BRANCH  15  18
ATOM     18  C   UNL     1      -6.566  -1.080 126.082  0.00  0.00    +0.000 C 
BRANCH  18  20
ATOM     19  C   UNL     1      -8.902  -2.393 126.109  0.00  0.00    +0.000 C 
ATOM     20  C   UNL     1      -7.397  -2.335 126.504  0.00  0.00    +0.000 C 
ENDBRANCH  18  20
BRANCH  18  21
ATOM     21  N   UNL     1      -5.817  -1.121 124.776  0.00  0.00    +0.000 NA
ATOM     22  H   UNL     1      -4.813  -1.098 124.990  0.00  0.00    +0.000 HD
BRANCH  21  23
ATOM     23  C   UNL     1      -6.078  -2.271 123.913  0.00  0.00    +0.000 C 
ATOM     24  C   UNL     1      -6.521  -1.799 122.542  0.00  0.00    +0.000 C 
ATOM     25  C   UNL     1      -4.848  -3.091 123.552  0.00  0.00    +0.000 C 
ENDBRANCH  21  23
ENDBRANCH  18  21
ENDBRANCH  15  18
ENDBRANCH   1  15
TORSDOF 7
ENDMDL
MODEL 6
REMARK VINA RESULT:      -6.0      3.259      5.399
REMARK  Name = Procaterol
REMARK  10 active torsions:
REMARK  status: ('A' for Active; 'I' for Inactive)
REMARK    1  A    between atoms: C_1  and  C_2
REMARK    2  A    between atoms: C_2  and  C_3
REMARK    3  A    between atoms: C_3  and  N_4
REMARK    4  A    between atoms: C_3  and  C_8
REMARK    5  A    between atoms: N_4  and  C_5
REMARK    6  A    between atoms: C_5  and  C_6
REMARK    7  A    between atoms: C_5  and  C_7
REMARK    8  A    between atoms: C_8  and  O_9
REMARK    9  A    between atoms: C_8  and  C_10
REMARK   10  A    between atoms: C_13  and  O_14
REMARK                            x       y       z     vdW  Elec       q    Type
REMARK                         _______ _______ _______ _____ _____    ______ ____
ROOT
ATOM      1  C   UNL     1      -7.069   0.019 124.553  0.00  0.00    +0.000 A 
ATOM      2  C   UNL     1      -8.071   0.289 123.592  0.00  0.00    +0.000 A 
ATOM      3  C   UNL     1      -8.427   1.598 123.257  0.00  0.00    +0.000 A 
ATOM      4  C   UNL     1      -7.799   2.658 123.900  0.00  0.00    +0.000 A 
ATOM      5  C   UNL     1      -6.803   2.412 124.849  0.00  0.00    +0.000 A 
ATOM      6  C   UNL     1      -6.428   1.102 125.189  0.00  0.00    +0.000 A 
ATOM      7  C   UNL     1      -5.272   0.953 126.083  0.00  0.00    +0.000 A 
ATOM      8  C   UNL     1      -4.470   1.979 126.352  0.00  0.00    +0.000 A 
ATOM      9  C   UNL     1      -4.968   3.357 126.168  0.00  0.00    +0.000 A 
ATOM     10  O   UNL     1      -4.395   4.282 126.699  0.00  0.00    +0.000 OA
ATOM     11  N   UNL     1      -6.115   3.490 125.426  0.00  0.00    +0.000 N 
ATOM     12  H   UNL     1      -6.471   4.425 125.276  0.00  0.00    +0.000 HD
ENDROOT
BRANCH   4  13
ATOM     13  O   UNL     1      -8.091   3.954 123.573  0.00  0.00    +0.000 OA
ATOM     14  H   UNL     1      -8.571   4.366 124.311  0.00  0.00    +0.000 HD
ENDBRANCH   4  13
BRANCH   1  15
ATOM     15  C   UNL     1      -6.599  -1.422 124.706  0.00  0.00    +0.000 C 
BRANCH  15  16
ATOM     16  O   UNL     1      -6.085  -1.881 123.455  0.00  0.00    +0.000 OA
ATOM     17  H   UNL     1      -5.621  -2.717 123.591  0.00  0.00    +0.000 HD
ENDBRANCH  15  16
BRANCH  15  18
ATOM     18  C   UNL     1      -7.729  -2.331 125.367  0.00  0.00    +0.000 C 
BRANCH  18  20
ATOM     19  C   UNL     1      -9.420  -3.264 123.511  0.00  0.00    +0.000 C 
ATOM     20  C   UNL     1      -8.129  -3.456 124.358  0.00  0.00    +0.000 C 
ENDBRANCH  18  20
BRANCH  18  21
ATOM     21  N   UNL     1      -7.224  -2.734 126.728  0.00  0.00    +0.000 NA
ATOM     22  H   UNL     1      -6.445  -2.110 126.972  0.00  0.00    +0.000 HD
BRANCH  21  23
ATOM     23  C   UNL     1      -8.197  -2.703 127.818  0.00  0.00    +0.000 C 
ATOM     24  C   UNL     1      -8.980  -4.002 127.848  0.00  0.00    +0.000 C 
ATOM     25  C   UNL     1      -7.593  -2.698 129.214  0.00  0.00    +0.000 C 
ENDBRANCH  21  23
ENDBRANCH  18  21
ENDBRANCH  15  18
ENDBRANCH   1  15
TORSDOF 7
ENDMDL
MODEL 7
REMARK VINA RESULT:      -5.9      5.200      7.330
REMARK  Name = Procaterol
REMARK  10 active torsions:
REMARK  status: ('A' for Active; 'I' for Inactive)
REMARK    1  A    between atoms: C_1  and  C_2
REMARK    2  A    between atoms: C_2  and  C_3
REMARK    3  A    between atoms: C_3  and  N_4
REMARK    4  A    between atoms: C_3  and  C_8
REMARK    5  A    between atoms: N_4  and  C_5
REMARK    6  A    between atoms: C_5  and  C_6
REMARK    7  A    between atoms: C_5  and  C_7
REMARK    8  A    between atoms: C_8  and  O_9
REMARK    9  A    between atoms: C_8  and  C_10
REMARK   10  A    between atoms: C_13  and  O_14
REMARK                            x       y       z     vdW  Elec       q    Type
REMARK                         _______ _______ _______ _____ _____    ______ ____
ROOT
ATOM      1  C   UNL     1      -8.535  -2.472 126.810  0.00  0.00    +0.000 A 
ATOM      2  C   UNL     1      -8.533  -3.549 127.727  0.00  0.00    +0.000 A 
ATOM      3  C   UNL     1      -8.010  -3.410 129.015  0.00  0.00    +0.000 A 
ATOM      4  C   UNL     1      -7.459  -2.192 129.395  0.00  0.00    +0.000 A 
ATOM      5  C   UNL     1      -7.455  -1.114 128.506  0.00  0.00    +0.000 A 
ATOM      6  C   UNL     1      -7.986  -1.237 127.211  0.00  0.00    +0.000 A 
ATOM      7  C   UNL     1      -8.070  -0.009 126.408  0.00  0.00    +0.000 A 
ATOM      8  C   UNL     1      -7.895   1.189 126.959  0.00  0.00    +0.000 A 
ATOM      9  C   UNL     1      -7.156   1.301 128.233  0.00  0.00    +0.000 A 
ATOM     10  O   UNL     1      -6.709   2.372 128.578  0.00  0.00    +0.000 OA
ATOM     11  N   UNL     1      -6.975   0.134 128.931  0.00  0.00    +0.000 N 
ATOM     12  H   UNL     1      -6.482   0.185 129.812  0.00  0.00    +0.000 HD
ENDROOT
BRANCH   4  13
ATOM     13  O   UNL     1      -6.972  -2.002 130.660  0.00  0.00    +0.000 OA
ATOM     14  H   UNL     1      -7.693  -2.127 131.299  0.00  0.00    +0.000 HD
ENDBRANCH   4  13
BRANCH   1  15
ATOM     15  C   UNL     1      -9.307  -2.647 125.508  0.00  0.00    +0.000 C 
BRANCH  15  16
ATOM     16  O   UNL     1     -10.565  -3.262 125.790  0.00  0.00    +0.000 OA
ATOM     17  H   UNL     1     -10.790  -3.865 125.069  0.00  0.00    +0.000 HD
ENDBRANCH  15  16
BRANCH  15  18
ATOM     18  C   UNL     1      -8.415  -3.365 124.400  0.00  0.00    +0.000 C 
BRANCH  18  20
ATOM     19  C   UNL     1      -9.247  -1.227 123.016  0.00  0.00    +0.000 C 
ATOM     20  C   UNL     1      -8.662  -2.669 123.022  0.00  0.00    +0.000 C 
ENDBRANCH  18  20
BRANCH  18  21
ATOM     21  N   UNL     1      -7.009  -3.415 124.937  0.00  0.00    +0.000 NA
ATOM     22  H   UNL     1      -6.794  -4.394 125.163  0.00  0.00    +0.000 HD
BRANCH  21  23
ATOM     23  C   UNL     1      -5.959  -2.904 124.057  0.00  0.00    +0.000 C 
ATOM     24  C   UNL     1      -5.300  -1.694 124.689  0.00  0.00    +0.000 C 
ATOM     25  C   UNL     1      -4.763  -3.829 123.887  0.00  0.00    +0.000 C 
ENDBRANCH  21  23
ENDBRANCH  18  21
ENDBRANCH  15  18
ENDBRANCH   1  15
TORSDOF 7
ENDMDL
MODEL 8
REMARK VINA RESULT:      -5.9      4.305      7.664
REMARK  Name = Procaterol
REMARK  10 active torsions:
REMARK  status: ('A' for Active; 'I' for Inactive)
REMARK    1  A    between atoms: C_1  and  C_2
REMARK    2  A    between atoms: C_2  and  C_3
REMARK    3  A    between atoms: C_3  and  N_4
REMARK    4  A    between atoms: C_3  and  C_8
REMARK    5  A    between atoms: N_4  and  C_5
REMARK    6  A    between atoms: C_5  and  C_6
REMARK    7  A    between atoms: C_5  and  C_7
REMARK    8  A    between atoms: C_8  and  O_9
REMARK    9  A    between atoms: C_8  and  C_10
REMARK   10  A    between atoms: C_13  and  O_14
REMARK                            x       y       z     vdW  Elec       q    Type
REMARK                         _______ _______ _______ _____ _____    ______ ____
ROOT
ATOM      1  C   UNL     1      -8.452  -2.225 126.669  0.00  0.00    +0.000 A 
ATOM      2  C   UNL     1      -8.717  -3.516 127.182  0.00  0.00    +0.000 A 
ATOM      3  C   UNL     1      -8.487  -3.830 128.523  0.00  0.00    +0.000 A 
ATOM      4  C   UNL     1      -7.966  -2.858 129.368  0.00  0.00    +0.000 A 
ATOM      5  C   UNL     1      -7.702  -1.574 128.883  0.00  0.00    +0.000 A 
ATOM      6  C   UNL     1      -7.936  -1.242 127.538  0.00  0.00    +0.000 A 
ATOM      7  C   UNL     1      -7.769   0.169 127.164  0.00  0.00    +0.000 A 
ATOM      8  C   UNL     1      -7.653   1.120 128.087  0.00  0.00    +0.000 A 
ATOM      9  C   UNL     1      -7.211   0.758 129.450  0.00  0.00    +0.000 A 
ATOM     10  O   UNL     1      -6.793   1.615 130.195  0.00  0.00    +0.000 OA
ATOM     11  N   UNL     1      -7.259  -0.577 129.765  0.00  0.00    +0.000 N 
ATOM     12  H   UNL     1      -6.972  -0.850 130.695  0.00  0.00    +0.000 HD
ENDROOT
BRANCH   4  13
ATOM     13  O   UNL     1      -7.764  -3.113 130.698  0.00  0.00    +0.000 OA
ATOM     14  H   UNL     1      -7.123  -3.838 130.787  0.00  0.00    +0.000 HD
ENDBRANCH   4  13
BRANCH   1  15
ATOM     15  C   UNL     1      -8.923  -1.909 125.254  0.00  0.00    +0.000 C 
BRANCH  15  16
ATOM     16  O   UNL     1      -9.849  -2.913 124.836  0.00  0.00    +0.000 OA
ATOM     17  H   UNL     1     -10.677  -2.799 125.318  0.00  0.00    +0.000 HD
ENDBRANCH  15  16
BRANCH  15  18
ATOM     18  C   UNL     1      -7.688  -1.654 124.279  0.00  0.00    +0.000 C 
BRANCH  18  20
ATOM     19  C   UNL     1      -5.504  -3.106 123.734  0.00  0.00    +0.000 C 
ATOM     20  C   UNL     1      -7.050  -3.029 123.900  0.00  0.00    +0.000 C 
ENDBRANCH  18  20
BRANCH  18  21
ATOM     21  N   UNL     1      -8.186  -0.763 123.170  0.00  0.00    +0.000 NA
ATOM     22  H   UNL     1      -8.658  -1.358 122.478  0.00  0.00    +0.000 HD
BRANCH  21  23
ATOM     23  C   UNL     1      -9.101   0.308 123.558  0.00  0.00    +0.000 C 
ATOM     24  C   UNL     1      -8.367   1.635 123.568  0.00  0.00    +0.000 C 
ATOM     25  C   UNL     1     -10.207   0.598 122.555  0.00  0.00    +0.000 C 
ENDBRANCH  21  23
ENDBRANCH  18  21
ENDBRANCH  15  18
ENDBRANCH   1  15
TORSDOF 7
ENDMDL
MODEL 9
REMARK VINA RESULT:      -5.9      2.899      4.334
REMARK  Name = Procaterol
REMARK  10 active torsions:
REMARK  status: ('A' for Active; 'I' for Inactive)
REMARK    1  A    between atoms: C_1  and  C_2
REMARK    2  A    between atoms: C_2  and  C_3
REMARK    3  A    between atoms: C_3  and  N_4
REMARK    4  A    between atoms: C_3  and  C_8
REMARK    5  A    between atoms: N_4  and  C_5
REMARK    6  A    between atoms: C_5  and  C_6
REMARK    7  A    between atoms: C_5  and  C_7
REMARK    8  A    between atoms: C_8  and  O_9
REMARK    9  A    between atoms: C_8  and  C_10
REMARK   10  A    between atoms: C_13  and  O_14
REMARK                            x       y       z     vdW  Elec       q    Type
REMARK                         _______ _______ _______ _____ _____    ______ ____
ROOT
ATOM      1  C   UNL     1      -7.323   0.003 125.753  0.00  0.00    +0.000 A 
ATOM      2  C   UNL     1      -7.103  -0.031 127.149  0.00  0.00    +0.000 A 
ATOM      3  C   UNL     1      -6.425   0.999 127.806  0.00  0.00    +0.000 A 
ATOM      4  C   UNL     1      -5.936   2.069 127.067  0.00  0.00    +0.000 A 
ATOM      5  C   UNL     1      -6.147   2.123 125.686  0.00  0.00    +0.000 A 
ATOM      6  C   UNL     1      -6.835   1.099 125.014  0.00  0.00    +0.000 A 
ATOM      7  C   UNL     1      -7.134   1.322 123.593  0.00  0.00    +0.000 A 
ATOM      8  C   UNL     1      -6.992   2.523 123.037  0.00  0.00    +0.000 A 
ATOM      9  C   UNL     1      -6.100   3.514 123.671  0.00  0.00    +0.000 A 
ATOM     10  O   UNL     1      -5.706   4.465 123.033  0.00  0.00    +0.000 OA
ATOM     11  N   UNL     1      -5.725   3.250 124.964  0.00  0.00    +0.000 N 
ATOM     12  H   UNL     1      -5.124   3.919 125.425  0.00  0.00    +0.000 HD
ENDROOT
BRANCH   4  13
ATOM     13  O   UNL     1      -5.301   3.117 127.677  0.00  0.00    +0.000 OA
ATOM     14  H   UNL     1      -4.911   3.690 126.995  0.00  0.00    +0.000 HD
ENDBRANCH   4  13
BRANCH   1  15
ATOM     15  C   UNL     1      -8.246  -1.051 125.152  0.00  0.00    +0.000 C 
BRANCH  15  16
ATOM     16  O   UNL     1      -9.601  -0.707 125.446  0.00  0.00    +0.000 OA
ATOM     17  H   UNL     1     -10.088  -1.509 125.676  0.00  0.00    +0.000 HD
ENDBRANCH  15  16
BRANCH  15  18
ATOM     18  C   UNL     1      -7.796  -2.521 125.572  0.00  0.00    +0.000 C 
BRANCH  18  20
ATOM     19  C   UNL     1      -8.810  -3.757 127.722  0.00  0.00    +0.000 C 
ATOM     20  C   UNL     1      -8.998  -3.239 126.266  0.00  0.00    +0.000 C 
ENDBRANCH  18  20
BRANCH  18  21
ATOM     21  N   UNL     1      -7.187  -3.157 124.350  0.00  0.00    +0.000 NA
ATOM     22  H   UNL     1      -7.886  -3.123 123.598  0.00  0.00    +0.000 HD
BRANCH  21  23
ATOM     23  C   UNL     1      -5.948  -2.560 123.855  0.00  0.00    +0.000 C 
ATOM     24  C   UNL     1      -4.875  -3.625 123.734  0.00  0.00    +0.000 C 
ATOM     25  C   UNL     1      -6.012  -2.051 122.423  0.00  0.00    +0.000 C 
ENDBRANCH  21  23
ENDBRANCH  18  21
ENDBRANCH  15  18
ENDBRANCH   1  15
TORSDOF 7
ENDMDL
