MODEL 1
REMARK VINA RESULT:      -6.5      0.000      0.000
REMARK  Name = Procarbazine
REMARK  8 active torsions:
REMARK  status: ('A' for Active; 'I' for Inactive)
REMARK    1  A    between atoms: C_1  and  N_2
REMARK    2  A    between atoms: N_2  and  N_3
REMARK    3  A    between atoms: N_3  and  C_4
REMARK    4  A    between atoms: C_4  and  C_5
REMARK    5  A    between atoms: C_8  and  C_11
REMARK    6  A    between atoms: N_13  and  C_14
REMARK    7  A    between atoms: C_14  and  C_15
REMARK    8  A    between atoms: C_14  and  C_16
REMARK                            x       y       z     vdW  Elec       q    Type
REMARK                         _______ _______ _______ _____ _____    ______ ____
ROOT
ATOM      1  C   UNL     1     -12.532   8.305 130.179  0.00  0.00    +0.000 A 
ATOM      2  C   UNL     1     -12.708   7.431 131.257  0.00  0.00    +0.000 A 
ATOM      3  C   UNL     1     -11.887   6.309 131.387  0.00  0.00    +0.000 A 
ATOM      4  C   UNL     1     -10.951   5.983 130.390  0.00  0.00    +0.000 A 
ATOM      5  C   UNL     1     -10.816   6.831 129.287  0.00  0.00    +0.000 A 
ATOM      6  C   UNL     1     -11.600   7.983 129.185  0.00  0.00    +0.000 A 
ENDROOT
BRANCH   4   7
ATOM      7  C   UNL     1     -10.175   4.715 130.550  0.00  0.00    +0.000 C 
ATOM      8  O   UNL     1      -9.654   4.205 129.557  0.00  0.00    +0.000 OA
ATOM      9  N   UNL     1     -10.034   4.184 131.820  0.00  0.00    +0.000 N 
ATOM     10  H   UNL     1     -10.488   4.615 132.609  0.00  0.00    +0.000 HD
BRANCH   9  11
ATOM     11  C   UNL     1      -9.215   3.003 132.078  0.00  0.00    +0.000 C 
ATOM     12  C   UNL     1      -8.612   3.036 133.484  0.00  0.00    +0.000 C 
ATOM     13  C   UNL     1     -10.038   1.722 131.924  0.00  0.00    +0.000 C 
ENDBRANCH   9  11
ENDBRANCH   4   7
BRANCH   1  14
ATOM     14  C   UNL     1     -13.193   9.663 130.187  0.00  0.00    +0.000 C 
BRANCH  14  15
ATOM     15  N   UNL     1     -13.098  10.233 128.833  0.00  0.00    +0.000 NA
ATOM     16  H   UNL     1     -12.107  10.425 128.650  0.00  0.00    +0.000 HD
BRANCH  15  18
ATOM     17  C   UNL     1     -13.772  12.150 130.023  0.00  0.00    +0.000 C 
ATOM     18  N   UNL     1     -13.887  11.441 128.747  0.00  0.00    +0.000 NA
ATOM     19  H   UNL     1     -13.514  12.056 128.018  0.00  0.00    +0.000 HD
ENDBRANCH  15  18
ENDBRANCH  14  15
ENDBRANCH   1  14
TORSDOF 5
ENDMDL
MODEL 2
REMARK VINA RESULT:      -6.2      1.830      2.435
REMARK  Name = Procarbazine
REMARK  8 active torsions:
REMARK  status: ('A' for Active; 'I' for Inactive)
REMARK    1  A    between atoms: C_1  and  N_2
REMARK    2  A    between atoms: N_2  and  N_3
REMARK    3  A    between atoms: N_3  and  C_4
REMARK    4  A    between atoms: C_4  and  C_5
REMARK    5  A    between atoms: C_8  and  C_11
REMARK    6  A    between atoms: N_13  and  C_14
REMARK    7  A    between atoms: C_14  and  C_15
REMARK    8  A    between atoms: C_14  and  C_16
REMARK                            x       y       z     vdW  Elec       q    Type
REMARK                         _______ _______ _______ _____ _____    ______ ____
ROOT
ATOM      1  C   UNL     1     -12.063   7.802 129.932  0.00  0.00    +0.000 A 
ATOM      2  C   UNL     1     -10.744   7.875 129.471  0.00  0.00    +0.000 A 
ATOM      3  C   UNL     1      -9.729   7.198 130.151  0.00  0.00    +0.000 A 
ATOM      4  C   UNL     1      -9.994   6.525 131.356  0.00  0.00    +0.000 A 
ATOM      5  C   UNL     1     -11.305   6.499 131.840  0.00  0.00    +0.000 A 
ATOM      6  C   UNL     1     -12.331   7.131 131.131  0.00  0.00    +0.000 A 
ENDROOT
BRANCH   4   7
ATOM      7  C   UNL     1      -8.841   5.905 132.077  0.00  0.00    +0.000 C 
ATOM      8  O   UNL     1      -7.843   5.574 131.435  0.00  0.00    +0.000 OA
ATOM      9  N   UNL     1      -8.922   5.765 133.452  0.00  0.00    +0.000 N 
ATOM     10  H   UNL     1      -9.759   6.028 133.946  0.00  0.00    +0.000 HD
BRANCH   9  11
ATOM     11  C   UNL     1      -7.806   5.256 134.244  0.00  0.00    +0.000 C 
ATOM     12  C   UNL     1      -7.798   5.859 135.650  0.00  0.00    +0.000 C 
ATOM     13  C   UNL     1      -7.867   3.731 134.361  0.00  0.00    +0.000 C 
ENDBRANCH   9  11
ENDBRANCH   4   7
BRANCH   1  14
ATOM     14  C   UNL     1     -13.200   8.266 129.053  0.00  0.00    +0.000 C 
BRANCH  14  15
ATOM     15  N   UNL     1     -12.821   9.554 128.448  0.00  0.00    +0.000 NA
ATOM     16  H   UNL     1     -11.933   9.842 128.872  0.00  0.00    +0.000 HD
BRANCH  15  18
ATOM     17  C   UNL     1     -13.559  11.209 129.951  0.00  0.00    +0.000 C 
ATOM     18  N   UNL     1     -13.855  10.536 128.686  0.00  0.00    +0.000 NA
ATOM     19  H   UNL     1     -13.845  11.246 127.948  0.00  0.00    +0.000 HD
ENDBRANCH  15  18
ENDBRANCH  14  15
ENDBRANCH   1  14
TORSDOF 5
ENDMDL
MODEL 3
REMARK VINA RESULT:      -6.0      2.969      6.808
REMARK  Name = Procarbazine
REMARK  8 active torsions:
REMARK  status: ('A' for Active; 'I' for Inactive)
REMARK    1  A    between atoms: C_1  and  N_2
REMARK    2  A    between atoms: N_2  and  N_3
REMARK    3  A    between atoms: N_3  and  C_4
REMARK    4  A    between atoms: C_4  and  C_5
REMARK    5  A    between atoms: C_8  and  C_11
REMARK    6  A    between atoms: N_13  and  C_14
REMARK    7  A    between atoms: C_14  and  C_15
REMARK    8  A    between atoms: C_14  and  C_16
REMARK                            x       y       z     vdW  Elec       q    Type
REMARK                         _______ _______ _______ _____ _____    ______ ____
ROOT
ATOM      1  C   UNL     1      -8.633   5.794 132.689  0.00  0.00    +0.000 A 
ATOM      2  C   UNL     1     -10.028   5.877 132.616  0.00  0.00    +0.000 A 
ATOM      3  C   UNL     1     -10.634   6.465 131.504  0.00  0.00    +0.000 A 
ATOM      4  C   UNL     1      -9.861   7.074 130.501  0.00  0.00    +0.000 A 
ATOM      5  C   UNL     1      -8.467   7.035 130.606  0.00  0.00    +0.000 A 
ATOM      6  C   UNL     1      -7.860   6.398 131.691  0.00  0.00    +0.000 A 
ENDROOT
BRANCH   4   7
ATOM      7  C   UNL     1     -10.581   7.769 129.390  0.00  0.00    +0.000 C 
ATOM      8  O   UNL     1      -9.926   8.260 128.469  0.00  0.00    +0.000 OA
ATOM      9  N   UNL     1     -11.964   7.796 129.416  0.00  0.00    +0.000 N 
ATOM     10  H   UNL     1     -12.470   7.402 130.193  0.00  0.00    +0.000 HD
BRANCH   9  11
ATOM     11  C   UNL     1     -12.748   8.370 128.326  0.00  0.00    +0.000 C 
ATOM     12  C   UNL     1     -13.819   7.395 127.833  0.00  0.00    +0.000 C 
ATOM     13  C   UNL     1     -13.427   9.669 128.765  0.00  0.00    +0.000 C 
ENDBRANCH   9  11
ENDBRANCH   4   7
BRANCH   1  14
ATOM     14  C   UNL     1      -7.980   4.902 133.719  0.00  0.00    +0.000 C 
BRANCH  14  15
ATOM     15  N   UNL     1      -8.399   5.356 135.056  0.00  0.00    +0.000 NA
ATOM     16  H   UNL     1      -8.801   6.293 134.950  0.00  0.00    +0.000 HD
BRANCH  15  18
ATOM     17  C   UNL     1      -7.463   6.457 136.914  0.00  0.00    +0.000 C 
ATOM     18  N   UNL     1      -7.264   5.374 135.951  0.00  0.00    +0.000 NA
ATOM     19  H   UNL     1      -7.215   4.496 136.478  0.00  0.00    +0.000 HD
ENDBRANCH  15  18
ENDBRANCH  14  15
ENDBRANCH   1  14
TORSDOF 5
ENDMDL
MODEL 4
REMARK VINA RESULT:      -5.8      3.470      6.891
REMARK  Name = Procarbazine
REMARK  8 active torsions:
REMARK  status: ('A' for Active; 'I' for Inactive)
REMARK    1  A    between atoms: C_1  and  N_2
REMARK    2  A    between atoms: N_2  and  N_3
REMARK    3  A    between atoms: N_3  and  C_4
REMARK    4  A    between atoms: C_4  and  C_5
REMARK    5  A    between atoms: C_8  and  C_11
REMARK    6  A    between atoms: N_13  and  C_14
REMARK    7  A    between atoms: C_14  and  C_15
REMARK    8  A    between atoms: C_14  and  C_16
REMARK                            x       y       z     vdW  Elec       q    Type
REMARK                         _______ _______ _______ _____ _____    ______ ____
ROOT
ATOM      1  C   UNL     1      -7.458   6.114 132.312  0.00  0.00    +0.000 A 
ATOM      2  C   UNL     1      -8.569   5.727 133.070  0.00  0.00    +0.000 A 
ATOM      3  C   UNL     1      -9.857   5.916 132.566  0.00  0.00    +0.000 A 
ATOM      4  C   UNL     1     -10.063   6.587 131.348  0.00  0.00    +0.000 A 
ATOM      5  C   UNL     1      -8.951   7.018 130.619  0.00  0.00    +0.000 A 
ATOM      6  C   UNL     1      -7.660   6.781 131.097  0.00  0.00    +0.000 A 
ENDROOT
BRANCH   4   7
ATOM      7  C   UNL     1     -11.473   6.837 130.918  0.00  0.00    +0.000 C 
ATOM      8  O   UNL     1     -12.393   6.518 131.673  0.00  0.00    +0.000 OA
ATOM      9  N   UNL     1     -11.691   7.459 129.702  0.00  0.00    +0.000 N 
ATOM     10  H   UNL     1     -10.918   7.691 129.099  0.00  0.00    +0.000 HD
BRANCH   9  11
ATOM     11  C   UNL     1     -13.029   7.826 129.248  0.00  0.00    +0.000 C 
ATOM     12  C   UNL     1     -13.091   9.291 128.812  0.00  0.00    +0.000 C 
ATOM     13  C   UNL     1     -13.472   6.943 128.079  0.00  0.00    +0.000 C 
ENDBRANCH   9  11
ENDBRANCH   4   7
BRANCH   1  14
ATOM     14  C   UNL     1      -6.076   5.646 132.699  0.00  0.00    +0.000 C 
BRANCH  14  15
ATOM     15  N   UNL     1      -5.090   6.509 132.027  0.00  0.00    +0.000 NA
ATOM     16  H   UNL     1      -5.550   6.920 131.208  0.00  0.00    +0.000 HD
BRANCH  15  18
ATOM     17  C   UNL     1      -4.370   4.717 130.679  0.00  0.00    +0.000 C 
ATOM     18  N   UNL     1      -3.934   5.731 131.640  0.00  0.00    +0.000 NA
ATOM     19  H   UNL     1      -3.248   6.329 131.168  0.00  0.00    +0.000 HD
ENDBRANCH  15  18
ENDBRANCH  14  15
ENDBRANCH   1  14
TORSDOF 5
ENDMDL
MODEL 5
REMARK VINA RESULT:      -5.6      3.052      3.732
REMARK  Name = Procarbazine
REMARK  8 active torsions:
REMARK  status: ('A' for Active; 'I' for Inactive)
REMARK    1  A    between atoms: C_1  and  N_2
REMARK    2  A    between atoms: N_2  and  N_3
REMARK    3  A    between atoms: N_3  and  C_4
REMARK    4  A    between atoms: C_4  and  C_5
REMARK    5  A    between atoms: C_8  and  C_11
REMARK    6  A    between atoms: N_13  and  C_14
REMARK    7  A    between atoms: C_14  and  C_15
REMARK    8  A    between atoms: C_14  and  C_16
REMARK                            x       y       z     vdW  Elec       q    Type
REMARK                         _______ _______ _______ _____ _____    ______ ____
ROOT
ATOM      1  C   UNL     1     -11.365   7.263 130.114  0.00  0.00    +0.000 A 
ATOM      2  C   UNL     1     -10.053   7.541 129.714  0.00  0.00    +0.000 A 
ATOM      3  C   UNL     1      -8.980   7.091 130.484  0.00  0.00    +0.000 A 
ATOM      4  C   UNL     1      -9.195   6.451 131.717  0.00  0.00    +0.000 A 
ATOM      5  C   UNL     1     -10.509   6.222 132.137  0.00  0.00    +0.000 A 
ATOM      6  C   UNL     1     -11.584   6.624 131.340  0.00  0.00    +0.000 A 
ENDROOT
BRANCH   4   7
ATOM      7  C   UNL     1      -7.998   6.083 132.532  0.00  0.00    +0.000 C 
ATOM      8  O   UNL     1      -6.875   6.348 132.098  0.00  0.00    +0.000 OA
ATOM      9  N   UNL     1      -8.197   5.495 133.769  0.00  0.00    +0.000 N 
ATOM     10  H   UNL     1      -9.127   5.274 134.087  0.00  0.00    +0.000 HD
BRANCH   9  11
ATOM     11  C   UNL     1      -7.089   5.190 134.669  0.00  0.00    +0.000 C 
ATOM     12  C   UNL     1      -7.378   5.665 136.094  0.00  0.00    +0.000 C 
ATOM     13  C   UNL     1      -6.804   3.687 134.697  0.00  0.00    +0.000 C 
ENDBRANCH   9  11
ENDBRANCH   4   7
BRANCH   1  14
ATOM     14  C   UNL     1     -12.511   7.471 129.152  0.00  0.00    +0.000 C 
BRANCH  14  15
ATOM     15  N   UNL     1     -12.497   6.372 128.171  0.00  0.00    +0.000 NA
ATOM     16  H   UNL     1     -11.608   5.874 128.282  0.00  0.00    +0.000 HD
BRANCH  15  18
ATOM     17  C   UNL     1     -11.328   7.407 126.408  0.00  0.00    +0.000 C 
ATOM     18  N   UNL     1     -12.634   6.902 126.833  0.00  0.00    +0.000 NA
ATOM     19  H   UNL     1     -12.903   6.156 126.183  0.00  0.00    +0.000 HD
ENDBRANCH  15  18
ENDBRANCH  14  15
ENDBRANCH   1  14
TORSDOF 5
ENDMDL
MODEL 6
REMARK VINA RESULT:      -5.6      4.639      5.718
REMARK  Name = Procarbazine
REMARK  8 active torsions:
REMARK  status: ('A' for Active; 'I' for Inactive)
REMARK    1  A    between atoms: C_1  and  N_2
REMARK    2  A    between atoms: N_2  and  N_3
REMARK    3  A    between atoms: N_3  and  C_4
REMARK    4  A    between atoms: C_4  and  C_5
REMARK    5  A    between atoms: C_8  and  C_11
REMARK    6  A    between atoms: N_13  and  C_14
REMARK    7  A    between atoms: C_14  and  C_15
REMARK    8  A    between atoms: C_14  and  C_16
REMARK                            x       y       z     vdW  Elec       q    Type
REMARK                         _______ _______ _______ _____ _____    ______ ____
ROOT
ATOM      1  C   UNL     1      -9.630   6.311 131.407  0.00  0.00    +0.000 A 
ATOM      2  C   UNL     1      -8.669   6.993 130.652  0.00  0.00    +0.000 A 
ATOM      3  C   UNL     1      -7.322   6.924 131.011  0.00  0.00    +0.000 A 
ATOM      4  C   UNL     1      -6.922   6.263 132.186  0.00  0.00    +0.000 A 
ATOM      5  C   UNL     1      -7.893   5.627 132.966  0.00  0.00    +0.000 A 
ATOM      6  C   UNL     1      -9.235   5.651 132.577  0.00  0.00    +0.000 A 
ENDROOT
BRANCH   4   7
ATOM      7  C   UNL     1      -5.475   6.312 132.557  0.00  0.00    +0.000 C 
ATOM      8  O   UNL     1      -5.122   5.861 133.648  0.00  0.00    +0.000 OA
ATOM      9  N   UNL     1      -4.576   6.826 131.638  0.00  0.00    +0.000 N 
ATOM     10  H   UNL     1      -4.898   7.205 130.762  0.00  0.00    +0.000 HD
BRANCH   9  11
ATOM     11  C   UNL     1      -3.136   6.825 131.881  0.00  0.00    +0.000 C 
ATOM     12  C   UNL     1      -2.356   6.463 130.616  0.00  0.00    +0.000 C 
ATOM     13  C   UNL     1      -2.664   8.193 132.378  0.00  0.00    +0.000 C 
ENDBRANCH   9  11
ENDBRANCH   4   7
BRANCH   1  14
ATOM     14  C   UNL     1     -11.028   6.126 130.866  0.00  0.00    +0.000 C 
BRANCH  14  15
ATOM     15  N   UNL     1     -11.982   6.344 131.966  0.00  0.00    +0.000 NA
ATOM     16  H   UNL     1     -12.294   5.423 132.289  0.00  0.00    +0.000 HD
BRANCH  15  18
ATOM     17  C   UNL     1     -12.824   7.546 130.124  0.00  0.00    +0.000 C 
ATOM     18  N   UNL     1     -13.097   7.140 131.504  0.00  0.00    +0.000 NA
ATOM     19  H   UNL     1     -13.954   6.578 131.497  0.00  0.00    +0.000 HD
ENDBRANCH  15  18
ENDBRANCH  14  15
ENDBRANCH   1  14
TORSDOF 5
ENDMDL
MODEL 7
REMARK VINA RESULT:      -5.6     10.653     11.131
REMARK  Name = Procarbazine
REMARK  8 active torsions:
REMARK  status: ('A' for Active; 'I' for Inactive)
REMARK    1  A    between atoms: C_1  and  N_2
REMARK    2  A    between atoms: N_2  and  N_3
REMARK    3  A    between atoms: N_3  and  C_4
REMARK    4  A    between atoms: C_4  and  C_5
REMARK    5  A    between atoms: C_8  and  C_11
REMARK    6  A    between atoms: N_13  and  C_14
REMARK    7  A    between atoms: C_14  and  C_15
REMARK    8  A    between atoms: C_14  and  C_16
REMARK                            x       y       z     vdW  Elec       q    Type
REMARK                         _______ _______ _______ _____ _____    ______ ____
ROOT
ATOM      1  C   UNL     1      -8.343  -2.485 126.690  0.00  0.00    +0.000 A 
ATOM      2  C   UNL     1      -8.853  -3.591 127.379  0.00  0.00    +0.000 A 
ATOM      3  C   UNL     1      -8.424  -3.860 128.681  0.00  0.00    +0.000 A 
ATOM      4  C   UNL     1      -7.405  -3.096 129.275  0.00  0.00    +0.000 A 
ATOM      5  C   UNL     1      -6.861  -2.024 128.561  0.00  0.00    +0.000 A 
ATOM      6  C   UNL     1      -7.329  -1.721 127.280  0.00  0.00    +0.000 A 
ENDROOT
BRANCH   4   7
ATOM      7  C   UNL     1      -6.930  -3.502 130.633  0.00  0.00    +0.000 C 
ATOM      8  O   UNL     1      -6.017  -4.324 130.726  0.00  0.00    +0.000 OA
ATOM      9  N   UNL     1      -7.507  -2.903 131.739  0.00  0.00    +0.000 N 
ATOM     10  H   UNL     1      -8.264  -2.247 131.631  0.00  0.00    +0.000 HD
BRANCH   9  11
ATOM     11  C   UNL     1      -7.039  -3.171 133.097  0.00  0.00    +0.000 C 
ATOM     12  C   UNL     1      -6.090  -2.076 133.588  0.00  0.00    +0.000 C 
ATOM     13  C   UNL     1      -8.215  -3.279 134.069  0.00  0.00    +0.000 C 
ENDBRANCH   9  11
ENDBRANCH   4   7
BRANCH   1  14
ATOM     14  C   UNL     1      -9.010  -2.010 125.421  0.00  0.00    +0.000 C 
BRANCH  14  15
ATOM     15  N   UNL     1      -9.962  -3.044 124.983  0.00  0.00    +0.000 NA
ATOM     16  H   UNL     1      -9.702  -3.919 125.451  0.00  0.00    +0.000 HD
BRANCH  15  18
ATOM     17  C   UNL     1      -8.696  -2.525 123.066  0.00  0.00    +0.000 C 
ATOM     18  N   UNL     1      -9.909  -3.188 123.545  0.00  0.00    +0.000 NA
ATOM     19  H   UNL     1      -9.840  -4.179 123.291  0.00  0.00    +0.000 HD
ENDBRANCH  15  18
ENDBRANCH  14  15
ENDBRANCH   1  14
TORSDOF 5
ENDMDL
MODEL 8
REMARK VINA RESULT:      -5.5     10.551     11.196
REMARK  Name = Procarbazine
REMARK  8 active torsions:
REMARK  status: ('A' for Active; 'I' for Inactive)
REMARK    1  A    between atoms: C_1  and  N_2
REMARK    2  A    between atoms: N_2  and  N_3
REMARK    3  A    between atoms: N_3  and  C_4
REMARK    4  A    between atoms: C_4  and  C_5
REMARK    5  A    between atoms: C_8  and  C_11
REMARK    6  A    between atoms: N_13  and  C_14
REMARK    7  A    between atoms: C_14  and  C_15
REMARK    8  A    between atoms: C_14  and  C_16
REMARK                            x       y       z     vdW  Elec       q    Type
REMARK                         _______ _______ _______ _____ _____    ______ ____
ROOT
ATOM      1  C   UNL     1      -8.306  -3.199 126.393  0.00  0.00    +0.000 A 
ATOM      2  C   UNL     1      -7.280  -2.302 126.711  0.00  0.00    +0.000 A 
ATOM      3  C   UNL     1      -6.904  -2.116 128.043  0.00  0.00    +0.000 A 
ATOM      4  C   UNL     1      -7.612  -2.739 129.085  0.00  0.00    +0.000 A 
ATOM      5  C   UNL     1      -8.672  -3.593 128.764  0.00  0.00    +0.000 A 
ATOM      6  C   UNL     1      -9.013  -3.821 127.429  0.00  0.00    +0.000 A 
ENDROOT
BRANCH   4   7
ATOM      7  C   UNL     1      -7.214  -2.417 130.489  0.00  0.00    +0.000 C 
ATOM      8  O   UNL     1      -7.096  -1.237 130.822  0.00  0.00    +0.000 OA
ATOM      9  N   UNL     1      -7.033  -3.462 131.378  0.00  0.00    +0.000 N 
ATOM     10  H   UNL     1      -7.119  -4.418 131.071  0.00  0.00    +0.000 HD
BRANCH   9  11
ATOM     11  C   UNL     1      -6.736  -3.235 132.790  0.00  0.00    +0.000 C 
ATOM     12  C   UNL     1      -8.015  -3.150 133.625  0.00  0.00    +0.000 C 
ATOM     13  C   UNL     1      -5.854  -4.352 133.350  0.00  0.00    +0.000 C 
ENDBRANCH   9  11
ENDBRANCH   4   7
BRANCH   1  14
ATOM     14  C   UNL     1      -8.516  -3.635 124.963  0.00  0.00    +0.000 C 
BRANCH  14  15
ATOM     15  N   UNL     1      -9.771  -3.039 124.476  0.00  0.00    +0.000 NA
ATOM     16  H   UNL     1     -10.203  -3.712 123.835  0.00  0.00    +0.000 HD
BRANCH  15  18
ATOM     17  C   UNL     1      -8.462  -2.024 122.802  0.00  0.00    +0.000 C 
ATOM     18  N   UNL     1      -9.498  -1.785 123.808  0.00  0.00    +0.000 NA
ATOM     19  H   UNL     1     -10.336  -1.456 123.318  0.00  0.00    +0.000 HD
ENDBRANCH  15  18
ENDBRANCH  14  15
ENDBRANCH   1  14
TORSDOF 5
ENDMDL
MODEL 9
REMARK VINA RESULT:      -5.4      9.062      9.575
REMARK  Name = Procarbazine
REMARK  8 active torsions:
REMARK  status: ('A' for Active; 'I' for Inactive)
REMARK    1  A    between atoms: C_1  and  N_2
REMARK    2  A    between atoms: N_2  and  N_3
REMARK    3  A    between atoms: N_3  and  C_4
REMARK    4  A    between atoms: C_4  and  C_5
REMARK    5  A    between atoms: C_8  and  C_11
REMARK    6  A    between atoms: N_13  and  C_14
REMARK    7  A    between atoms: C_14  and  C_15
REMARK    8  A    between atoms: C_14  and  C_16
REMARK                            x       y       z     vdW  Elec       q    Type
REMARK                         _______ _______ _______ _____ _____    ______ ____
ROOT
ATOM      1  C   UNL     1      -6.646   2.630 123.912  0.00  0.00    +0.000 A 
ATOM      2  C   UNL     1      -6.341   1.763 124.968  0.00  0.00    +0.000 A 
ATOM      3  C   UNL     1      -5.401   2.140 125.929  0.00  0.00    +0.000 A 
ATOM      4  C   UNL     1      -4.676   3.337 125.797  0.00  0.00    +0.000 A 
ATOM      5  C   UNL     1      -4.948   4.175 124.712  0.00  0.00    +0.000 A 
ATOM      6  C   UNL     1      -5.927   3.823 123.779  0.00  0.00    +0.000 A 
ENDROOT
BRANCH   4   7
ATOM      7  C   UNL     1      -3.618   3.628 126.813  0.00  0.00    +0.000 C 
ATOM      8  O   UNL     1      -2.677   2.842 126.938  0.00  0.00    +0.000 OA
ATOM      9  N   UNL     1      -3.715   4.796 127.548  0.00  0.00    +0.000 N 
ATOM     10  H   UNL     1      -4.506   5.409 127.436  0.00  0.00    +0.000 HD
BRANCH   9  11
ATOM     11  C   UNL     1      -2.679   5.204 128.493  0.00  0.00    +0.000 C 
ATOM     12  C   UNL     1      -2.297   6.674 128.306  0.00  0.00    +0.000 C 
ATOM     13  C   UNL     1      -3.141   4.994 129.937  0.00  0.00    +0.000 C 
ENDBRANCH   9  11
ENDBRANCH   4   7
BRANCH   1  14
ATOM     14  C   UNL     1      -7.860   2.376 123.050  0.00  0.00    +0.000 C 
BRANCH  14  15
ATOM     15  N   UNL     1      -8.438   3.676 122.670  0.00  0.00    +0.000 NA
ATOM     16  H   UNL     1      -9.254   3.836 123.269  0.00  0.00    +0.000 HD
BRANCH  15  18
ATOM     17  C   UNL     1      -7.612   3.930 120.479  0.00  0.00    +0.000 C 
ATOM     18  N   UNL     1      -8.812   3.662 121.273  0.00  0.00    +0.000 NA
ATOM     19  H   UNL     1      -9.156   2.734 121.009  0.00  0.00    +0.000 HD
ENDBRANCH  15  18
ENDBRANCH  14  15
ENDBRANCH   1  14
TORSDOF 5
ENDMDL
