MODEL 1
REMARK VINA RESULT:      -6.9      0.000      0.000
REMARK  Name = Proflavine
REMARK  2 active torsions:
REMARK  status: ('A' for Active; 'I' for Inactive)
REMARK    1  A    between atoms: N_1  and  C_2
REMARK    2  A    between atoms: C_10  and  N_11
REMARK                            x       y       z     vdW  Elec       q    Type
REMARK                         _______ _______ _______ _____ _____    ______ ____
ROOT
ATOM      1  C   UNL     1      -5.817   6.245 132.165  0.00  0.00    +0.000 A 
ATOM      2  C   UNL     1      -6.592   6.819 131.146  0.00  0.00    +0.000 A 
ATOM      3  C   UNL     1      -7.985   6.785 131.159  0.00  0.00    +0.000 A 
ATOM      4  N   UNL     1      -8.704   7.344 130.158  0.00  0.00    +0.000 NA
ATOM      5  C   UNL     1     -10.055   7.292 130.201  0.00  0.00    +0.000 A 
ATOM      6  C   UNL     1     -10.735   6.670 131.266  0.00  0.00    +0.000 A 
ATOM      7  C   UNL     1     -12.131   6.620 131.304  0.00  0.00    +0.000 A 
ATOM      8  C   UNL     1     -12.875   7.191 130.280  0.00  0.00    +0.000 A 
ATOM      9  C   UNL     1     -12.236   7.814 129.210  0.00  0.00    +0.000 A 
ATOM     10  C   UNL     1     -10.834   7.856 129.189  0.00  0.00    +0.000 A 
ATOM     11  C   UNL     1      -9.990   6.098 132.290  0.00  0.00    +0.000 A 
ATOM     12  C   UNL     1      -8.603   6.147 132.252  0.00  0.00    +0.000 A 
ATOM     13  C   UNL     1      -7.848   5.575 133.280  0.00  0.00    +0.000 A 
ATOM     14  C   UNL     1      -6.460   5.630 133.236  0.00  0.00    +0.000 A 
ENDROOT
BRANCH   1  15
ATOM     15  N   UNL     1      -4.437   6.327 132.146  0.00  0.00    +0.000 N 
ATOM     16  H   UNL     1      -3.878   5.539 131.848  0.00  0.00    +0.000 HD
ATOM     17  H   UNL     1      -3.966   7.126 132.548  0.00  0.00    +0.000 HD
ENDBRANCH   1  15
BRANCH   9  18
ATOM     18  N   UNL     1     -12.991   8.384 128.202  0.00  0.00    +0.000 N 
ATOM     19  H   UNL     1     -13.352   9.323 128.304  0.00  0.00    +0.000 HD
ATOM     20  H   UNL     1     -13.216   7.869 127.363  0.00  0.00    +0.000 HD
ENDBRANCH   9  18
TORSDOF 2
ENDMDL
MODEL 2
REMARK VINA RESULT:      -6.9      0.082      5.648
REMARK  Name = Proflavine
REMARK  2 active torsions:
REMARK  status: ('A' for Active; 'I' for Inactive)
REMARK    1  A    between atoms: N_1  and  C_2
REMARK    2  A    between atoms: C_10  and  N_11
REMARK                            x       y       z     vdW  Elec       q    Type
REMARK                         _______ _______ _______ _____ _____    ______ ____
ROOT
ATOM      1  C   UNL     1     -12.168   7.798 129.159  0.00  0.00    +0.000 A 
ATOM      2  C   UNL     1     -10.766   7.847 129.149  0.00  0.00    +0.000 A 
ATOM      3  C   UNL     1      -9.992   7.286 130.163  0.00  0.00    +0.000 A 
ATOM      4  N   UNL     1      -8.641   7.355 130.127  0.00  0.00    +0.000 NA
ATOM      5  C   UNL     1      -7.920   6.800 131.128  0.00  0.00    +0.000 A 
ATOM      6  C   UNL     1      -8.542   6.148 132.210  0.00  0.00    +0.000 A 
ATOM      7  C   UNL     1      -7.791   5.577 133.241  0.00  0.00    +0.000 A 
ATOM      8  C   UNL     1      -6.405   5.645 133.210  0.00  0.00    +0.000 A 
ATOM      9  C   UNL     1      -5.756   6.283 132.156  0.00  0.00    +0.000 A 
ATOM     10  C   UNL     1      -6.525   6.849 131.129  0.00  0.00    +0.000 A 
ATOM     11  C   UNL     1      -9.930   6.081 132.241  0.00  0.00    +0.000 A 
ATOM     12  C   UNL     1     -10.676   6.650 131.216  0.00  0.00    +0.000 A 
ATOM     13  C   UNL     1     -12.073   6.583 131.240  0.00  0.00    +0.000 A 
ATOM     14  C   UNL     1     -12.812   7.152 130.211  0.00  0.00    +0.000 A 
ENDROOT
BRANCH   1  15
ATOM     15  N   UNL     1     -12.910   8.330 128.121  0.00  0.00    +0.000 N 
ATOM     16  H   UNL     1     -12.468   8.900 127.412  0.00  0.00    +0.000 HD
ATOM     17  H   UNL     1     -13.919   8.263 128.125  0.00  0.00    +0.000 HD
ENDBRANCH   1  15
BRANCH   9  18
ATOM     18  N   UNL     1      -4.374   6.336 132.137  0.00  0.00    +0.000 N 
ATOM     19  H   UNL     1      -3.899   7.217 131.996  0.00  0.00    +0.000 HD
ATOM     20  H   UNL     1      -3.818   5.499 132.237  0.00  0.00    +0.000 HD
ENDBRANCH   9  18
TORSDOF 2
ENDMDL
MODEL 3
REMARK VINA RESULT:      -6.4      9.229     10.530
REMARK  Name = Proflavine
REMARK  2 active torsions:
REMARK  status: ('A' for Active; 'I' for Inactive)
REMARK    1  A    between atoms: N_1  and  C_2
REMARK    2  A    between atoms: C_10  and  N_11
REMARK                            x       y       z     vdW  Elec       q    Type
REMARK                         _______ _______ _______ _____ _____    ______ ____
ROOT
ATOM      1  C   UNL     1      -6.204   4.709 119.752  0.00  0.00    +0.000 A 
ATOM      2  C   UNL     1      -5.841   4.182 121.000  0.00  0.00    +0.000 A 
ATOM      3  C   UNL     1      -6.755   3.535 121.831  0.00  0.00    +0.000 A 
ATOM      4  N   UNL     1      -6.376   3.041 123.032  0.00  0.00    +0.000 NA
ATOM      5  C   UNL     1      -7.288   2.419 123.813  0.00  0.00    +0.000 A 
ATOM      6  C   UNL     1      -8.628   2.271 123.406  0.00  0.00    +0.000 A 
ATOM      7  C   UNL     1      -9.565   1.627 124.218  0.00  0.00    +0.000 A 
ATOM      8  C   UNL     1      -9.182   1.119 125.452  0.00  0.00    +0.000 A 
ATOM      9  C   UNL     1      -7.865   1.249 125.888  0.00  0.00    +0.000 A 
ATOM     10  C   UNL     1      -6.938   1.897 125.060  0.00  0.00    +0.000 A 
ATOM     11  C   UNL     1      -9.010   2.779 122.171  0.00  0.00    +0.000 A 
ATOM     12  C   UNL     1      -8.079   3.420 121.364  0.00  0.00    +0.000 A 
ATOM     13  C   UNL     1      -8.457   3.932 120.119  0.00  0.00    +0.000 A 
ATOM     14  C   UNL     1      -7.519   4.570 119.317  0.00  0.00    +0.000 A 
ENDROOT
BRANCH   1  15
ATOM     15  N   UNL     1      -5.268   5.313 118.932  0.00  0.00    +0.000 N 
ATOM     16  H   UNL     1      -4.307   5.000 118.930  0.00  0.00    +0.000 HD
ATOM     17  H   UNL     1      -5.503   6.153 118.420  0.00  0.00    +0.000 HD
ENDBRANCH   1  15
BRANCH   9  18
ATOM     18  N   UNL     1      -7.499   0.732 127.117  0.00  0.00    +0.000 N 
ATOM     19  H   UNL     1      -7.936  -0.111 127.467  0.00  0.00    +0.000 HD
ATOM     20  H   UNL     1      -6.812   1.194 127.695  0.00  0.00    +0.000 HD
ENDBRANCH   9  18
TORSDOF 2
ENDMDL
MODEL 4
REMARK VINA RESULT:      -6.3      9.478     11.105
REMARK  Name = Proflavine
REMARK  2 active torsions:
REMARK  status: ('A' for Active; 'I' for Inactive)
REMARK    1  A    between atoms: N_1  and  C_2
REMARK    2  A    between atoms: C_10  and  N_11
REMARK                            x       y       z     vdW  Elec       q    Type
REMARK                         _______ _______ _______ _____ _____    ______ ____
ROOT
ATOM      1  C   UNL     1      -6.149   5.314 118.713  0.00  0.00    +0.000 A 
ATOM      2  C   UNL     1      -5.405   5.313 119.903  0.00  0.00    +0.000 A 
ATOM      3  C   UNL     1      -5.828   4.638 121.047  0.00  0.00    +0.000 A 
ATOM      4  N   UNL     1      -5.091   4.660 122.181  0.00  0.00    +0.000 NA
ATOM      5  C   UNL     1      -5.530   3.994 123.273  0.00  0.00    +0.000 A 
ATOM      6  C   UNL     1      -6.740   3.274 123.259  0.00  0.00    +0.000 A 
ATOM      7  C   UNL     1      -7.188   2.588 124.391  0.00  0.00    +0.000 A 
ATOM      8  C   UNL     1      -6.436   2.608 125.558  0.00  0.00    +0.000 A 
ATOM      9  C   UNL     1      -5.235   3.312 125.609  0.00  0.00    +0.000 A 
ATOM     10  C   UNL     1      -4.800   3.993 124.463  0.00  0.00    +0.000 A 
ATOM     11  C   UNL     1      -7.492   3.255 122.091  0.00  0.00    +0.000 A 
ATOM     12  C   UNL     1      -7.047   3.937 120.966  0.00  0.00    +0.000 A 
ATOM     13  C   UNL     1      -7.798   3.920 119.787  0.00  0.00    +0.000 A 
ATOM     14  C   UNL     1      -7.345   4.603 118.665  0.00  0.00    +0.000 A 
ENDROOT
BRANCH   1  15
ATOM     15  N   UNL     1      -5.687   5.961 117.582  0.00  0.00    +0.000 N 
ATOM     16  H   UNL     1      -5.675   6.971 117.535  0.00  0.00    +0.000 HD
ATOM     17  H   UNL     1      -5.476   5.438 116.743  0.00  0.00    +0.000 HD
ENDBRANCH   1  15
BRANCH   9  18
ATOM     18  N   UNL     1      -4.495   3.316 126.776  0.00  0.00    +0.000 N 
ATOM     19  H   UNL     1      -4.725   3.957 127.524  0.00  0.00    +0.000 HD
ATOM     20  H   UNL     1      -3.702   2.701 126.895  0.00  0.00    +0.000 HD
ENDBRANCH   9  18
TORSDOF 2
ENDMDL
MODEL 5
REMARK VINA RESULT:      -6.3      1.898      2.641
REMARK  Name = Proflavine
REMARK  2 active torsions:
REMARK  status: ('A' for Active; 'I' for Inactive)
REMARK    1  A    between atoms: N_1  and  C_2
REMARK    2  A    between atoms: C_10  and  N_11
REMARK                            x       y       z     vdW  Elec       q    Type
REMARK                         _______ _______ _______ _____ _____    ______ ____
ROOT
ATOM      1  C   UNL     1      -8.200   4.099 132.848  0.00  0.00    +0.000 A 
ATOM      2  C   UNL     1      -9.415   4.169 132.151  0.00  0.00    +0.000 A 
ATOM      3  C   UNL     1      -9.725   5.225 131.295  0.00  0.00    +0.000 A 
ATOM      4  N   UNL     1     -10.908   5.266 130.640  0.00  0.00    +0.000 NA
ATOM      5  C   UNL     1     -11.176   6.305 129.817  0.00  0.00    +0.000 A 
ATOM      6  C   UNL     1     -10.251   7.349 129.623  0.00  0.00    +0.000 A 
ATOM      7  C   UNL     1     -10.535   8.420 128.772  0.00  0.00    +0.000 A 
ATOM      8  C   UNL     1     -11.748   8.469 128.097  0.00  0.00    +0.000 A 
ATOM      9  C   UNL     1     -12.687   7.455 128.267  0.00  0.00    +0.000 A 
ATOM     10  C   UNL     1     -12.385   6.387 129.124  0.00  0.00    +0.000 A 
ATOM     11  C   UNL     1      -9.038   7.300 130.298  0.00  0.00    +0.000 A 
ATOM     12  C   UNL     1      -8.756   6.236 131.146  0.00  0.00    +0.000 A 
ATOM     13  C   UNL     1      -7.536   6.180 131.826  0.00  0.00    +0.000 A 
ATOM     14  C   UNL     1      -7.260   5.111 132.669  0.00  0.00    +0.000 A 
ENDROOT
BRANCH   1  15
ATOM     15  N   UNL     1      -7.903   3.021 133.662  0.00  0.00    +0.000 N 
ATOM     16  H   UNL     1      -7.317   3.137 134.477  0.00  0.00    +0.000 HD
ATOM     17  H   UNL     1      -8.163   2.083 133.385  0.00  0.00    +0.000 HD
ENDBRANCH   1  15
BRANCH   9  18
ATOM     18  N   UNL     1     -13.887   7.515 127.583  0.00  0.00    +0.000 N 
ATOM     19  H   UNL     1     -14.031   8.212 126.864  0.00  0.00    +0.000 HD
ATOM     20  H   UNL     1     -14.646   6.886 127.802  0.00  0.00    +0.000 HD
ENDBRANCH   9  18
TORSDOF 2
ENDMDL
MODEL 6
REMARK VINA RESULT:      -6.2     10.422     10.717
REMARK  Name = Proflavine
REMARK  2 active torsions:
REMARK  status: ('A' for Active; 'I' for Inactive)
REMARK    1  A    between atoms: N_1  and  C_2
REMARK    2  A    between atoms: C_10  and  N_11
REMARK                            x       y       z     vdW  Elec       q    Type
REMARK                         _______ _______ _______ _____ _____    ______ ____
ROOT
ATOM      1  C   UNL     1      -5.691  -2.453 130.420  0.00  0.00    +0.000 A 
ATOM      2  C   UNL     1      -5.484  -2.173 129.061  0.00  0.00    +0.000 A 
ATOM      3  C   UNL     1      -6.447  -2.441 128.089  0.00  0.00    +0.000 A 
ATOM      4  N   UNL     1      -6.215  -2.164 126.785  0.00  0.00    +0.000 NA
ATOM      5  C   UNL     1      -7.170  -2.437 125.867  0.00  0.00    +0.000 A 
ATOM      6  C   UNL     1      -8.405  -3.004 126.236  0.00  0.00    +0.000 A 
ATOM      7  C   UNL     1      -9.388  -3.284 125.282  0.00  0.00    +0.000 A 
ATOM      8  C   UNL     1      -9.156  -3.002 123.943  0.00  0.00    +0.000 A 
ATOM      9  C   UNL     1      -7.944  -2.443 123.542  0.00  0.00    +0.000 A 
ATOM     10  C   UNL     1      -6.971  -2.167 124.512  0.00  0.00    +0.000 A 
ATOM     11  C   UNL     1      -8.637  -3.286 127.577  0.00  0.00    +0.000 A 
ATOM     12  C   UNL     1      -7.659  -3.008 128.524  0.00  0.00    +0.000 A 
ATOM     13  C   UNL     1      -7.888  -3.288 129.875  0.00  0.00    +0.000 A 
ATOM     14  C   UNL     1      -6.907  -3.005 130.817  0.00  0.00    +0.000 A 
ENDROOT
BRANCH   1  15
ATOM     15  N   UNL     1      -4.734  -2.142 131.368  0.00  0.00    +0.000 N 
ATOM     16  H   UNL     1      -4.080  -1.387 131.211  0.00  0.00    +0.000 HD
ATOM     17  H   UNL     1      -4.595  -2.741 132.171  0.00  0.00    +0.000 HD
ENDBRANCH   1  15
BRANCH   9  18
ATOM     18  N   UNL     1      -7.732  -2.163 122.205  0.00  0.00    +0.000 N 
ATOM     19  H   UNL     1      -8.515  -2.076 121.571  0.00  0.00    +0.000 HD
ATOM     20  H   UNL     1      -6.798  -2.065 121.833  0.00  0.00    +0.000 HD
ENDBRANCH   9  18
TORSDOF 2
ENDMDL
MODEL 7
REMARK VINA RESULT:      -6.1      1.290      2.096
REMARK  Name = Proflavine
REMARK  2 active torsions:
REMARK  status: ('A' for Active; 'I' for Inactive)
REMARK    1  A    between atoms: N_1  and  C_2
REMARK    2  A    between atoms: C_10  and  N_11
REMARK                            x       y       z     vdW  Elec       q    Type
REMARK                         _______ _______ _______ _____ _____    ______ ____
ROOT
ATOM      1  C   UNL     1      -3.836   6.808 131.994  0.00  0.00    +0.000 A 
ATOM      2  C   UNL     1      -4.899   7.129 131.136  0.00  0.00    +0.000 A 
ATOM      3  C   UNL     1      -6.224   6.825 131.444  0.00  0.00    +0.000 A 
ATOM      4  N   UNL     1      -7.227   7.143 130.594  0.00  0.00    +0.000 NA
ATOM      5  C   UNL     1      -8.501   6.834 130.924  0.00  0.00    +0.000 A 
ATOM      6  C   UNL     1      -8.813   6.187 132.135  0.00  0.00    +0.000 A 
ATOM      7  C   UNL     1     -10.132   5.870 132.470  0.00  0.00    +0.000 A 
ATOM      8  C   UNL     1     -11.165   6.193 131.601  0.00  0.00    +0.000 A 
ATOM      9  C   UNL     1     -10.894   6.832 130.393  0.00  0.00    +0.000 A 
ATOM     10  C   UNL     1      -9.565   7.144 130.075  0.00  0.00    +0.000 A 
ATOM     11  C   UNL     1      -7.778   5.863 133.004  0.00  0.00    +0.000 A 
ATOM     12  C   UNL     1      -6.466   6.177 132.671  0.00  0.00    +0.000 A 
ATOM     13  C   UNL     1      -5.421   5.856 133.542  0.00  0.00    +0.000 A 
ATOM     14  C   UNL     1      -4.112   6.176 133.204  0.00  0.00    +0.000 A 
ENDROOT
BRANCH   1  15
ATOM     15  N   UNL     1      -2.534   7.155 131.680  0.00  0.00    +0.000 N 
ATOM     16  H   UNL     1      -2.146   8.033 131.995  0.00  0.00    +0.000 HD
ATOM     17  H   UNL     1      -1.998   6.596 131.030  0.00  0.00    +0.000 HD
ENDBRANCH   1  15
BRANCH   9  18
ATOM     18  N   UNL     1     -11.936   7.153 129.542  0.00  0.00    +0.000 N 
ATOM     19  H   UNL     1     -12.865   7.310 129.910  0.00  0.00    +0.000 HD
ATOM     20  H   UNL     1     -11.797   7.211 128.544  0.00  0.00    +0.000 HD
ENDBRANCH   9  18
TORSDOF 2
ENDMDL
MODEL 8
REMARK VINA RESULT:      -5.9     10.498     10.922
REMARK  Name = Proflavine
REMARK  2 active torsions:
REMARK  status: ('A' for Active; 'I' for Inactive)
REMARK    1  A    between atoms: N_1  and  C_2
REMARK    2  A    between atoms: C_10  and  N_11
REMARK                            x       y       z     vdW  Elec       q    Type
REMARK                         _______ _______ _______ _____ _____    ______ ____
ROOT
ATOM      1  C   UNL     1      -6.623  -2.883 131.005  0.00  0.00    +0.000 A 
ATOM      2  C   UNL     1      -7.621  -3.184 130.065  0.00  0.00    +0.000 A 
ATOM      3  C   UNL     1      -7.443  -2.981 128.698  0.00  0.00    +0.000 A 
ATOM      4  N   UNL     1      -8.427  -3.277 127.817  0.00  0.00    +0.000 NA
ATOM      5  C   UNL     1      -8.222  -3.069 126.497  0.00  0.00    +0.000 A 
ATOM      6  C   UNL     1      -7.005  -2.551 126.013  0.00  0.00    +0.000 A 
ATOM      7  C   UNL     1      -6.799  -2.338 124.647  0.00  0.00    +0.000 A 
ATOM      8  C   UNL     1      -7.805  -2.639 123.738  0.00  0.00    +0.000 A 
ATOM      9  C   UNL     1      -9.022  -3.150 124.181  0.00  0.00    +0.000 A 
ATOM     10  C   UNL     1      -9.210  -3.359 125.555  0.00  0.00    +0.000 A 
ATOM     11  C   UNL     1      -5.998  -2.251 126.923  0.00  0.00    +0.000 A 
ATOM     12  C   UNL     1      -6.203  -2.461 128.280  0.00  0.00    +0.000 A 
ATOM     13  C   UNL     1      -5.194  -2.163 129.201  0.00  0.00    +0.000 A 
ATOM     14  C   UNL     1      -5.405  -2.379 130.557  0.00  0.00    +0.000 A 
ENDROOT
BRANCH   1  15
ATOM     15  N   UNL     1      -6.812  -3.128 132.352  0.00  0.00    +0.000 N 
ATOM     16  H   UNL     1      -7.742  -3.140 132.748  0.00  0.00    +0.000 HD
ATOM     17  H   UNL     1      -6.021  -3.174 132.980  0.00  0.00    +0.000 HD
ENDBRANCH   1  15
BRANCH   9  18
ATOM     18  N   UNL     1     -10.011  -3.451 123.263  0.00  0.00    +0.000 N 
ATOM     19  H   UNL     1     -10.045  -2.970 122.374  0.00  0.00    +0.000 HD
ATOM     20  H   UNL     1     -10.728  -4.132 123.470  0.00  0.00    +0.000 HD
ENDBRANCH   9  18
TORSDOF 2
ENDMDL
MODEL 9
REMARK VINA RESULT:      -5.6      9.223     10.248
REMARK  Name = Proflavine
REMARK  2 active torsions:
REMARK  status: ('A' for Active; 'I' for Inactive)
REMARK    1  A    between atoms: N_1  and  C_2
REMARK    2  A    between atoms: C_10  and  N_11
REMARK                            x       y       z     vdW  Elec       q    Type
REMARK                         _______ _______ _______ _____ _____    ______ ____
ROOT
ATOM      1  C   UNL     1      -7.935   2.565 123.959  0.00  0.00    +0.000 A 
ATOM      2  C   UNL     1      -7.564   2.008 125.192  0.00  0.00    +0.000 A 
ATOM      3  C   UNL     1      -7.928   0.715 125.567  0.00  0.00    +0.000 A 
ATOM      4  N   UNL     1      -7.558   0.208 126.765  0.00  0.00    +0.000 NA
ATOM      5  C   UNL     1      -7.928  -1.050 127.098  0.00  0.00    +0.000 A 
ATOM      6  C   UNL     1      -8.690  -1.849 126.224  0.00  0.00    +0.000 A 
ATOM      7  C   UNL     1      -9.069  -3.148 126.573  0.00  0.00    +0.000 A 
ATOM      8  C   UNL     1      -8.693  -3.673 127.802  0.00  0.00    +0.000 A 
ATOM      9  C   UNL     1      -7.941  -2.911 128.693  0.00  0.00    +0.000 A 
ATOM     10  C   UNL     1      -7.568  -1.610 128.325  0.00  0.00    +0.000 A 
ATOM     11  C   UNL     1      -9.065  -1.322 124.994  0.00  0.00    +0.000 A 
ATOM     12  C   UNL     1      -8.690  -0.030 124.647  0.00  0.00    +0.000 A 
ATOM     13  C   UNL     1      -9.063   0.504 123.410  0.00  0.00    +0.000 A 
ATOM     14  C   UNL     1      -8.681   1.796 123.069  0.00  0.00    +0.000 A 
ENDROOT
BRANCH   1  15
ATOM     15  N   UNL     1      -7.529   3.836 123.597  0.00  0.00    +0.000 N 
ATOM     16  H   UNL     1      -8.190   4.498 123.215  0.00  0.00    +0.000 HD
ATOM     17  H   UNL     1      -6.547   4.078 123.592  0.00  0.00    +0.000 HD
ENDBRANCH   1  15
BRANCH   9  18
ATOM     18  N   UNL     1      -7.570  -3.452 129.910  0.00  0.00    +0.000 N 
ATOM     19  H   UNL     1      -7.964  -4.330 130.219  0.00  0.00    +0.000 HD
ATOM     20  H   UNL     1      -6.923  -2.973 130.519  0.00  0.00    +0.000 HD
ENDBRANCH   9  18
TORSDOF 2
ENDMDL
