MODEL 1
REMARK VINA RESULT:      -6.9      0.000      0.000
REMARK  Name = Profenamine
REMARK  8 active torsions:
REMARK  status: ('A' for Active; 'I' for Inactive)
REMARK    1  A    between atoms: C_1  and  C_2
REMARK    2  A    between atoms: C_2  and  N_3
REMARK    3  A    between atoms: N_3  and  C_4
REMARK    4  A    between atoms: N_3  and  C_6
REMARK    5  A    between atoms: C_4  and  C_5
REMARK    6  A    between atoms: C_6  and  C_7
REMARK    7  A    between atoms: C_6  and  C_8
REMARK    8  A    between atoms: C_8  and  N_9
REMARK                            x       y       z     vdW  Elec       q    Type
REMARK                         _______ _______ _______ _____ _____    ______ ____
ROOT
ATOM      1  N   UNL     1      -8.306   2.999 122.754  0.00  0.00    +0.000 N 
ATOM      2  C   UNL     1      -8.116   3.447 121.431  0.00  0.00    +0.000 A 
ATOM      3  C   UNL     1      -9.197   3.542 120.545  0.00  0.00    +0.000 A 
ATOM      4  C   UNL     1      -9.031   4.077 119.269  0.00  0.00    +0.000 A 
ATOM      5  C   UNL     1      -7.773   4.505 118.850  0.00  0.00    +0.000 A 
ATOM      6  C   UNL     1      -6.679   4.399 119.704  0.00  0.00    +0.000 A 
ATOM      7  C   UNL     1      -6.848   3.893 120.994  0.00  0.00    +0.000 A 
ATOM      8  S   UNL     1      -5.411   3.782 122.058  0.00  0.00    +0.000 S 
ATOM      9  C   UNL     1      -6.223   3.955 123.639  0.00  0.00    +0.000 A 
ATOM     10  C   UNL     1      -5.524   4.581 124.674  0.00  0.00    +0.000 A 
ATOM     11  C   UNL     1      -6.141   4.804 125.903  0.00  0.00    +0.000 A 
ATOM     12  C   UNL     1      -7.457   4.392 126.101  0.00  0.00    +0.000 A 
ATOM     13  C   UNL     1      -8.150   3.746 125.078  0.00  0.00    +0.000 A 
ATOM     14  C   UNL     1      -7.549   3.508 123.830  0.00  0.00    +0.000 A 
ENDROOT
BRANCH   1  15
ATOM     15  C   UNL     1      -9.037   1.724 122.964  0.00  0.00    +0.000 C 
BRANCH  15  16
ATOM     16  C   UNL     1      -8.248   0.636 123.795  0.00  0.00    +0.000 C 
ATOM     17  C   UNL     1      -7.018   0.176 122.979  0.00  0.00    +0.000 C 
BRANCH  16  18
ATOM     18  N   UNL     1      -9.113  -0.558 124.187  0.00  0.00    +0.000 NA
BRANCH  18  20
ATOM     19  C   UNL     1      -9.473  -2.945 123.302  0.00  0.00    +0.000 C 
ATOM     20  C   UNL     1      -8.517  -1.818 123.675  0.00  0.00    +0.000 C 
ENDBRANCH  18  20
BRANCH  18  21
ATOM     21  C   UNL     1      -9.311  -0.589 125.656  0.00  0.00    +0.000 C 
ATOM     22  C   UNL     1      -8.326  -1.418 126.473  0.00  0.00    +0.000 C 
ENDBRANCH  18  21
ENDBRANCH  16  18
ENDBRANCH  15  16
ENDBRANCH   1  15
TORSDOF 5
ENDMDL
MODEL 2
REMARK VINA RESULT:      -6.5      3.712      6.083
REMARK  Name = Profenamine
REMARK  8 active torsions:
REMARK  status: ('A' for Active; 'I' for Inactive)
REMARK    1  A    between atoms: C_1  and  C_2
REMARK    2  A    between atoms: C_2  and  N_3
REMARK    3  A    between atoms: N_3  and  C_4
REMARK    4  A    between atoms: N_3  and  C_6
REMARK    5  A    between atoms: C_4  and  C_5
REMARK    6  A    between atoms: C_6  and  C_7
REMARK    7  A    between atoms: C_6  and  C_8
REMARK    8  A    between atoms: C_8  and  N_9
REMARK                            x       y       z     vdW  Elec       q    Type
REMARK                         _______ _______ _______ _____ _____    ______ ____
ROOT
ATOM      1  N   UNL     1      -5.538  -0.200 126.179  0.00  0.00    +0.000 N 
ATOM      2  C   UNL     1      -5.408   1.203 126.142  0.00  0.00    +0.000 A 
ATOM      3  C   UNL     1      -4.470   1.857 126.953  0.00  0.00    +0.000 A 
ATOM      4  C   UNL     1      -4.270   3.233 126.847  0.00  0.00    +0.000 A 
ATOM      5  C   UNL     1      -5.022   3.981 125.944  0.00  0.00    +0.000 A 
ATOM      6  C   UNL     1      -5.976   3.356 125.145  0.00  0.00    +0.000 A 
ATOM      7  C   UNL     1      -6.157   1.975 125.224  0.00  0.00    +0.000 A 
ATOM      8  S   UNL     1      -7.393   1.218 124.172  0.00  0.00    +0.000 S 
ATOM      9  C   UNL     1      -6.657  -0.401 124.002  0.00  0.00    +0.000 A 
ATOM     10  C   UNL     1      -6.861  -1.095 122.806  0.00  0.00    +0.000 A 
ATOM     11  C   UNL     1      -6.248  -2.328 122.598  0.00  0.00    +0.000 A 
ATOM     12  C   UNL     1      -5.437  -2.874 123.590  0.00  0.00    +0.000 A 
ATOM     13  C   UNL     1      -5.249  -2.195 124.794  0.00  0.00    +0.000 A 
ATOM     14  C   UNL     1      -5.858  -0.950 125.028  0.00  0.00    +0.000 A 
ENDROOT
BRANCH   1  15
ATOM     15  C   UNL     1      -5.710  -0.852 127.501  0.00  0.00    +0.000 C 
BRANCH  15  16
ATOM     16  C   UNL     1      -7.198  -1.245 127.859  0.00  0.00    +0.000 C 
ATOM     17  C   UNL     1      -7.641  -0.446 129.106  0.00  0.00    +0.000 C 
BRANCH  16  18
ATOM     18  N   UNL     1      -7.383  -2.743 128.084  0.00  0.00    +0.000 NA
BRANCH  18  20
ATOM     19  C   UNL     1      -6.391  -3.978 130.109  0.00  0.00    +0.000 C 
ATOM     20  C   UNL     1      -7.450  -3.042 129.537  0.00  0.00    +0.000 C 
ENDBRANCH  18  20
BRANCH  18  21
ATOM     21  C   UNL     1      -8.581  -3.227 127.357  0.00  0.00    +0.000 C 
ATOM     22  C   UNL     1      -8.981  -2.471 126.095  0.00  0.00    +0.000 C 
ENDBRANCH  18  21
ENDBRANCH  16  18
ENDBRANCH  15  16
ENDBRANCH   1  15
TORSDOF 5
ENDMDL
MODEL 3
REMARK VINA RESULT:      -6.4      5.280      8.404
REMARK  Name = Profenamine
REMARK  8 active torsions:
REMARK  status: ('A' for Active; 'I' for Inactive)
REMARK    1  A    between atoms: C_1  and  C_2
REMARK    2  A    between atoms: C_2  and  N_3
REMARK    3  A    between atoms: N_3  and  C_4
REMARK    4  A    between atoms: N_3  and  C_6
REMARK    5  A    between atoms: C_4  and  C_5
REMARK    6  A    between atoms: C_6  and  C_7
REMARK    7  A    between atoms: C_6  and  C_8
REMARK    8  A    between atoms: C_8  and  N_9
REMARK                            x       y       z     vdW  Elec       q    Type
REMARK                         _______ _______ _______ _____ _____    ______ ____
ROOT
ATOM      1  N   UNL     1      -6.729  -1.559 128.438  0.00  0.00    +0.000 N 
ATOM      2  C   UNL     1      -5.818  -2.426 129.074  0.00  0.00    +0.000 A 
ATOM      3  C   UNL     1      -4.616  -2.786 128.449  0.00  0.00    +0.000 A 
ATOM      4  C   UNL     1      -3.669  -3.562 129.115  0.00  0.00    +0.000 A 
ATOM      5  C   UNL     1      -3.918  -4.011 130.410  0.00  0.00    +0.000 A 
ATOM      6  C   UNL     1      -5.115  -3.686 131.042  0.00  0.00    +0.000 A 
ATOM      7  C   UNL     1      -6.053  -2.881 130.392  0.00  0.00    +0.000 A 
ATOM      8  S   UNL     1      -7.574  -2.486 131.250  0.00  0.00    +0.000 S 
ATOM      9  C   UNL     1      -7.921  -0.909 130.485  0.00  0.00    +0.000 A 
ATOM     10  C   UNL     1      -8.577   0.062 131.246  0.00  0.00    +0.000 A 
ATOM     11  C   UNL     1      -8.804   1.331 130.719  0.00  0.00    +0.000 A 
ATOM     12  C   UNL     1      -8.384   1.628 129.424  0.00  0.00    +0.000 A 
ATOM     13  C   UNL     1      -7.748   0.654 128.654  0.00  0.00    +0.000 A 
ATOM     14  C   UNL     1      -7.509  -0.634 129.163  0.00  0.00    +0.000 A 
ENDROOT
BRANCH   1  15
ATOM     15  C   UNL     1      -7.144  -1.876 127.049  0.00  0.00    +0.000 C 
BRANCH  15  16
ATOM     16  C   UNL     1      -8.672  -2.246 126.881  0.00  0.00    +0.000 C 
ATOM     17  C   UNL     1      -8.868  -3.739 127.232  0.00  0.00    +0.000 C 
BRANCH  16  18
ATOM     18  N   UNL     1      -9.209  -1.944 125.485  0.00  0.00    +0.000 NA
BRANCH  18  20
ATOM     19  C   UNL     1      -9.783   0.555 125.655  0.00  0.00    +0.000 C 
ATOM     20  C   UNL     1      -8.889  -0.546 125.099  0.00  0.00    +0.000 C 
ENDBRANCH  18  20
BRANCH  18  21
ATOM     21  C   UNL     1      -8.681  -2.929 124.509  0.00  0.00    +0.000 C 
ATOM     22  C   UNL     1      -9.621  -3.375 123.395  0.00  0.00    +0.000 C 
ENDBRANCH  18  21
ENDBRANCH  16  18
ENDBRANCH  15  16
ENDBRANCH   1  15
TORSDOF 5
ENDMDL
MODEL 4
REMARK VINA RESULT:      -6.4      3.566      6.663
REMARK  Name = Profenamine
REMARK  8 active torsions:
REMARK  status: ('A' for Active; 'I' for Inactive)
REMARK    1  A    between atoms: C_1  and  C_2
REMARK    2  A    between atoms: C_2  and  N_3
REMARK    3  A    between atoms: N_3  and  C_4
REMARK    4  A    between atoms: N_3  and  C_6
REMARK    5  A    between atoms: C_4  and  C_5
REMARK    6  A    between atoms: C_6  and  C_7
REMARK    7  A    between atoms: C_6  and  C_8
REMARK    8  A    between atoms: C_8  and  N_9
REMARK                            x       y       z     vdW  Elec       q    Type
REMARK                         _______ _______ _______ _____ _____    ______ ____
ROOT
ATOM      1  N   UNL     1      -6.196  -1.340 126.117  0.00  0.00    +0.000 N 
ATOM      2  C   UNL     1      -6.735  -1.632 124.848  0.00  0.00    +0.000 A 
ATOM      3  C   UNL     1      -5.934  -1.575 123.699  0.00  0.00    +0.000 A 
ATOM      4  C   UNL     1      -6.438  -1.959 122.457  0.00  0.00    +0.000 A 
ATOM      5  C   UNL     1      -7.760  -2.383 122.340  0.00  0.00    +0.000 A 
ATOM      6  C   UNL     1      -8.581  -2.425 123.464  0.00  0.00    +0.000 A 
ATOM      7  C   UNL     1      -8.072  -2.073 124.715  0.00  0.00    +0.000 A 
ATOM      8  S   UNL     1      -9.167  -2.150 126.130  0.00  0.00    +0.000 S 
ATOM      9  C   UNL     1      -7.954  -2.480 127.400  0.00  0.00    +0.000 A 
ATOM     10  C   UNL     1      -8.342  -3.255 128.496  0.00  0.00    +0.000 A 
ATOM     11  C   UNL     1      -7.414  -3.600 129.475  0.00  0.00    +0.000 A 
ATOM     12  C   UNL     1      -6.096  -3.162 129.364  0.00  0.00    +0.000 A 
ATOM     13  C   UNL     1      -5.710  -2.370 128.282  0.00  0.00    +0.000 A 
ATOM     14  C   UNL     1      -6.629  -2.007 127.283  0.00  0.00    +0.000 A 
ENDROOT
BRANCH   1  15
ATOM     15  C   UNL     1      -5.443  -0.073 126.284  0.00  0.00    +0.000 C 
BRANCH  15  16
ATOM     16  C   UNL     1      -6.244   1.232 125.888  0.00  0.00    +0.000 C 
ATOM     17  C   UNL     1      -5.479   2.467 126.415  0.00  0.00    +0.000 C 
BRANCH  16  18
ATOM     18  N   UNL     1      -7.682   1.228 126.399  0.00  0.00    +0.000 NA
BRANCH  18  20
ATOM     19  C   UNL     1      -8.021   1.008 128.937  0.00  0.00    +0.000 C 
ATOM     20  C   UNL     1      -7.760   1.893 127.724  0.00  0.00    +0.000 C 
ENDBRANCH  18  20
BRANCH  18  21
ATOM     21  C   UNL     1      -8.582   1.856 125.402  0.00  0.00    +0.000 C 
ATOM     22  C   UNL     1      -8.269   1.610 123.930  0.00  0.00    +0.000 C 
ENDBRANCH  18  21
ENDBRANCH  16  18
ENDBRANCH  15  16
ENDBRANCH   1  15
TORSDOF 5
ENDMDL
MODEL 5
REMARK VINA RESULT:      -6.4      4.882      7.623
REMARK  Name = Profenamine
REMARK  8 active torsions:
REMARK  status: ('A' for Active; 'I' for Inactive)
REMARK    1  A    between atoms: C_1  and  C_2
REMARK    2  A    between atoms: C_2  and  N_3
REMARK    3  A    between atoms: N_3  and  C_4
REMARK    4  A    between atoms: N_3  and  C_6
REMARK    5  A    between atoms: C_4  and  C_5
REMARK    6  A    between atoms: C_6  and  C_7
REMARK    7  A    between atoms: C_6  and  C_8
REMARK    8  A    between atoms: C_8  and  N_9
REMARK                            x       y       z     vdW  Elec       q    Type
REMARK                         _______ _______ _______ _____ _____    ______ ____
ROOT
ATOM      1  N   UNL     1      -5.956  -1.942 126.815  0.00  0.00    +0.000 N 
ATOM      2  C   UNL     1      -7.017  -2.351 125.982  0.00  0.00    +0.000 A 
ATOM      3  C   UNL     1      -6.880  -2.333 124.587  0.00  0.00    +0.000 A 
ATOM      4  C   UNL     1      -7.890  -2.830 123.763  0.00  0.00    +0.000 A 
ATOM      5  C   UNL     1      -9.063  -3.331 124.322  0.00  0.00    +0.000 A 
ATOM      6  C   UNL     1      -9.231  -3.337 125.704  0.00  0.00    +0.000 A 
ATOM      7  C   UNL     1      -8.210  -2.871 126.533  0.00  0.00    +0.000 A 
ATOM      8  S   UNL     1      -8.473  -2.906 128.305  0.00  0.00    +0.000 S 
ATOM      9  C   UNL     1      -6.775  -3.080 128.832  0.00  0.00    +0.000 A 
ATOM     10  C   UNL     1      -6.519  -3.795 130.005  0.00  0.00    +0.000 A 
ATOM     11  C   UNL     1      -5.208  -4.020 130.418  0.00  0.00    +0.000 A 
ATOM     12  C   UNL     1      -4.149  -3.521 129.662  0.00  0.00    +0.000 A 
ATOM     13  C   UNL     1      -4.401  -2.788 128.503  0.00  0.00    +0.000 A 
ATOM     14  C   UNL     1      -5.715  -2.546 128.067  0.00  0.00    +0.000 A 
ENDROOT
BRANCH   1  15
ATOM     15  C   UNL     1      -5.323  -0.627 126.547  0.00  0.00    +0.000 C 
BRANCH  15  16
ATOM     16  C   UNL     1      -6.321   0.598 126.523  0.00  0.00    +0.000 C 
ATOM     17  C   UNL     1      -5.504   1.910 126.509  0.00  0.00    +0.000 C 
BRANCH  16  18
ATOM     18  N   UNL     1      -7.307   0.589 127.688  0.00  0.00    +0.000 NA
BRANCH  18  20
ATOM     19  C   UNL     1      -6.529   0.426 130.133  0.00  0.00    +0.000 C 
ATOM     20  C   UNL     1      -6.714   1.262 128.871  0.00  0.00    +0.000 C 
ENDBRANCH  18  20
BRANCH  18  21
ATOM     21  C   UNL     1      -8.591   1.206 127.278  0.00  0.00    +0.000 C 
ATOM     22  C   UNL     1      -9.246   0.670 126.010  0.00  0.00    +0.000 C 
ENDBRANCH  18  21
ENDBRANCH  16  18
ENDBRANCH  15  16
ENDBRANCH   1  15
TORSDOF 5
ENDMDL
MODEL 6
REMARK VINA RESULT:      -6.2      3.011      6.743
REMARK  Name = Profenamine
REMARK  8 active torsions:
REMARK  status: ('A' for Active; 'I' for Inactive)
REMARK    1  A    between atoms: C_1  and  C_2
REMARK    2  A    between atoms: C_2  and  N_3
REMARK    3  A    between atoms: N_3  and  C_4
REMARK    4  A    between atoms: N_3  and  C_6
REMARK    5  A    between atoms: C_4  and  C_5
REMARK    6  A    between atoms: C_6  and  C_7
REMARK    7  A    between atoms: C_6  and  C_8
REMARK    8  A    between atoms: C_8  and  N_9
REMARK                            x       y       z     vdW  Elec       q    Type
REMARK                         _______ _______ _______ _____ _____    ______ ____
ROOT
ATOM      1  N   UNL     1      -7.270  -0.888 126.125  0.00  0.00    +0.000 N 
ATOM      2  C   UNL     1      -7.955  -1.603 125.123  0.00  0.00    +0.000 A 
ATOM      3  C   UNL     1      -7.832  -1.242 123.774  0.00  0.00    +0.000 A 
ATOM      4  C   UNL     1      -8.428  -2.006 122.772  0.00  0.00    +0.000 A 
ATOM      5  C   UNL     1      -9.178  -3.132 123.105  0.00  0.00    +0.000 A 
ATOM      6  C   UNL     1      -9.334  -3.496 124.439  0.00  0.00    +0.000 A 
ATOM      7  C   UNL     1      -8.712  -2.753 125.444  0.00  0.00    +0.000 A 
ATOM      8  S   UNL     1      -8.939  -3.267 127.144  0.00  0.00    +0.000 S 
ATOM      9  C   UNL     1      -7.403  -2.658 127.824  0.00  0.00    +0.000 A 
ATOM     10  C   UNL     1      -6.827  -3.362 128.885  0.00  0.00    +0.000 A 
ATOM     11  C   UNL     1      -5.594  -2.969 129.400  0.00  0.00    +0.000 A 
ATOM     12  C   UNL     1      -4.938  -1.864 128.860  0.00  0.00    +0.000 A 
ATOM     13  C   UNL     1      -5.521  -1.146 127.816  0.00  0.00    +0.000 A 
ATOM     14  C   UNL     1      -6.765  -1.522 127.281  0.00  0.00    +0.000 A 
ENDROOT
BRANCH   1  15
ATOM     15  C   UNL     1      -7.407   0.589 126.150  0.00  0.00    +0.000 C 
BRANCH  15  16
ATOM     16  C   UNL     1      -6.291   1.373 125.352  0.00  0.00    +0.000 C 
ATOM     17  C   UNL     1      -5.486   2.245 126.343  0.00  0.00    +0.000 C 
BRANCH  16  18
ATOM     18  N   UNL     1      -6.855   2.226 124.218  0.00  0.00    +0.000 NA
BRANCH  18  20
ATOM     19  C   UNL     1      -9.219   2.148 123.212  0.00  0.00    +0.000 C 
ATOM     20  C   UNL     1      -8.314   2.432 124.405  0.00  0.00    +0.000 C 
ENDBRANCH  18  20
BRANCH  18  21
ATOM     21  C   UNL     1      -6.116   3.507 124.124  0.00  0.00    +0.000 C 
ATOM     22  C   UNL     1      -5.759   4.002 122.727  0.00  0.00    +0.000 C 
ENDBRANCH  18  21
ENDBRANCH  16  18
ENDBRANCH  15  16
ENDBRANCH   1  15
TORSDOF 5
ENDMDL
MODEL 7
REMARK VINA RESULT:      -6.2      2.387      3.729
REMARK  Name = Profenamine
REMARK  8 active torsions:
REMARK  status: ('A' for Active; 'I' for Inactive)
REMARK    1  A    between atoms: C_1  and  C_2
REMARK    2  A    between atoms: C_2  and  N_3
REMARK    3  A    between atoms: N_3  and  C_4
REMARK    4  A    between atoms: N_3  and  C_6
REMARK    5  A    between atoms: C_4  and  C_5
REMARK    6  A    between atoms: C_6  and  C_7
REMARK    7  A    between atoms: C_6  and  C_8
REMARK    8  A    between atoms: C_8  and  N_9
REMARK                            x       y       z     vdW  Elec       q    Type
REMARK                         _______ _______ _______ _____ _____    ______ ____
ROOT
ATOM      1  N   UNL     1      -6.920   1.483 125.721  0.00  0.00    +0.000 N 
ATOM      2  C   UNL     1      -6.540   2.283 124.625  0.00  0.00    +0.000 A 
ATOM      3  C   UNL     1      -6.896   1.922 123.318  0.00  0.00    +0.000 A 
ATOM      4  C   UNL     1      -6.608   2.761 122.242  0.00  0.00    +0.000 A 
ATOM      5  C   UNL     1      -5.939   3.964 122.453  0.00  0.00    +0.000 A 
ATOM      6  C   UNL     1      -5.555   4.332 123.740  0.00  0.00    +0.000 A 
ATOM      7  C   UNL     1      -5.870   3.512 124.824  0.00  0.00    +0.000 A 
ATOM      8  S   UNL     1      -5.359   4.033 126.460  0.00  0.00    +0.000 S 
ATOM      9  C   UNL     1      -6.644   3.241 127.415  0.00  0.00    +0.000 A 
ATOM     10  C   UNL     1      -7.067   3.862 128.594  0.00  0.00    +0.000 A 
ATOM     11  C   UNL     1      -8.116   3.322 129.335  0.00  0.00    +0.000 A 
ATOM     12  C   UNL     1      -8.738   2.152 128.902  0.00  0.00    +0.000 A 
ATOM     13  C   UNL     1      -8.304   1.518 127.738  0.00  0.00    +0.000 A 
ATOM     14  C   UNL     1      -7.247   2.042 126.975  0.00  0.00    +0.000 A 
ENDROOT
BRANCH   1  15
ATOM     15  C   UNL     1      -6.614   0.032 125.669  0.00  0.00    +0.000 C 
BRANCH  15  16
ATOM     16  C   UNL     1      -7.846  -0.894 125.320  0.00  0.00    +0.000 C 
ATOM     17  C   UNL     1      -8.099  -1.858 126.502  0.00  0.00    +0.000 C 
BRANCH  16  18
ATOM     18  N   UNL     1      -7.658  -1.672 124.020  0.00  0.00    +0.000 NA
BRANCH  18  20
ATOM     19  C   UNL     1      -5.468  -3.015 123.945  0.00  0.00    +0.000 C 
ATOM     20  C   UNL     1      -6.220  -1.723 123.652  0.00  0.00    +0.000 C 
ENDBRANCH  18  20
BRANCH  18  21
ATOM     21  C   UNL     1      -8.253  -3.024 124.141  0.00  0.00    +0.000 C 
ATOM     22  C   UNL     1      -9.550  -3.284 123.382  0.00  0.00    +0.000 C 
ENDBRANCH  18  21
ENDBRANCH  16  18
ENDBRANCH  15  16
ENDBRANCH   1  15
TORSDOF 5
ENDMDL
MODEL 8
REMARK VINA RESULT:      -6.2      6.453      8.736
REMARK  Name = Profenamine
REMARK  8 active torsions:
REMARK  status: ('A' for Active; 'I' for Inactive)
REMARK    1  A    between atoms: C_1  and  C_2
REMARK    2  A    between atoms: C_2  and  N_3
REMARK    3  A    between atoms: N_3  and  C_4
REMARK    4  A    between atoms: N_3  and  C_6
REMARK    5  A    between atoms: C_4  and  C_5
REMARK    6  A    between atoms: C_6  and  C_7
REMARK    7  A    between atoms: C_6  and  C_8
REMARK    8  A    between atoms: C_8  and  N_9
REMARK                            x       y       z     vdW  Elec       q    Type
REMARK                         _______ _______ _______ _____ _____    ______ ____
ROOT
ATOM      1  N   UNL     1      -7.884  -1.906 130.214  0.00  0.00    +0.000 N 
ATOM      2  C   UNL     1      -8.079  -2.342 128.888  0.00  0.00    +0.000 A 
ATOM      3  C   UNL     1      -8.636  -3.601 128.623  0.00  0.00    +0.000 A 
ATOM      4  C   UNL     1      -8.922  -3.995 127.317  0.00  0.00    +0.000 A 
ATOM      5  C   UNL     1      -8.632  -3.146 126.251  0.00  0.00    +0.000 A 
ATOM      6  C   UNL     1      -8.056  -1.901 126.489  0.00  0.00    +0.000 A 
ATOM      7  C   UNL     1      -7.799  -1.488 127.797  0.00  0.00    +0.000 A 
ATOM      8  S   UNL     1      -7.063   0.125 128.050  0.00  0.00    +0.000 S 
ATOM      9  C   UNL     1      -7.734   0.484 129.666  0.00  0.00    +0.000 A 
ATOM     10  C   UNL     1      -8.001   1.818 129.987  0.00  0.00    +0.000 A 
ATOM     11  C   UNL     1      -8.592   2.141 131.206  0.00  0.00    +0.000 A 
ATOM     12  C   UNL     1      -8.908   1.130 132.111  0.00  0.00    +0.000 A 
ATOM     13  C   UNL     1      -8.622  -0.200 131.804  0.00  0.00    +0.000 A 
ATOM     14  C   UNL     1      -8.025  -0.550 130.581  0.00  0.00    +0.000 A 
ENDROOT
BRANCH   1  15
ATOM     15  C   UNL     1      -7.165  -2.805 131.149  0.00  0.00    +0.000 C 
BRANCH  15  16
ATOM     16  C   UNL     1      -5.711  -3.219 130.686  0.00  0.00    +0.000 C 
ATOM     17  C   UNL     1      -5.529  -4.738 130.908  0.00  0.00    +0.000 C 
BRANCH  16  18
ATOM     18  N   UNL     1      -4.612  -2.434 131.396  0.00  0.00    +0.000 NA
BRANCH  18  20
ATOM     19  C   UNL     1      -4.324   0.090 131.002  0.00  0.00    +0.000 C 
ATOM     20  C   UNL     1      -4.112  -1.342 130.523  0.00  0.00    +0.000 C 
ENDBRANCH  18  20
BRANCH  18  21
ATOM     21  C   UNL     1      -5.104  -1.928 132.700  0.00  0.00    +0.000 C 
ATOM     22  C   UNL     1      -4.474  -2.518 133.957  0.00  0.00    +0.000 C 
ENDBRANCH  18  21
ENDBRANCH  16  18
ENDBRANCH  15  16
ENDBRANCH   1  15
TORSDOF 5
ENDMDL
MODEL 9
REMARK VINA RESULT:      -6.0      7.126      8.848
REMARK  Name = Profenamine
REMARK  8 active torsions:
REMARK  status: ('A' for Active; 'I' for Inactive)
REMARK    1  A    between atoms: C_1  and  C_2
REMARK    2  A    between atoms: C_2  and  N_3
REMARK    3  A    between atoms: N_3  and  C_4
REMARK    4  A    between atoms: N_3  and  C_6
REMARK    5  A    between atoms: C_4  and  C_5
REMARK    6  A    between atoms: C_6  and  C_7
REMARK    7  A    between atoms: C_6  and  C_8
REMARK    8  A    between atoms: C_8  and  N_9
REMARK                            x       y       z     vdW  Elec       q    Type
REMARK                         _______ _______ _______ _____ _____    ______ ____
ROOT
ATOM      1  N   UNL     1      -9.785   4.367 131.364  0.00  0.00    +0.000 N 
ATOM      2  C   UNL     1     -10.294   5.417 130.573  0.00  0.00    +0.000 A 
ATOM      3  C   UNL     1     -11.593   5.353 130.049  0.00  0.00    +0.000 A 
ATOM      4  C   UNL     1     -12.136   6.431 129.351  0.00  0.00    +0.000 A 
ATOM      5  C   UNL     1     -11.379   7.582 129.145  0.00  0.00    +0.000 A 
ATOM      6  C   UNL     1     -10.078   7.659 129.636  0.00  0.00    +0.000 A 
ATOM      7  C   UNL     1      -9.542   6.596 130.364  0.00  0.00    +0.000 A 
ATOM      8  S   UNL     1      -7.867   6.746 130.979  0.00  0.00    +0.000 S 
ATOM      9  C   UNL     1      -8.006   5.695 132.417  0.00  0.00    +0.000 A 
ATOM     10  C   UNL     1      -7.230   6.005 133.537  0.00  0.00    +0.000 A 
ATOM     11  C   UNL     1      -7.357   5.259 134.707  0.00  0.00    +0.000 A 
ATOM     12  C   UNL     1      -8.255   4.194 134.754  0.00  0.00    +0.000 A 
ATOM     13  C   UNL     1      -9.014   3.868 133.631  0.00  0.00    +0.000 A 
ATOM     14  C   UNL     1      -8.902   4.604 132.439  0.00  0.00    +0.000 A 
ENDROOT
BRANCH   1  15
ATOM     15  C   UNL     1      -9.875   2.984 130.834  0.00  0.00    +0.000 C 
BRANCH  15  16
ATOM     16  C   UNL     1      -8.503   2.367 130.351  0.00  0.00    +0.000 C 
ATOM     17  C   UNL     1      -8.654   1.894 128.887  0.00  0.00    +0.000 C 
BRANCH  16  18
ATOM     18  N   UNL     1      -8.016   1.226 131.239  0.00  0.00    +0.000 NA
BRANCH  18  20
ATOM     19  C   UNL     1      -7.699  -1.325 131.200  0.00  0.00    +0.000 C 
ATOM     20  C   UNL     1      -8.392  -0.084 130.649  0.00  0.00    +0.000 C 
ENDBRANCH  18  20
BRANCH  18  21
ATOM     21  C   UNL     1      -6.555   1.340 131.465  0.00  0.00    +0.000 C 
ATOM     22  C   UNL     1      -5.954   2.741 131.437  0.00  0.00    +0.000 C 
ENDBRANCH  18  21
ENDBRANCH  16  18
ENDBRANCH  15  16
ENDBRANCH   1  15
TORSDOF 5
ENDMDL
