MODEL 1
REMARK VINA RESULT:      -6.6      0.000      0.000
REMARK  Name = Proguanil
REMARK  4 active torsions:
REMARK  status: ('A' for Active; 'I' for Inactive)
REMARK    1  A    between atoms: C_1  and  C_2
REMARK    2  A    between atoms: C_2  and  C_3
REMARK    3  A    between atoms: C_2  and  N_4
REMARK    4  A    between atoms: N_10  and  C_11
REMARK                            x       y       z     vdW  Elec       q    Type
REMARK                         _______ _______ _______ _____ _____    ______ ____
ROOT
ATOM      1  N   UNL     1      -8.062  -1.330 127.088  0.00  0.00    +0.000 N 
ATOM      2  C   UNL     1      -7.657  -0.918 125.837  0.00  0.00    +0.000 C 
ATOM      3  N   UNL     1      -7.079  -1.726 125.010  0.00  0.00    +0.000 NA
ATOM      4  N   UNL     1      -7.887   0.389 125.413  0.00  0.00    +0.000 N 
ATOM      5  C   UNL     1      -7.599   0.898 124.143  0.00  0.00    +0.000 C 
ATOM      6  N   UNL     1      -7.095   0.123 123.225  0.00  0.00    +0.000 NA
ATOM      7  N   UNL     1      -7.843   2.229 123.846  0.00  0.00    +0.000 N 
ATOM      8  H   UNL     1      -8.385  -0.660 127.770  0.00  0.00    +0.000 HD
ATOM      9  H   UNL     1      -6.939  -2.649 125.408  0.00  0.00    +0.000 HD
ATOM     10  H   UNL     1      -8.272   1.028 126.084  0.00  0.00    +0.000 HD
ATOM     11  H   UNL     1      -6.999  -0.813 123.670  0.00  0.00    +0.000 HD
ATOM     12  H   UNL     1      -8.016   2.906 124.571  0.00  0.00    +0.000 HD
ENDROOT
BRANCH   7  13
ATOM     13  C   UNL     1      -7.610   2.779 122.546  0.00  0.00    +0.000 A 
ATOM     14  C   UNL     1      -6.306   3.095 122.118  0.00  0.00    +0.000 A 
ATOM     15  C   UNL     1      -6.049   3.769 120.919  0.00  0.00    +0.000 A 
ATOM     16  C   UNL     1      -7.108   4.145 120.108  0.00  0.00    +0.000 A 
ATOM     17 CL   UNL     1      -6.801   4.997 118.643  0.00  0.00    +0.000 Cl
ATOM     18  C   UNL     1      -8.415   3.841 120.490  0.00  0.00    +0.000 A 
ATOM     19  C   UNL     1      -8.666   3.165 121.703  0.00  0.00    +0.000 A 
ENDBRANCH   7  13
BRANCH   1  21
ATOM     20  C   UNL     1      -7.771  -2.811 129.101  0.00  0.00    +0.000 C 
ATOM     21  C   UNL     1      -7.885  -2.718 127.577  0.00  0.00    +0.000 C 
ATOM     22  C   UNL     1      -9.062  -3.604 127.146  0.00  0.00    +0.000 C 
ENDBRANCH   1  21
TORSDOF 2
ENDMDL
MODEL 2
REMARK VINA RESULT:      -6.6      9.990     12.220
REMARK  Name = Proguanil
REMARK  4 active torsions:
REMARK  status: ('A' for Active; 'I' for Inactive)
REMARK    1  A    between atoms: C_1  and  C_2
REMARK    2  A    between atoms: C_2  and  C_3
REMARK    3  A    between atoms: C_2  and  N_4
REMARK    4  A    between atoms: N_10  and  C_11
REMARK                            x       y       z     vdW  Elec       q    Type
REMARK                         _______ _______ _______ _____ _____    ______ ____
ROOT
ATOM      1  N   UNL     1     -12.443   7.833 130.351  0.00  0.00    +0.000 N 
ATOM      2  C   UNL     1     -11.271   7.161 130.626  0.00  0.00    +0.000 C 
ATOM      3  N   UNL     1     -10.229   7.278 129.871  0.00  0.00    +0.000 NA
ATOM      4  N   UNL     1     -11.168   6.350 131.753  0.00  0.00    +0.000 N 
ATOM      5  C   UNL     1     -10.012   5.689 132.180  0.00  0.00    +0.000 C 
ATOM      6  N   UNL     1      -8.897   5.826 131.521  0.00  0.00    +0.000 NA
ATOM      7  N   UNL     1     -10.039   4.879 133.304  0.00  0.00    +0.000 N 
ATOM      8  H   UNL     1     -13.286   7.627 130.867  0.00  0.00    +0.000 HD
ATOM      9  H   UNL     1     -10.400   7.875 129.067  0.00  0.00    +0.000 HD
ATOM     10  H   UNL     1     -12.001   6.208 132.294  0.00  0.00    +0.000 HD
ATOM     11  H   UNL     1      -9.116   6.465 130.729  0.00  0.00    +0.000 HD
ATOM     12  H   UNL     1     -10.907   4.568 133.707  0.00  0.00    +0.000 HD
ENDROOT
BRANCH   7  13
ATOM     13  C   UNL     1      -8.869   4.224 133.804  0.00  0.00    +0.000 A 
ATOM     14  C   UNL     1      -8.001   4.881 134.698  0.00  0.00    +0.000 A 
ATOM     15  C   UNL     1      -6.775   4.335 135.095  0.00  0.00    +0.000 A 
ATOM     16  C   UNL     1      -6.386   3.100 134.599  0.00  0.00    +0.000 A 
ATOM     17 CL   UNL     1      -4.867   2.434 135.062  0.00  0.00    +0.000 Cl
ATOM     18  C   UNL     1      -7.222   2.412 133.721  0.00  0.00    +0.000 A 
ATOM     19  C   UNL     1      -8.456   2.971 133.323  0.00  0.00    +0.000 A 
ENDBRANCH   7  13
BRANCH   1  21
ATOM     20  C   UNL     1     -13.496   8.172 128.092  0.00  0.00    +0.000 C 
ATOM     21  C   UNL     1     -12.599   8.743 129.192  0.00  0.00    +0.000 C 
ATOM     22  C   UNL     1     -13.201  10.086 129.630  0.00  0.00    +0.000 C 
ENDBRANCH   1  21
TORSDOF 2
ENDMDL
MODEL 3
REMARK VINA RESULT:      -6.6      8.588     10.990
REMARK  Name = Proguanil
REMARK  4 active torsions:
REMARK  status: ('A' for Active; 'I' for Inactive)
REMARK    1  A    between atoms: C_1  and  C_2
REMARK    2  A    between atoms: C_2  and  C_3
REMARK    3  A    between atoms: C_2  and  N_4
REMARK    4  A    between atoms: N_10  and  C_11
REMARK                            x       y       z     vdW  Elec       q    Type
REMARK                         _______ _______ _______ _____ _____    ______ ____
ROOT
ATOM      1  N   UNL     1     -12.372   6.764 129.992  0.00  0.00    +0.000 N 
ATOM      2  C   UNL     1     -11.376   5.813 129.929  0.00  0.00    +0.000 C 
ATOM      3  N   UNL     1     -10.526   5.785 128.956  0.00  0.00    +0.000 NA
ATOM      4  N   UNL     1     -11.241   4.862 130.937  0.00  0.00    +0.000 N 
ATOM      5  C   UNL     1     -10.224   3.905 131.025  0.00  0.00    +0.000 C 
ATOM      6  N   UNL     1      -9.279   3.868 130.129  0.00  0.00    +0.000 NA
ATOM      7  N   UNL     1     -10.211   2.985 132.061  0.00  0.00    +0.000 N 
ATOM      8  H   UNL     1     -13.108   6.691 130.679  0.00  0.00    +0.000 HD
ATOM      9  H   UNL     1     -10.711   6.503 128.262  0.00  0.00    +0.000 HD
ATOM     10  H   UNL     1     -11.945   4.846 131.651  0.00  0.00    +0.000 HD
ATOM     11  H   UNL     1      -9.495   4.636 129.461  0.00  0.00    +0.000 HD
ATOM     12  H   UNL     1     -11.021   2.831 132.638  0.00  0.00    +0.000 HD
ENDROOT
BRANCH   7  13
ATOM     13  C   UNL     1      -9.165   2.022 132.217  0.00  0.00    +0.000 A 
ATOM     14  C   UNL     1      -9.318   0.706 131.741  0.00  0.00    +0.000 A 
ATOM     15  C   UNL     1      -8.384  -0.304 132.003  0.00  0.00    +0.000 A 
ATOM     16  C   UNL     1      -7.259  -0.012 132.757  0.00  0.00    +0.000 A 
ATOM     17 CL   UNL     1      -6.118  -1.255 133.105  0.00  0.00    +0.000 Cl
ATOM     18  C   UNL     1      -7.063   1.283 133.237  0.00  0.00    +0.000 A 
ATOM     19  C   UNL     1      -8.012   2.294 132.972  0.00  0.00    +0.000 A 
ENDBRANCH   7  13
BRANCH   1  21
ATOM     20  C   UNL     1     -13.684   7.551 127.996  0.00  0.00    +0.000 C 
ATOM     21  C   UNL     1     -12.539   7.827 128.974  0.00  0.00    +0.000 C 
ATOM     22  C   UNL     1     -12.816   9.183 129.639  0.00  0.00    +0.000 C 
ENDBRANCH   1  21
TORSDOF 2
ENDMDL
MODEL 4
REMARK VINA RESULT:      -6.2      6.252      8.128
REMARK  Name = Proguanil
REMARK  4 active torsions:
REMARK  status: ('A' for Active; 'I' for Inactive)
REMARK    1  A    between atoms: C_1  and  C_2
REMARK    2  A    between atoms: C_2  and  C_3
REMARK    3  A    between atoms: C_2  and  N_4
REMARK    4  A    between atoms: N_10  and  C_11
REMARK                            x       y       z     vdW  Elec       q    Type
REMARK                         _______ _______ _______ _____ _____    ______ ____
ROOT
ATOM      1  N   UNL     1      -7.286   3.021 123.265  0.00  0.00    +0.000 N 
ATOM      2  C   UNL     1      -6.954   3.764 124.378  0.00  0.00    +0.000 C 
ATOM      3  N   UNL     1      -7.800   4.567 124.934  0.00  0.00    +0.000 NA
ATOM      4  N   UNL     1      -5.693   3.647 124.957  0.00  0.00    +0.000 N 
ATOM      5  C   UNL     1      -5.272   4.281 126.131  0.00  0.00    +0.000 C 
ATOM      6  N   UNL     1      -6.094   5.040 126.797  0.00  0.00    +0.000 NA
ATOM      7  N   UNL     1      -3.977   4.114 126.595  0.00  0.00    +0.000 N 
ATOM      8  H   UNL     1      -6.578   2.505 122.762  0.00  0.00    +0.000 HD
ATOM      9  H   UNL     1      -8.685   4.600 124.436  0.00  0.00    +0.000 HD
ATOM     10  H   UNL     1      -5.020   3.076 124.481  0.00  0.00    +0.000 HD
ATOM     11  H   UNL     1      -6.990   5.018 126.267  0.00  0.00    +0.000 HD
ATOM     12  H   UNL     1      -3.254   3.730 126.010  0.00  0.00    +0.000 HD
ENDROOT
BRANCH   7  13
ATOM     13  C   UNL     1      -3.519   4.704 127.815  0.00  0.00    +0.000 A 
ATOM     14  C   UNL     1      -2.787   5.907 127.806  0.00  0.00    +0.000 A 
ATOM     15  C   UNL     1      -2.195   6.438 128.958  0.00  0.00    +0.000 A 
ATOM     16  C   UNL     1      -2.328   5.766 130.163  0.00  0.00    +0.000 A 
ATOM     17 CL   UNL     1      -1.581   6.400 131.580  0.00  0.00    +0.000 Cl
ATOM     18  C   UNL     1      -3.055   4.578 130.218  0.00  0.00    +0.000 A 
ATOM     19  C   UNL     1      -3.646   4.047 129.051  0.00  0.00    +0.000 A 
ENDBRANCH   7  13
BRANCH   1  21
ATOM     20  C   UNL     1      -8.577   3.460 121.152  0.00  0.00    +0.000 C 
ATOM     21  C   UNL     1      -8.624   3.070 122.631  0.00  0.00    +0.000 C 
ATOM     22  C   UNL     1      -9.325   1.707 122.728  0.00  0.00    +0.000 C 
ENDBRANCH   1  21
TORSDOF 2
ENDMDL
MODEL 5
REMARK VINA RESULT:      -6.0      8.065      8.744
REMARK  Name = Proguanil
REMARK  4 active torsions:
REMARK  status: ('A' for Active; 'I' for Inactive)
REMARK    1  A    between atoms: C_1  and  C_2
REMARK    2  A    between atoms: C_2  and  C_3
REMARK    3  A    between atoms: C_2  and  N_4
REMARK    4  A    between atoms: N_10  and  C_11
REMARK                            x       y       z     vdW  Elec       q    Type
REMARK                         _______ _______ _______ _____ _____    ______ ____
ROOT
ATOM      1  N   UNL     1      -6.979   2.319 131.749  0.00  0.00    +0.000 N 
ATOM      2  C   UNL     1      -7.971   2.923 131.006  0.00  0.00    +0.000 C 
ATOM      3  N   UNL     1      -8.679   2.258 130.153  0.00  0.00    +0.000 NA
ATOM      4  N   UNL     1      -8.259   4.275 131.175  0.00  0.00    +0.000 N 
ATOM      5  C   UNL     1      -9.293   4.974 130.544  0.00  0.00    +0.000 C 
ATOM      6  N   UNL     1     -10.106   4.355 129.736  0.00  0.00    +0.000 NA
ATOM      7  N   UNL     1      -9.463   6.331 130.767  0.00  0.00    +0.000 N 
ATOM      8  H   UNL     1      -6.345   2.874 132.306  0.00  0.00    +0.000 HD
ATOM      9  H   UNL     1      -8.390   1.287 130.085  0.00  0.00    +0.000 HD
ATOM     10  H   UNL     1      -7.660   4.799 131.786  0.00  0.00    +0.000 HD
ATOM     11  H   UNL     1      -9.788   3.364 129.723  0.00  0.00    +0.000 HD
ATOM     12  H   UNL     1      -8.742   6.888 131.195  0.00  0.00    +0.000 HD
ENDROOT
BRANCH   7  13
ATOM     13  C   UNL     1     -10.536   7.075 130.182  0.00  0.00    +0.000 A 
ATOM     14  C   UNL     1     -10.349   7.789 128.982  0.00  0.00    +0.000 A 
ATOM     15  C   UNL     1     -11.323   8.646 128.456  0.00  0.00    +0.000 A 
ATOM     16  C   UNL     1     -12.524   8.807 129.129  0.00  0.00    +0.000 A 
ATOM     17 CL   UNL     1     -13.718   9.879 128.502  0.00  0.00    +0.000 Cl
ATOM     18  C   UNL     1     -12.753   8.108 130.315  0.00  0.00    +0.000 A 
ATOM     19  C   UNL     1     -11.764   7.249 130.840  0.00  0.00    +0.000 A 
ENDBRANCH   7  13
BRANCH   1  21
ATOM     20  C   UNL     1      -5.343   0.604 130.907  0.00  0.00    +0.000 C 
ATOM     21  C   UNL     1      -6.656   0.877 131.644  0.00  0.00    +0.000 C 
ATOM     22  C   UNL     1      -6.546   0.239 133.036  0.00  0.00    +0.000 C 
ENDBRANCH   1  21
TORSDOF 2
ENDMDL
MODEL 6
REMARK VINA RESULT:      -5.8      5.069      6.789
REMARK  Name = Proguanil
REMARK  4 active torsions:
REMARK  status: ('A' for Active; 'I' for Inactive)
REMARK    1  A    between atoms: C_1  and  C_2
REMARK    2  A    between atoms: C_2  and  C_3
REMARK    3  A    between atoms: C_2  and  N_4
REMARK    4  A    between atoms: N_10  and  C_11
REMARK                            x       y       z     vdW  Elec       q    Type
REMARK                         _______ _______ _______ _____ _____    ______ ____
ROOT
ATOM      1  N   UNL     1      -3.797   4.814 127.515  0.00  0.00    +0.000 N 
ATOM      2  C   UNL     1      -4.077   3.524 127.119  0.00  0.00    +0.000 C 
ATOM      3  N   UNL     1      -3.304   2.536 127.429  0.00  0.00    +0.000 NA
ATOM      4  N   UNL     1      -5.229   3.242 126.389  0.00  0.00    +0.000 N 
ATOM      5  C   UNL     1      -5.662   1.968 126.006  0.00  0.00    +0.000 C 
ATOM      6  N   UNL     1      -4.983   0.913 126.355  0.00  0.00    +0.000 NA
ATOM      7  N   UNL     1      -6.812   1.814 125.250  0.00  0.00    +0.000 N 
ATOM      8  H   UNL     1      -4.331   5.591 127.152  0.00  0.00    +0.000 HD
ATOM      9  H   UNL     1      -2.483   2.836 127.946  0.00  0.00    +0.000 HD
ATOM     10  H   UNL     1      -5.787   4.021 126.093  0.00  0.00    +0.000 HD
ATOM     11  H   UNL     1      -4.173   1.269 126.904  0.00  0.00    +0.000 HD
ATOM     12  H   UNL     1      -7.238   2.592 124.775  0.00  0.00    +0.000 HD
ENDROOT
BRANCH   7  13
ATOM     13  C   UNL     1      -7.318   0.528 124.878  0.00  0.00    +0.000 A 
ATOM     14  C   UNL     1      -7.011  -0.034 123.624  0.00  0.00    +0.000 A 
ATOM     15  C   UNL     1      -7.601  -1.216 123.163  0.00  0.00    +0.000 A 
ATOM     16  C   UNL     1      -8.524  -1.873 123.961  0.00  0.00    +0.000 A 
ATOM     17 CL   UNL     1      -9.274  -3.315 123.390  0.00  0.00    +0.000 Cl
ATOM     18  C   UNL     1      -8.847  -1.356 125.216  0.00  0.00    +0.000 A 
ATOM     19  C   UNL     1      -8.250  -0.161 125.671  0.00  0.00    +0.000 A 
ENDBRANCH   7  13
BRANCH   1  21
ATOM     20  C   UNL     1      -2.198   6.636 128.188  0.00  0.00    +0.000 C 
ATOM     21  C   UNL     1      -2.610   5.169 128.328  0.00  0.00    +0.000 C 
ATOM     22  C   UNL     1      -2.870   4.903 129.818  0.00  0.00    +0.000 C 
ENDBRANCH   1  21
TORSDOF 2
ENDMDL
MODEL 7
REMARK VINA RESULT:      -5.8      7.774      8.874
REMARK  Name = Proguanil
REMARK  4 active torsions:
REMARK  status: ('A' for Active; 'I' for Inactive)
REMARK    1  A    between atoms: C_1  and  C_2
REMARK    2  A    between atoms: C_2  and  C_3
REMARK    3  A    between atoms: C_2  and  N_4
REMARK    4  A    between atoms: N_10  and  C_11
REMARK                            x       y       z     vdW  Elec       q    Type
REMARK                         _______ _______ _______ _____ _____    ______ ____
ROOT
ATOM      1  N   UNL     1     -10.216   6.656 130.701  0.00  0.00    +0.000 N 
ATOM      2  C   UNL     1      -9.296   6.005 129.908  0.00  0.00    +0.000 C 
ATOM      3  N   UNL     1      -9.594   5.598 128.717  0.00  0.00    +0.000 NA
ATOM      4  N   UNL     1      -7.998   5.788 130.361  0.00  0.00    +0.000 N 
ATOM      5  C   UNL     1      -6.958   5.218 129.619  0.00  0.00    +0.000 C 
ATOM      6  N   UNL     1      -7.155   4.860 128.382  0.00  0.00    +0.000 NA
ATOM      7  N   UNL     1      -5.711   5.021 130.190  0.00  0.00    +0.000 N 
ATOM      8  H   UNL     1     -10.015   6.844 131.672  0.00  0.00    +0.000 HD
ATOM      9  H   UNL     1     -10.564   5.784 128.478  0.00  0.00    +0.000 HD
ATOM     10  H   UNL     1      -7.794   6.043 131.310  0.00  0.00    +0.000 HD
ATOM     11  H   UNL     1      -8.148   5.097 128.176  0.00  0.00    +0.000 HD
ATOM     12  H   UNL     1      -5.575   5.070 131.186  0.00  0.00    +0.000 HD
ENDROOT
BRANCH   7  13
ATOM     13  C   UNL     1      -4.607   4.487 129.454  0.00  0.00    +0.000 A 
ATOM     14  C   UNL     1      -3.675   5.340 128.831  0.00  0.00    +0.000 A 
ATOM     15  C   UNL     1      -2.669   4.864 127.982  0.00  0.00    +0.000 A 
ATOM     16  C   UNL     1      -2.573   3.503 127.735  0.00  0.00    +0.000 A 
ATOM     17 CL   UNL     1      -1.354   2.913 126.671  0.00  0.00    +0.000 Cl
ATOM     18  C   UNL     1      -3.469   2.624 128.342  0.00  0.00    +0.000 A 
ATOM     19  C   UNL     1      -4.483   3.112 129.194  0.00  0.00    +0.000 A 
ENDBRANCH   7  13
BRANCH   1  21
ATOM     20  C   UNL     1     -12.583   7.116 131.417  0.00  0.00    +0.000 C 
ATOM     21  C   UNL     1     -11.598   6.954 130.257  0.00  0.00    +0.000 C 
ATOM     22  C   UNL     1     -11.640   8.247 129.430  0.00  0.00    +0.000 C 
ENDBRANCH   1  21
TORSDOF 2
ENDMDL
MODEL 8
REMARK VINA RESULT:      -5.7      5.235      6.262
REMARK  Name = Proguanil
REMARK  4 active torsions:
REMARK  status: ('A' for Active; 'I' for Inactive)
REMARK    1  A    between atoms: C_1  and  C_2
REMARK    2  A    between atoms: C_2  and  C_3
REMARK    3  A    between atoms: C_2  and  N_4
REMARK    4  A    between atoms: N_10  and  C_11
REMARK                            x       y       z     vdW  Elec       q    Type
REMARK                         _______ _______ _______ _____ _____    ______ ____
ROOT
ATOM      1  N   UNL     1      -7.431  -1.601 125.093  0.00  0.00    +0.000 N 
ATOM      2  C   UNL     1      -7.189  -0.340 125.596  0.00  0.00    +0.000 C 
ATOM      3  N   UNL     1      -8.136   0.527 125.735  0.00  0.00    +0.000 NA
ATOM      4  N   UNL     1      -5.907   0.028 125.996  0.00  0.00    +0.000 N 
ATOM      5  C   UNL     1      -5.557   1.242 126.596  0.00  0.00    +0.000 C 
ATOM      6  N   UNL     1      -6.470   2.136 126.850  0.00  0.00    +0.000 NA
ATOM      7  N   UNL     1      -4.238   1.511 126.923  0.00  0.00    +0.000 N 
ATOM      8  H   UNL     1      -6.665  -2.217 124.862  0.00  0.00    +0.000 HD
ATOM      9  H   UNL     1      -9.031   0.178 125.404  0.00  0.00    +0.000 HD
ATOM     10  H   UNL     1      -5.166  -0.624 125.820  0.00  0.00    +0.000 HD
ATOM     11  H   UNL     1      -7.367   1.722 126.521  0.00  0.00    +0.000 HD
ATOM     12  H   UNL     1      -3.481   0.961 126.550  0.00  0.00    +0.000 HD
ENDROOT
BRANCH   7  13
ATOM     13  C   UNL     1      -3.842   2.718 127.581  0.00  0.00    +0.000 A 
ATOM     14  C   UNL     1      -3.201   3.751 126.871  0.00  0.00    +0.000 A 
ATOM     15  C   UNL     1      -2.667   4.880 127.503  0.00  0.00    +0.000 A 
ATOM     16  C   UNL     1      -2.767   5.002 128.880  0.00  0.00    +0.000 A 
ATOM     17 CL   UNL     1      -2.089   6.376 129.667  0.00  0.00    +0.000 Cl
ATOM     18  C   UNL     1      -3.405   4.006 129.619  0.00  0.00    +0.000 A 
ATOM     19  C   UNL     1      -3.938   2.869 128.975  0.00  0.00    +0.000 A 
ENDBRANCH   7  13
BRANCH   1  21
ATOM     20  C   UNL     1      -8.773  -2.900 123.409  0.00  0.00    +0.000 C 
ATOM     21  C   UNL     1      -8.779  -2.065 124.691  0.00  0.00    +0.000 C 
ATOM     22  C   UNL     1      -9.415  -2.920 125.797  0.00  0.00    +0.000 C 
ENDBRANCH   1  21
TORSDOF 2
ENDMDL
MODEL 9
REMARK VINA RESULT:      -5.7      7.735      9.725
REMARK  Name = Proguanil
REMARK  4 active torsions:
REMARK  status: ('A' for Active; 'I' for Inactive)
REMARK    1  A    between atoms: C_1  and  C_2
REMARK    2  A    between atoms: C_2  and  C_3
REMARK    3  A    between atoms: C_2  and  N_4
REMARK    4  A    between atoms: N_10  and  C_11
REMARK                            x       y       z     vdW  Elec       q    Type
REMARK                         _______ _______ _______ _____ _____    ______ ____
ROOT
ATOM      1  N   UNL     1     -10.049   4.320 130.241  0.00  0.00    +0.000 N 
ATOM      2  C   UNL     1      -9.731   3.081 130.755  0.00  0.00    +0.000 C 
ATOM      3  N   UNL     1     -10.296   2.625 131.824  0.00  0.00    +0.000 NA
ATOM      4  N   UNL     1      -8.803   2.265 130.113  0.00  0.00    +0.000 N 
ATOM      5  C   UNL     1      -8.465   0.961 130.489  0.00  0.00    +0.000 C 
ATOM      6  N   UNL     1      -9.053   0.398 131.506  0.00  0.00    +0.000 NA
ATOM      7  N   UNL     1      -7.499   0.256 129.790  0.00  0.00    +0.000 N 
ATOM      8  H   UNL     1      -9.505   4.719 129.490  0.00  0.00    +0.000 HD
ATOM      9  H   UNL     1     -10.945   3.292 132.232  0.00  0.00    +0.000 HD
ATOM     10  H   UNL     1      -8.319   2.653 129.325  0.00  0.00    +0.000 HD
ATOM     11  H   UNL     1      -9.725   1.106 131.868  0.00  0.00    +0.000 HD
ATOM     12  H   UNL     1      -6.869   0.715 129.154  0.00  0.00    +0.000 HD
ENDROOT
BRANCH   7  13
ATOM     13  C   UNL     1      -7.157  -1.097 130.109  0.00  0.00    +0.000 A 
ATOM     14  C   UNL     1      -6.077  -1.385 130.967  0.00  0.00    +0.000 A 
ATOM     15  C   UNL     1      -5.618  -2.689 131.187  0.00  0.00    +0.000 A 
ATOM     16  C   UNL     1      -6.240  -3.748 130.545  0.00  0.00    +0.000 A 
ATOM     17 CL   UNL     1      -5.664  -5.353 130.791  0.00  0.00    +0.000 Cl
ATOM     18  C   UNL     1      -7.320  -3.506 129.697  0.00  0.00    +0.000 A 
ATOM     19  C   UNL     1      -7.775  -2.188 129.477  0.00  0.00    +0.000 A 
ENDBRANCH   7  13
BRANCH   1  21
ATOM     20  C   UNL     1     -10.448   6.271 131.779  0.00  0.00    +0.000 C 
ATOM     21  C   UNL     1     -11.058   5.214 130.855  0.00  0.00    +0.000 C 
ATOM     22  C   UNL     1     -11.862   5.953 129.775  0.00  0.00    +0.000 C 
ENDBRANCH   1  21
TORSDOF 2
ENDMDL
