MODEL 1
REMARK VINA RESULT:      -8.2      0.000      0.000
REMARK  Name = Progesterone
REMARK  4 active torsions:
REMARK  status: ('A' for Active; 'I' for Inactive)
REMARK    1  A    between atoms: C_5  and  C_6
REMARK    2  A    between atoms: C_6  and  C_7
REMARK    3  A    between atoms: C_9  and  C_10
REMARK    4  A    between atoms: C_25  and  C_26
REMARK                            x       y       z     vdW  Elec       q    Type
REMARK                         _______ _______ _______ _____ _____    ______ ____
ROOT
ATOM      1  C   UNL     1      -6.483  -2.491 126.396  0.00  0.00    +0.000 C 
ATOM      2  C   UNL     1      -5.767  -1.752 125.284  0.00  0.00    +0.000 C 
ATOM      3  C   UNL     1      -6.491  -2.202 124.017  0.00  0.00    +0.000 C 
ATOM      4  C   UNL     1      -7.771  -2.953 124.450  0.00  0.00    +0.000 C 
ATOM      5  C   UNL     1      -7.956  -2.539 125.938  0.00  0.00    +0.000 C 
ATOM      6  C   UNL     1      -8.697  -1.181 126.005  0.00  0.00    +0.000 C 
ATOM      7  C   UNL     1      -8.654  -3.562 126.851  0.00  0.00    +0.000 C 
ATOM      8  C   UNL     1      -8.529  -3.176 128.342  0.00  0.00    +0.000 C 
ATOM      9  C   UNL     1      -7.082  -2.864 128.811  0.00  0.00    +0.000 C 
ATOM     10  C   UNL     1      -6.318  -1.948 127.813  0.00  0.00    +0.000 C 
ATOM     11  C   UNL     1      -4.836  -1.869 128.198  0.00  0.00    +0.000 C 
ATOM     12  C   UNL     1      -4.626  -1.415 129.635  0.00  0.00    +0.000 C 
ATOM     13  C   UNL     1      -5.483  -2.161 130.629  0.00  0.00    +0.000 C 
ATOM     14  C   UNL     1      -4.923  -2.625 131.759  0.00  0.00    +0.000 C 
ATOM     15  C   UNL     1      -5.749  -3.169 132.861  0.00  0.00    +0.000 C 
ATOM     16  O   UNL     1      -5.205  -3.575 133.882  0.00  0.00    +0.000 OA
ATOM     17  C   UNL     1      -7.246  -3.074 132.721  0.00  0.00    +0.000 C 
ATOM     18  C   UNL     1      -7.645  -3.309 131.269  0.00  0.00    +0.000 C 
ATOM     19  C   UNL     1      -6.973  -2.310 130.285  0.00  0.00    +0.000 C 
ATOM     20  C   UNL     1      -7.659  -0.933 130.430  0.00  0.00    +0.000 C 
ENDROOT
BRANCH   4  21
ATOM     21  C   UNL     1      -9.016  -2.732 123.584  0.00  0.00    +0.000 C 
ATOM     22  C   UNL     1      -9.143  -1.528 122.681  0.00  0.00    +0.000 C 
ATOM     23  O   UNL     1      -9.956  -3.532 123.645  0.00  0.00    +0.000 OA
ENDBRANCH   4  21
TORSDOF 1
ENDMDL
MODEL 2
REMARK VINA RESULT:      -7.7      1.563      2.943
REMARK  Name = Progesterone
REMARK  4 active torsions:
REMARK  status: ('A' for Active; 'I' for Inactive)
REMARK    1  A    between atoms: C_5  and  C_6
REMARK    2  A    between atoms: C_6  and  C_7
REMARK    3  A    between atoms: C_9  and  C_10
REMARK    4  A    between atoms: C_25  and  C_26
REMARK                            x       y       z     vdW  Elec       q    Type
REMARK                         _______ _______ _______ _____ _____    ______ ____
ROOT
ATOM      1  C   UNL     1      -7.900  -2.442 127.536  0.00  0.00    +0.000 C 
ATOM      2  C   UNL     1      -8.875  -3.463 126.986  0.00  0.00    +0.000 C 
ATOM      3  C   UNL     1      -9.501  -2.763 125.782  0.00  0.00    +0.000 C 
ATOM      4  C   UNL     1      -8.675  -1.487 125.501  0.00  0.00    +0.000 C 
ATOM      5  C   UNL     1      -7.354  -1.722 126.286  0.00  0.00    +0.000 C 
ATOM      6  C   UNL     1      -6.388  -2.570 125.423  0.00  0.00    +0.000 C 
ATOM      7  C   UNL     1      -6.630  -0.465 126.799  0.00  0.00    +0.000 C 
ATOM      8  C   UNL     1      -5.503  -0.820 127.795  0.00  0.00    +0.000 C 
ATOM      9  C   UNL     1      -5.935  -1.762 128.952  0.00  0.00    +0.000 C 
ATOM     10  C   UNL     1      -6.796  -2.958 128.456  0.00  0.00    +0.000 C 
ATOM     11  C   UNL     1      -7.390  -3.712 129.652  0.00  0.00    +0.000 C 
ATOM     12  C   UNL     1      -6.330  -4.170 130.643  0.00  0.00    +0.000 C 
ATOM     13  C   UNL     1      -5.356  -3.080 131.022  0.00  0.00    +0.000 C 
ATOM     14  C   UNL     1      -5.045  -2.901 132.317  0.00  0.00    +0.000 C 
ATOM     15  C   UNL     1      -3.942  -2.001 132.727  0.00  0.00    +0.000 C 
ATOM     16  O   UNL     1      -3.680  -1.869 133.917  0.00  0.00    +0.000 OA
ATOM     17  C   UNL     1      -3.104  -1.387 131.637  0.00  0.00    +0.000 C 
ATOM     18  C   UNL     1      -3.985  -1.033 130.444  0.00  0.00    +0.000 C 
ATOM     19  C   UNL     1      -4.752  -2.259 129.872  0.00  0.00    +0.000 C 
ATOM     20  C   UNL     1      -3.756  -3.148 129.093  0.00  0.00    +0.000 C 
ENDROOT
BRANCH   4  21
ATOM     21  C   UNL     1      -8.466  -1.122 124.026  0.00  0.00    +0.000 C 
ATOM     22  C   UNL     1      -8.782  -2.102 122.922  0.00  0.00    +0.000 C 
ATOM     23  O   UNL     1      -7.996  -0.018 123.728  0.00  0.00    +0.000 OA
ENDBRANCH   4  21
TORSDOF 1
ENDMDL
MODEL 3
REMARK VINA RESULT:      -7.5      1.376      7.178
REMARK  Name = Progesterone
REMARK  4 active torsions:
REMARK  status: ('A' for Active; 'I' for Inactive)
REMARK    1  A    between atoms: C_5  and  C_6
REMARK    2  A    between atoms: C_6  and  C_7
REMARK    3  A    between atoms: C_9  and  C_10
REMARK    4  A    between atoms: C_25  and  C_26
REMARK                            x       y       z     vdW  Elec       q    Type
REMARK                         _______ _______ _______ _____ _____    ______ ____
ROOT
ATOM      1  C   UNL     1      -6.199  -3.496 129.858  0.00  0.00    +0.000 C 
ATOM      2  C   UNL     1      -6.775  -4.028 131.155  0.00  0.00    +0.000 C 
ATOM      3  C   UNL     1      -5.583  -4.043 132.109  0.00  0.00    +0.000 C 
ATOM      4  C   UNL     1      -4.433  -3.261 131.434  0.00  0.00    +0.000 C 
ATOM      5  C   UNL     1      -5.143  -2.463 130.303  0.00  0.00    +0.000 C 
ATOM      6  C   UNL     1      -5.727  -1.154 130.887  0.00  0.00    +0.000 C 
ATOM      7  C   UNL     1      -4.300  -2.149 129.055  0.00  0.00    +0.000 C 
ATOM      8  C   UNL     1      -5.173  -1.616 127.896  0.00  0.00    +0.000 C 
ATOM      9  C   UNL     1      -6.412  -2.491 127.562  0.00  0.00    +0.000 C 
ATOM     10  C   UNL     1      -7.185  -2.937 128.835  0.00  0.00    +0.000 C 
ATOM     11  C   UNL     1      -8.244  -3.984 128.469  0.00  0.00    +0.000 C 
ATOM     12  C   UNL     1      -9.198  -3.501 127.386  0.00  0.00    +0.000 C 
ATOM     13  C   UNL     1      -8.493  -2.893 126.197  0.00  0.00    +0.000 C 
ATOM     14  C   UNL     1      -8.872  -3.251 124.958  0.00  0.00    +0.000 C 
ATOM     15  C   UNL     1      -8.371  -2.533 123.763  0.00  0.00    +0.000 C 
ATOM     16  O   UNL     1      -8.746  -2.880 122.648  0.00  0.00    +0.000 OA
ATOM     17  C   UNL     1      -7.516  -1.314 123.990  0.00  0.00    +0.000 C 
ATOM     18  C   UNL     1      -6.607  -1.539 125.193  0.00  0.00    +0.000 C 
ATOM     19  C   UNL     1      -7.391  -1.864 126.495  0.00  0.00    +0.000 C 
ATOM     20  C   UNL     1      -8.049  -0.566 127.016  0.00  0.00    +0.000 C 
ENDROOT
BRANCH   4  21
ATOM     21  C   UNL     1      -3.565  -2.395 132.355  0.00  0.00    +0.000 C 
ATOM     22  C   UNL     1      -4.004  -2.058 133.760  0.00  0.00    +0.000 C 
ATOM     23  O   UNL     1      -2.500  -1.930 131.935  0.00  0.00    +0.000 OA
ENDBRANCH   4  21
TORSDOF 1
ENDMDL
MODEL 4
REMARK VINA RESULT:      -7.5      1.375      7.105
REMARK  Name = Progesterone
REMARK  4 active torsions:
REMARK  status: ('A' for Active; 'I' for Inactive)
REMARK    1  A    between atoms: C_5  and  C_6
REMARK    2  A    between atoms: C_6  and  C_7
REMARK    3  A    between atoms: C_9  and  C_10
REMARK    4  A    between atoms: C_25  and  C_26
REMARK                            x       y       z     vdW  Elec       q    Type
REMARK                         _______ _______ _______ _____ _____    ______ ____
ROOT
ATOM      1  C   UNL     1      -7.815  -0.674 130.231  0.00  0.00    +0.000 C 
ATOM      2  C   UNL     1      -7.404   0.575 130.984  0.00  0.00    +0.000 C 
ATOM      3  C   UNL     1      -7.421   0.144 132.449  0.00  0.00    +0.000 C 
ATOM      4  C   UNL     1      -7.558  -1.395 132.483  0.00  0.00    +0.000 C 
ATOM      5  C   UNL     1      -7.188  -1.830 131.036  0.00  0.00    +0.000 C 
ATOM      6  C   UNL     1      -5.649  -1.943 130.912  0.00  0.00    +0.000 C 
ATOM      7  C   UNL     1      -7.851  -3.119 130.519  0.00  0.00    +0.000 C 
ATOM      8  C   UNL     1      -7.642  -3.299 128.999  0.00  0.00    +0.000 C 
ATOM      9  C   UNL     1      -8.021  -2.060 128.142  0.00  0.00    +0.000 C 
ATOM     10  C   UNL     1      -7.478  -0.733 128.743  0.00  0.00    +0.000 C 
ATOM     11  C   UNL     1      -8.077   0.467 127.999  0.00  0.00    +0.000 C 
ATOM     12  C   UNL     1      -7.841   0.404 126.498  0.00  0.00    +0.000 C 
ATOM     13  C   UNL     1      -8.190  -0.934 125.893  0.00  0.00    +0.000 C 
ATOM     14  C   UNL     1      -8.914  -0.973 124.761  0.00  0.00    +0.000 C 
ATOM     15  C   UNL     1      -9.101  -2.236 124.010  0.00  0.00    +0.000 C 
ATOM     16  O   UNL     1      -9.760  -2.233 122.975  0.00  0.00    +0.000 OA
ATOM     17  C   UNL     1      -8.352  -3.451 124.493  0.00  0.00    +0.000 C 
ATOM     18  C   UNL     1      -8.309  -3.459 126.016  0.00  0.00    +0.000 C 
ATOM     19  C   UNL     1      -7.653  -2.182 126.612  0.00  0.00    +0.000 C 
ATOM     20  C   UNL     1      -6.124  -2.262 126.396  0.00  0.00    +0.000 C 
ENDROOT
BRANCH   4  21
ATOM     21  C   UNL     1      -6.767  -2.125 133.574  0.00  0.00    +0.000 C 
ATOM     22  C   UNL     1      -7.060  -3.564 133.929  0.00  0.00    +0.000 C 
ATOM     23  O   UNL     1      -5.894  -1.521 134.207  0.00  0.00    +0.000 OA
ENDBRANCH   4  21
TORSDOF 1
ENDMDL
MODEL 5
REMARK VINA RESULT:      -7.4      1.801      2.838
REMARK  Name = Progesterone
REMARK  4 active torsions:
REMARK  status: ('A' for Active; 'I' for Inactive)
REMARK    1  A    between atoms: C_5  and  C_6
REMARK    2  A    between atoms: C_6  and  C_7
REMARK    3  A    between atoms: C_9  and  C_10
REMARK    4  A    between atoms: C_25  and  C_26
REMARK                            x       y       z     vdW  Elec       q    Type
REMARK                         _______ _______ _______ _____ _____    ______ ____
ROOT
ATOM      1  C   UNL     1      -7.769  -0.093 126.615  0.00  0.00    +0.000 C 
ATOM      2  C   UNL     1      -9.030   0.746 126.567  0.00  0.00    +0.000 C 
ATOM      3  C   UNL     1      -9.357   0.834 125.078  0.00  0.00    +0.000 C 
ATOM      4  C   UNL     1      -8.456  -0.181 124.339  0.00  0.00    +0.000 C 
ATOM      5  C   UNL     1      -7.946  -1.115 125.473  0.00  0.00    +0.000 C 
ATOM      6  C   UNL     1      -9.003  -2.213 125.748  0.00  0.00    +0.000 C 
ATOM      7  C   UNL     1      -6.566  -1.760 125.260  0.00  0.00    +0.000 C 
ATOM      8  C   UNL     1      -6.040  -2.427 126.551  0.00  0.00    +0.000 C 
ATOM      9  C   UNL     1      -6.075  -1.517 127.810  0.00  0.00    +0.000 C 
ATOM     10  C   UNL     1      -7.417  -0.746 127.950  0.00  0.00    +0.000 C 
ATOM     11  C   UNL     1      -7.308   0.306 129.060  0.00  0.00    +0.000 C 
ATOM     12  C   UNL     1      -6.872  -0.287 130.391  0.00  0.00    +0.000 C 
ATOM     13  C   UNL     1      -5.669  -1.192 130.276  0.00  0.00    +0.000 C 
ATOM     14  C   UNL     1      -4.662  -1.057 131.157  0.00  0.00    +0.000 C 
ATOM     15  C   UNL     1      -3.565  -2.050 131.229  0.00  0.00    +0.000 C 
ATOM     16  O   UNL     1      -2.668  -1.900 132.052  0.00  0.00    +0.000 OA
ATOM     17  C   UNL     1      -3.678  -3.277 130.363  0.00  0.00    +0.000 C 
ATOM     18  C   UNL     1      -4.296  -2.906 129.020  0.00  0.00    +0.000 C 
ATOM     19  C   UNL     1      -5.697  -2.245 129.158  0.00  0.00    +0.000 C 
ATOM     20  C   UNL     1      -6.727  -3.337 129.526  0.00  0.00    +0.000 C 
ENDROOT
BRANCH   4  21
ATOM     21  C   UNL     1      -9.092  -0.925 123.159  0.00  0.00    +0.000 C 
ATOM     22  C   UNL     1      -8.329  -1.975 122.388  0.00  0.00    +0.000 C 
ATOM     23  O   UNL     1     -10.241  -0.640 122.802  0.00  0.00    +0.000 OA
ENDBRANCH   4  21
TORSDOF 1
ENDMDL
MODEL 6
REMARK VINA RESULT:      -7.4      4.492      5.926
REMARK  Name = Progesterone
REMARK  4 active torsions:
REMARK  status: ('A' for Active; 'I' for Inactive)
REMARK    1  A    between atoms: C_5  and  C_6
REMARK    2  A    between atoms: C_6  and  C_7
REMARK    3  A    between atoms: C_9  and  C_10
REMARK    4  A    between atoms: C_25  and  C_26
REMARK                            x       y       z     vdW  Elec       q    Type
REMARK                         _______ _______ _______ _____ _____    ______ ____
ROOT
ATOM      1  C   UNL     1      -7.180   0.707 124.294  0.00  0.00    +0.000 C 
ATOM      2  C   UNL     1      -8.479   0.780 123.517  0.00  0.00    +0.000 C 
ATOM      3  C   UNL     1      -8.627  -0.616 122.915  0.00  0.00    +0.000 C 
ATOM      4  C   UNL     1      -7.575  -1.529 123.585  0.00  0.00    +0.000 C 
ATOM      5  C   UNL     1      -7.146  -0.732 124.850  0.00  0.00    +0.000 C 
ATOM      6  C   UNL     1      -8.152  -1.005 125.994  0.00  0.00    +0.000 C 
ATOM      7  C   UNL     1      -5.709  -0.963 125.350  0.00  0.00    +0.000 C 
ATOM      8  C   UNL     1      -5.302   0.075 126.419  0.00  0.00    +0.000 C 
ATOM      9  C   UNL     1      -5.552   1.554 126.014  0.00  0.00    +0.000 C 
ATOM     10  C   UNL     1      -6.950   1.767 125.369  0.00  0.00    +0.000 C 
ATOM     11  C   UNL     1      -7.049   3.177 124.776  0.00  0.00    +0.000 C 
ATOM     12  C   UNL     1      -6.741   4.265 125.793  0.00  0.00    +0.000 C 
ATOM     13  C   UNL     1      -5.474   4.011 126.574  0.00  0.00    +0.000 C 
ATOM     14  C   UNL     1      -4.594   5.014 126.739  0.00  0.00    +0.000 C 
ATOM     15  C   UNL     1      -3.449   4.887 127.671  0.00  0.00    +0.000 C 
ATOM     16  O   UNL     1      -2.672   5.826 127.804  0.00  0.00    +0.000 OA
ATOM     17  C   UNL     1      -3.373   3.642 128.515  0.00  0.00    +0.000 C 
ATOM     18  C   UNL     1      -3.845   2.440 127.706  0.00  0.00    +0.000 C 
ATOM     19  C   UNL     1      -5.293   2.603 127.164  0.00  0.00    +0.000 C 
ATOM     20  C   UNL     1      -6.285   2.423 128.336  0.00  0.00    +0.000 C 
ENDROOT
BRANCH   4  21
ATOM     21  C   UNL     1      -8.010  -2.970 123.876  0.00  0.00    +0.000 C 
ATOM     22  C   UNL     1      -9.453  -3.396 123.751  0.00  0.00    +0.000 C 
ATOM     23  O   UNL     1      -7.175  -3.798 124.255  0.00  0.00    +0.000 OA
ENDBRANCH   4  21
TORSDOF 1
ENDMDL
MODEL 7
REMARK VINA RESULT:      -7.4      8.619     10.504
REMARK  Name = Progesterone
REMARK  4 active torsions:
REMARK  status: ('A' for Active; 'I' for Inactive)
REMARK    1  A    between atoms: C_5  and  C_6
REMARK    2  A    between atoms: C_6  and  C_7
REMARK    3  A    between atoms: C_9  and  C_10
REMARK    4  A    between atoms: C_25  and  C_26
REMARK                            x       y       z     vdW  Elec       q    Type
REMARK                         _______ _______ _______ _____ _____    ______ ____
ROOT
ATOM      1  C   UNL     1      -7.056   6.005 132.863  0.00  0.00    +0.000 C 
ATOM      2  C   UNL     1      -8.119   5.179 133.559  0.00  0.00    +0.000 C 
ATOM      3  C   UNL     1      -9.424   5.641 132.915  0.00  0.00    +0.000 C 
ATOM      4  C   UNL     1      -9.060   6.498 131.681  0.00  0.00    +0.000 C 
ATOM      5  C   UNL     1      -7.569   6.147 131.415  0.00  0.00    +0.000 C 
ATOM      6  C   UNL     1      -7.489   4.851 130.572  0.00  0.00    +0.000 C 
ATOM      7  C   UNL     1      -6.713   7.248 130.764  0.00  0.00    +0.000 C 
ATOM      8  C   UNL     1      -5.207   6.902 130.809  0.00  0.00    +0.000 C 
ATOM      9  C   UNL     1      -4.677   6.498 132.212  0.00  0.00    +0.000 C 
ATOM     10  C   UNL     1      -5.618   5.496 132.938  0.00  0.00    +0.000 C 
ATOM     11  C   UNL     1      -5.177   5.320 134.396  0.00  0.00    +0.000 C 
ATOM     12  C   UNL     1      -3.721   4.898 134.522  0.00  0.00    +0.000 C 
ATOM     13  C   UNL     1      -2.782   5.737 133.690  0.00  0.00    +0.000 C 
ATOM     14  C   UNL     1      -1.646   6.194 134.245  0.00  0.00    +0.000 C 
ATOM     15  C   UNL     1      -0.591   6.833 133.424  0.00  0.00    +0.000 C 
ATOM     16  O   UNL     1       0.437   7.229 133.962  0.00  0.00    +0.000 OA
ATOM     17  C   UNL     1      -0.783   6.844 131.930  0.00  0.00    +0.000 C 
ATOM     18  C   UNL     1      -2.255   7.062 131.600  0.00  0.00    +0.000 C 
ATOM     19  C   UNL     1      -3.184   5.985 132.228  0.00  0.00    +0.000 C 
ATOM     20  C   UNL     1      -3.024   4.668 131.435  0.00  0.00    +0.000 C 
ENDROOT
BRANCH   4  21
ATOM     21  C   UNL     1      -9.965   6.343 130.453  0.00  0.00    +0.000 C 
ATOM     22  C   UNL     1     -10.040   7.413 129.391  0.00  0.00    +0.000 C 
ATOM     23  O   UNL     1     -10.678   5.339 130.339  0.00  0.00    +0.000 OA
ENDBRANCH   4  21
TORSDOF 1
ENDMDL
MODEL 8
REMARK VINA RESULT:      -7.3      1.483      1.945
REMARK  Name = Progesterone
REMARK  4 active torsions:
REMARK  status: ('A' for Active; 'I' for Inactive)
REMARK    1  A    between atoms: C_5  and  C_6
REMARK    2  A    between atoms: C_6  and  C_7
REMARK    3  A    between atoms: C_9  and  C_10
REMARK    4  A    between atoms: C_25  and  C_26
REMARK                            x       y       z     vdW  Elec       q    Type
REMARK                         _______ _______ _______ _____ _____    ______ ____
ROOT
ATOM      1  C   UNL     1      -5.993  -2.513 127.799  0.00  0.00    +0.000 C 
ATOM      2  C   UNL     1      -5.324  -1.737 126.683  0.00  0.00    +0.000 C 
ATOM      3  C   UNL     1      -6.325  -1.811 125.532  0.00  0.00    +0.000 C 
ATOM      4  C   UNL     1      -7.650  -2.371 126.099  0.00  0.00    +0.000 C 
ATOM      5  C   UNL     1      -7.495  -2.201 127.636  0.00  0.00    +0.000 C 
ATOM      6  C   UNL     1      -7.901  -0.761 128.037  0.00  0.00    +0.000 C 
ATOM      7  C   UNL     1      -8.241  -3.219 128.516  0.00  0.00    +0.000 C 
ATOM      8  C   UNL     1      -7.794  -3.135 129.993  0.00  0.00    +0.000 C 
ATOM      9  C   UNL     1      -6.256  -3.189 130.208  0.00  0.00    +0.000 C 
ATOM     10  C   UNL     1      -5.484  -2.271 129.218  0.00  0.00    +0.000 C 
ATOM     11  C   UNL     1      -3.978  -2.543 129.312  0.00  0.00    +0.000 C 
ATOM     12  C   UNL     1      -3.443  -2.399 130.729  0.00  0.00    +0.000 C 
ATOM     13  C   UNL     1      -4.268  -3.134 131.757  0.00  0.00    +0.000 C 
ATOM     14  C   UNL     1      -3.646  -3.889 132.679  0.00  0.00    +0.000 C 
ATOM     15  C   UNL     1      -4.380  -4.453 133.835  0.00  0.00    +0.000 C 
ATOM     16  O   UNL     1      -3.778  -5.129 134.662  0.00  0.00    +0.000 OA
ATOM     17  C   UNL     1      -5.822  -4.054 134.006  0.00  0.00    +0.000 C 
ATOM     18  C   UNL     1      -6.494  -3.949 132.642  0.00  0.00    +0.000 C 
ATOM     19  C   UNL     1      -5.791  -2.936 131.695  0.00  0.00    +0.000 C 
ATOM     20  C   UNL     1      -6.127  -1.502 132.163  0.00  0.00    +0.000 C 
ENDROOT
BRANCH   4  21
ATOM     21  C   UNL     1      -8.941  -1.769 125.533  0.00  0.00    +0.000 C 
ATOM     22  C   UNL     1      -8.948  -0.423 124.849  0.00  0.00    +0.000 C 
ATOM     23  O   UNL     1     -10.010  -2.375 125.666  0.00  0.00    +0.000 OA
ENDBRANCH   4  21
TORSDOF 1
ENDMDL
MODEL 9
REMARK VINA RESULT:      -7.3      3.973      7.486
REMARK  Name = Progesterone
REMARK  4 active torsions:
REMARK  status: ('A' for Active; 'I' for Inactive)
REMARK    1  A    between atoms: C_5  and  C_6
REMARK    2  A    between atoms: C_6  and  C_7
REMARK    3  A    between atoms: C_9  and  C_10
REMARK    4  A    between atoms: C_25  and  C_26
REMARK                            x       y       z     vdW  Elec       q    Type
REMARK                         _______ _______ _______ _____ _____    ______ ____
ROOT
ATOM      1  C   UNL     1      -7.763  -1.140 125.831  0.00  0.00    +0.000 C 
ATOM      2  C   UNL     1      -8.996  -2.019 125.891  0.00  0.00    +0.000 C 
ATOM      3  C   UNL     1      -8.615  -3.121 126.877  0.00  0.00    +0.000 C 
ATOM      4  C   UNL     1      -7.300  -2.697 127.569  0.00  0.00    +0.000 C 
ATOM      5  C   UNL     1      -7.198  -1.175 127.267  0.00  0.00    +0.000 C 
ATOM      6  C   UNL     1      -8.031  -0.387 128.307  0.00  0.00    +0.000 C 
ATOM      7  C   UNL     1      -5.778  -0.588 127.181  0.00  0.00    +0.000 C 
ATOM      8  C   UNL     1      -5.786   0.845 126.601  0.00  0.00    +0.000 C 
ATOM      9  C   UNL     1      -6.566   0.999 125.267  0.00  0.00    +0.000 C 
ATOM     10  C   UNL     1      -7.944   0.278 125.296  0.00  0.00    +0.000 C 
ATOM     11  C   UNL     1      -8.559   0.258 123.892  0.00  0.00    +0.000 C 
ATOM     12  C   UNL     1      -8.676   1.646 123.282  0.00  0.00    +0.000 C 
ATOM     13  C   UNL     1      -7.406   2.456 123.389  0.00  0.00    +0.000 C 
ATOM     14  C   UNL     1      -6.961   3.122 122.309  0.00  0.00    +0.000 C 
ATOM     15  C   UNL     1      -5.851   4.098 122.410  0.00  0.00    +0.000 C 
ATOM     16  O   UNL     1      -5.478   4.694 121.406  0.00  0.00    +0.000 OA
ATOM     17  C   UNL     1      -5.318   4.406 123.784  0.00  0.00    +0.000 C 
ATOM     18  C   UNL     1      -5.311   3.139 124.632  0.00  0.00    +0.000 C 
ATOM     19  C   UNL     1      -6.716   2.487 124.761  0.00  0.00    +0.000 C 
ATOM     20  C   UNL     1      -7.571   3.336 125.730  0.00  0.00    +0.000 C 
ENDROOT
BRANCH   4  21
ATOM     21  C   UNL     1      -7.170  -3.045 129.056  0.00  0.00    +0.000 C 
ATOM     22  C   UNL     1      -5.823  -3.097 129.737  0.00  0.00    +0.000 C 
ATOM     23  O   UNL     1      -8.180  -3.327 129.711  0.00  0.00    +0.000 OA
ENDBRANCH   4  21
TORSDOF 1
ENDMDL
