MODEL 1
REMARK VINA RESULT:      -6.6      0.000      0.000
REMARK  Name = Promazine
REMARK  6 active torsions:
REMARK  status: ('A' for Active; 'I' for Inactive)
REMARK    1  A    between atoms: C_1  and  N_2
REMARK    2  A    between atoms: N_2  and  C_3
REMARK    3  A    between atoms: N_2  and  C_4
REMARK    4  A    between atoms: C_4  and  C_5
REMARK    5  A    between atoms: C_5  and  C_6
REMARK    6  A    between atoms: C_6  and  N_7
REMARK                            x       y       z     vdW  Elec       q    Type
REMARK                         _______ _______ _______ _____ _____    ______ ____
ROOT
ATOM      1  N   UNL     1      -8.455   3.051 122.640  0.00  0.00    +0.000 N 
ATOM      2  C   UNL     1      -8.172   3.487 121.321  0.00  0.00    +0.000 A 
ATOM      3  C   UNL     1      -9.222   3.770 120.426  0.00  0.00    +0.000 A 
ATOM      4  C   UNL     1      -8.998   4.234 119.131  0.00  0.00    +0.000 A 
ATOM      5  C   UNL     1      -7.712   4.540 118.735  0.00  0.00    +0.000 A 
ATOM      6  C   UNL     1      -6.651   4.354 119.621  0.00  0.00    +0.000 A 
ATOM      7  C   UNL     1      -6.874   3.822 120.904  0.00  0.00    +0.000 A 
ATOM      8  S   UNL     1      -5.476   3.644 122.002  0.00  0.00    +0.000 S 
ATOM      9  C   UNL     1      -6.319   3.888 123.559  0.00  0.00    +0.000 A 
ATOM     10  C   UNL     1      -5.615   4.500 124.604  0.00  0.00    +0.000 A 
ATOM     11  C   UNL     1      -6.244   4.740 125.825  0.00  0.00    +0.000 A 
ATOM     12  C   UNL     1      -7.568   4.360 126.011  0.00  0.00    +0.000 A 
ATOM     13  C   UNL     1      -8.272   3.739 124.977  0.00  0.00    +0.000 A 
ATOM     14  C   UNL     1      -7.663   3.502 123.733  0.00  0.00    +0.000 A 
ENDROOT
BRANCH   1  15
ATOM     15  C   UNL     1      -9.119   1.728 122.879  0.00  0.00    +0.000 C 
BRANCH  15  16
ATOM     16  C   UNL     1      -8.145   0.634 123.285  0.00  0.00    +0.000 C 
BRANCH  16  17
ATOM     17  C   UNL     1      -8.665  -0.487 124.161  0.00  0.00    +0.000 C 
BRANCH  17  19
ATOM     18  C   UNL     1      -8.887  -2.759 123.422  0.00  0.00    +0.000 C 
ATOM     19  N   UNL     1      -7.936  -1.739 123.852  0.00  0.00    +0.000 NA
ATOM     20  C   UNL     1      -6.900  -1.574 122.821  0.00  0.00    +0.000 C 
ENDBRANCH  17  19
ENDBRANCH  16  17
ENDBRANCH  15  16
ENDBRANCH   1  15
TORSDOF 4
ENDMDL
MODEL 2
REMARK VINA RESULT:      -6.3      4.028      6.338
REMARK  Name = Promazine
REMARK  6 active torsions:
REMARK  status: ('A' for Active; 'I' for Inactive)
REMARK    1  A    between atoms: C_1  and  N_2
REMARK    2  A    between atoms: N_2  and  C_3
REMARK    3  A    between atoms: N_2  and  C_4
REMARK    4  A    between atoms: C_4  and  C_5
REMARK    5  A    between atoms: C_5  and  C_6
REMARK    6  A    between atoms: C_6  and  N_7
REMARK                            x       y       z     vdW  Elec       q    Type
REMARK                         _______ _______ _______ _____ _____    ______ ____
ROOT
ATOM      1  N   UNL     1      -8.499  -1.873 126.756  0.00  0.00    +0.000 N 
ATOM      2  C   UNL     1      -8.251  -0.597 126.191  0.00  0.00    +0.000 A 
ATOM      3  C   UNL     1      -9.310   0.311 125.998  0.00  0.00    +0.000 A 
ATOM      4  C   UNL     1      -9.115   1.590 125.478  0.00  0.00    +0.000 A 
ATOM      5  C   UNL     1      -7.831   2.037 125.245  0.00  0.00    +0.000 A 
ATOM      6  C   UNL     1      -6.746   1.197 125.504  0.00  0.00    +0.000 A 
ATOM      7  C   UNL     1      -6.952  -0.116 125.965  0.00  0.00    +0.000 A 
ATOM      8  S   UNL     1      -5.519  -1.125 126.310  0.00  0.00    +0.000 S 
ATOM      9  C   UNL     1      -6.200  -2.122 127.629  0.00  0.00    +0.000 A 
ATOM     10  C   UNL     1      -5.337  -2.554 128.645  0.00  0.00    +0.000 A 
ATOM     11  C   UNL     1      -5.832  -3.305 129.710  0.00  0.00    +0.000 A 
ATOM     12  C   UNL     1      -7.181  -3.638 129.758  0.00  0.00    +0.000 A 
ATOM     13  C   UNL     1      -8.043  -3.220 128.742  0.00  0.00    +0.000 A 
ATOM     14  C   UNL     1      -7.570  -2.449 127.668  0.00  0.00    +0.000 A 
ENDROOT
BRANCH   1  15
ATOM     15  C   UNL     1      -9.333  -2.882 126.025  0.00  0.00    +0.000 C 
BRANCH  15  16
ATOM     16  C   UNL     1      -8.667  -3.409 124.765  0.00  0.00    +0.000 C 
BRANCH  16  17
ATOM     17  C   UNL     1      -9.393  -3.222 123.449  0.00  0.00    +0.000 C 
BRANCH  17  19
ATOM     18  C   UNL     1      -9.306  -0.950 122.680  0.00  0.00    +0.000 C 
ATOM     19  N   UNL     1      -8.653  -2.254 122.606  0.00  0.00    +0.000 NA
ATOM     20  C   UNL     1      -7.238  -2.112 122.981  0.00  0.00    +0.000 C 
ENDBRANCH  17  19
ENDBRANCH  16  17
ENDBRANCH  15  16
ENDBRANCH   1  15
TORSDOF 4
ENDMDL
MODEL 3
REMARK VINA RESULT:      -6.2      3.756      6.728
REMARK  Name = Promazine
REMARK  6 active torsions:
REMARK  status: ('A' for Active; 'I' for Inactive)
REMARK    1  A    between atoms: C_1  and  N_2
REMARK    2  A    between atoms: N_2  and  C_3
REMARK    3  A    between atoms: N_2  and  C_4
REMARK    4  A    between atoms: C_4  and  C_5
REMARK    5  A    between atoms: C_5  and  C_6
REMARK    6  A    between atoms: C_6  and  N_7
REMARK                            x       y       z     vdW  Elec       q    Type
REMARK                         _______ _______ _______ _____ _____    ______ ____
ROOT
ATOM      1  N   UNL     1      -7.202  -0.754 126.456  0.00  0.00    +0.000 N 
ATOM      2  C   UNL     1      -7.436  -1.196 125.129  0.00  0.00    +0.000 A 
ATOM      3  C   UNL     1      -6.599  -0.767 124.080  0.00  0.00    +0.000 A 
ATOM      4  C   UNL     1      -6.765  -1.199 122.766  0.00  0.00    +0.000 A 
ATOM      5  C   UNL     1      -7.707  -2.168 122.485  0.00  0.00    +0.000 A 
ATOM      6  C   UNL     1      -8.500  -2.682 123.512  0.00  0.00    +0.000 A 
ATOM      7  C   UNL     1      -8.375  -2.194 124.826  0.00  0.00    +0.000 A 
ATOM      8  S   UNL     1      -9.395  -2.922 126.099  0.00  0.00    +0.000 S 
ATOM      9  C   UNL     1      -8.284  -2.724 127.485  0.00  0.00    +0.000 A 
ATOM     10  C   UNL     1      -8.313  -3.689 128.499  0.00  0.00    +0.000 A 
ATOM     11  C   UNL     1      -7.440  -3.592 129.582  0.00  0.00    +0.000 A 
ATOM     12  C   UNL     1      -6.550  -2.528 129.663  0.00  0.00    +0.000 A 
ATOM     13  C   UNL     1      -6.524  -1.556 128.661  0.00  0.00    +0.000 A 
ATOM     14  C   UNL     1      -7.383  -1.642 127.553  0.00  0.00    +0.000 A 
ENDROOT
BRANCH   1  15
ATOM     15  C   UNL     1      -7.362   0.692 126.816  0.00  0.00    +0.000 C 
BRANCH  15  16
ATOM     16  C   UNL     1      -8.587   1.335 126.187  0.00  0.00    +0.000 C 
BRANCH  16  17
ATOM     17  C   UNL     1      -8.371   2.516 125.263  0.00  0.00    +0.000 C 
BRANCH  17  19
ATOM     18  C   UNL     1      -8.638   2.607 122.880  0.00  0.00    +0.000 C 
ATOM     19  N   UNL     1      -9.345   2.460 124.148  0.00  0.00    +0.000 NA
ATOM     20  C   UNL     1     -10.137   1.221 124.123  0.00  0.00    +0.000 C 
ENDBRANCH  17  19
ENDBRANCH  16  17
ENDBRANCH  15  16
ENDBRANCH   1  15
TORSDOF 4
ENDMDL
MODEL 4
REMARK VINA RESULT:      -6.0      5.008      7.949
REMARK  Name = Promazine
REMARK  6 active torsions:
REMARK  status: ('A' for Active; 'I' for Inactive)
REMARK    1  A    between atoms: C_1  and  N_2
REMARK    2  A    between atoms: N_2  and  C_3
REMARK    3  A    between atoms: N_2  and  C_4
REMARK    4  A    between atoms: C_4  and  C_5
REMARK    5  A    between atoms: C_5  and  C_6
REMARK    6  A    between atoms: C_6  and  N_7
REMARK                            x       y       z     vdW  Elec       q    Type
REMARK                         _______ _______ _______ _____ _____    ______ ____
ROOT
ATOM      1  N   UNL     1      -5.880  -1.963 127.064  0.00  0.00    +0.000 N 
ATOM      2  C   UNL     1      -6.965  -2.369 126.248  0.00  0.00    +0.000 A 
ATOM      3  C   UNL     1      -6.821  -2.418 124.847  0.00  0.00    +0.000 A 
ATOM      4  C   UNL     1      -7.846  -2.842 124.003  0.00  0.00    +0.000 A 
ATOM      5  C   UNL     1      -9.009  -3.343 124.550  0.00  0.00    +0.000 A 
ATOM      6  C   UNL     1      -9.160  -3.391 125.936  0.00  0.00    +0.000 A 
ATOM      7  C   UNL     1      -8.150  -2.899 126.783  0.00  0.00    +0.000 A 
ATOM      8  S   UNL     1      -8.390  -3.025 128.549  0.00  0.00    +0.000 S 
ATOM      9  C   UNL     1      -6.682  -3.205 129.045  0.00  0.00    +0.000 A 
ATOM     10  C   UNL     1      -6.399  -3.984 130.173  0.00  0.00    +0.000 A 
ATOM     11  C   UNL     1      -5.079  -4.179 130.576  0.00  0.00    +0.000 A 
ATOM     12  C   UNL     1      -4.042  -3.587 129.865  0.00  0.00    +0.000 A 
ATOM     13  C   UNL     1      -4.318  -2.799 128.746  0.00  0.00    +0.000 A 
ATOM     14  C   UNL     1      -5.640  -2.603 128.312  0.00  0.00    +0.000 A 
ENDROOT
BRANCH   1  15
ATOM     15  C   UNL     1      -5.355  -0.561 126.992  0.00  0.00    +0.000 C 
BRANCH  15  16
ATOM     16  C   UNL     1      -6.430   0.493 127.199  0.00  0.00    +0.000 C 
BRANCH  16  17
ATOM     17  C   UNL     1      -6.564   1.583 126.157  0.00  0.00    +0.000 C 
BRANCH  17  19
ATOM     18  C   UNL     1      -7.896   1.043 124.235  0.00  0.00    +0.000 C 
ATOM     19  N   UNL     1      -7.934   1.571 125.595  0.00  0.00    +0.000 NA
ATOM     20  C   UNL     1      -8.888   0.786 126.394  0.00  0.00    +0.000 C 
ENDBRANCH  17  19
ENDBRANCH  16  17
ENDBRANCH  15  16
ENDBRANCH   1  15
TORSDOF 4
ENDMDL
MODEL 5
REMARK VINA RESULT:      -6.0      3.703      5.873
REMARK  Name = Promazine
REMARK  6 active torsions:
REMARK  status: ('A' for Active; 'I' for Inactive)
REMARK    1  A    between atoms: C_1  and  N_2
REMARK    2  A    between atoms: N_2  and  C_3
REMARK    3  A    between atoms: N_2  and  C_4
REMARK    4  A    between atoms: C_4  and  C_5
REMARK    5  A    between atoms: C_5  and  C_6
REMARK    6  A    between atoms: C_6  and  N_7
REMARK                            x       y       z     vdW  Elec       q    Type
REMARK                         _______ _______ _______ _____ _____    ______ ____
ROOT
ATOM      1  N   UNL     1      -5.476   0.042 126.102  0.00  0.00    +0.000 N 
ATOM      2  C   UNL     1      -5.384   1.446 125.931  0.00  0.00    +0.000 A 
ATOM      3  C   UNL     1      -4.346   2.170 126.549  0.00  0.00    +0.000 A 
ATOM      4  C   UNL     1      -4.191   3.545 126.384  0.00  0.00    +0.000 A 
ATOM      5  C   UNL     1      -5.008   4.217 125.499  0.00  0.00    +0.000 A 
ATOM      6  C   UNL     1      -5.996   3.521 124.801  0.00  0.00    +0.000 A 
ATOM      7  C   UNL     1      -6.192   2.145 125.021  0.00  0.00    +0.000 A 
ATOM      8  S   UNL     1      -7.450   1.308 124.068  0.00  0.00    +0.000 S 
ATOM      9  C   UNL     1      -6.693  -0.310 123.980  0.00  0.00    +0.000 A 
ATOM     10  C   UNL     1      -6.918  -1.084 122.835  0.00  0.00    +0.000 A 
ATOM     11  C   UNL     1      -6.321  -2.337 122.709  0.00  0.00    +0.000 A 
ATOM     12  C   UNL     1      -5.511  -2.826 123.728  0.00  0.00    +0.000 A 
ATOM     13  C   UNL     1      -5.292  -2.063 124.877  0.00  0.00    +0.000 A 
ATOM     14  C   UNL     1      -5.871  -0.791 125.018  0.00  0.00    +0.000 A 
ENDROOT
BRANCH   1  15
ATOM     15  C   UNL     1      -5.766  -0.544 127.451  0.00  0.00    +0.000 C 
BRANCH  15  16
ATOM     16  C   UNL     1      -7.251  -0.729 127.718  0.00  0.00    +0.000 C 
BRANCH  16  17
ATOM     17  C   UNL     1      -7.702  -2.037 128.334  0.00  0.00    +0.000 C 
BRANCH  17  19
ATOM     18  C   UNL     1      -8.963  -4.023 127.864  0.00  0.00    +0.000 C 
ATOM     19  N   UNL     1      -8.168  -2.955 127.269  0.00  0.00    +0.000 NA
ATOM     20  C   UNL     1      -8.956  -2.286 126.222  0.00  0.00    +0.000 C 
ENDBRANCH  17  19
ENDBRANCH  16  17
ENDBRANCH  15  16
ENDBRANCH   1  15
TORSDOF 4
ENDMDL
MODEL 6
REMARK VINA RESULT:      -5.9      8.014     10.285
REMARK  Name = Promazine
REMARK  6 active torsions:
REMARK  status: ('A' for Active; 'I' for Inactive)
REMARK    1  A    between atoms: C_1  and  N_2
REMARK    2  A    between atoms: N_2  and  C_3
REMARK    3  A    between atoms: N_2  and  C_4
REMARK    4  A    between atoms: C_4  and  C_5
REMARK    5  A    between atoms: C_5  and  C_6
REMARK    6  A    between atoms: C_6  and  N_7
REMARK                            x       y       z     vdW  Elec       q    Type
REMARK                         _______ _______ _______ _____ _____    ______ ____
ROOT
ATOM      1  N   UNL     1      -8.403   5.782 131.272  0.00  0.00    +0.000 N 
ATOM      2  C   UNL     1      -8.915   4.518 131.658  0.00  0.00    +0.000 A 
ATOM      3  C   UNL     1      -9.697   3.765 130.760  0.00  0.00    +0.000 A 
ATOM      4  C   UNL     1     -10.195   2.503 131.078  0.00  0.00    +0.000 A 
ATOM      5  C   UNL     1      -9.825   1.908 132.267  0.00  0.00    +0.000 A 
ATOM      6  C   UNL     1      -8.982   2.587 133.148  0.00  0.00    +0.000 A 
ATOM      7  C   UNL     1      -8.536   3.888 132.853  0.00  0.00    +0.000 A 
ATOM      8  S   UNL     1      -7.429   4.684 134.007  0.00  0.00    +0.000 S 
ATOM      9  C   UNL     1      -6.504   5.685 132.851  0.00  0.00    +0.000 A 
ATOM     10  C   UNL     1      -5.157   5.946 133.132  0.00  0.00    +0.000 A 
ATOM     11  C   UNL     1      -4.388   6.694 132.241  0.00  0.00    +0.000 A 
ATOM     12  C   UNL     1      -4.963   7.194 131.078  0.00  0.00    +0.000 A 
ATOM     13  C   UNL     1      -6.309   6.948 130.798  0.00  0.00    +0.000 A 
ATOM     14  C   UNL     1      -7.097   6.183 131.673  0.00  0.00    +0.000 A 
ENDROOT
BRANCH   1  15
ATOM     15  C   UNL     1      -9.329   6.928 130.996  0.00  0.00    +0.000 C 
BRANCH  15  16
ATOM     16  C   UNL     1      -9.798   6.985 129.552  0.00  0.00    +0.000 C 
BRANCH  16  17
ATOM     17  C   UNL     1     -11.265   7.260 129.295  0.00  0.00    +0.000 C 
BRANCH  17  19
ATOM     18  C   UNL     1     -13.048   7.029 127.705  0.00  0.00    +0.000 C 
ATOM     19  N   UNL     1     -11.619   6.827 127.923  0.00  0.00    +0.000 NA
ATOM     20  C   UNL     1     -10.863   7.527 126.874  0.00  0.00    +0.000 C 
ENDBRANCH  17  19
ENDBRANCH  16  17
ENDBRANCH  15  16
ENDBRANCH   1  15
TORSDOF 4
ENDMDL
MODEL 7
REMARK VINA RESULT:      -5.8      4.828      7.337
REMARK  Name = Promazine
REMARK  6 active torsions:
REMARK  status: ('A' for Active; 'I' for Inactive)
REMARK    1  A    between atoms: C_1  and  N_2
REMARK    2  A    between atoms: N_2  and  C_3
REMARK    3  A    between atoms: N_2  and  C_4
REMARK    4  A    between atoms: C_4  and  C_5
REMARK    5  A    between atoms: C_5  and  C_6
REMARK    6  A    between atoms: C_6  and  N_7
REMARK                            x       y       z     vdW  Elec       q    Type
REMARK                         _______ _______ _______ _____ _____    ______ ____
ROOT
ATOM      1  N   UNL     1      -6.735  -1.072 126.234  0.00  0.00    +0.000 N 
ATOM      2  C   UNL     1      -7.119  -1.469 124.928  0.00  0.00    +0.000 A 
ATOM      3  C   UNL     1      -6.245  -1.275 123.841  0.00  0.00    +0.000 A 
ATOM      4  C   UNL     1      -6.560  -1.679 122.545  0.00  0.00    +0.000 A 
ATOM      5  C   UNL     1      -7.717  -2.398 122.323  0.00  0.00    +0.000 A 
ATOM      6  C   UNL     1      -8.571  -2.686 123.388  0.00  0.00    +0.000 A 
ATOM      7  C   UNL     1      -8.281  -2.218 124.683  0.00  0.00    +0.000 A 
ATOM      8  S   UNL     1      -9.396  -2.654 126.009  0.00  0.00    +0.000 S 
ATOM      9  C   UNL     1      -8.218  -2.703 127.352  0.00  0.00    +0.000 A 
ATOM     10  C   UNL     1      -8.438  -3.614 128.393  0.00  0.00    +0.000 A 
ATOM     11  C   UNL     1      -7.527  -3.710 129.443  0.00  0.00    +0.000 A 
ATOM     12  C   UNL     1      -6.404  -2.890 129.465  0.00  0.00    +0.000 A 
ATOM     13  C   UNL     1      -6.185  -1.972 128.437  0.00  0.00    +0.000 A 
ATOM     14  C   UNL     1      -7.081  -1.870 127.360  0.00  0.00    +0.000 A 
ENDROOT
BRANCH   1  15
ATOM     15  C   UNL     1      -6.529   0.377 126.559  0.00  0.00    +0.000 C 
BRANCH  15  16
ATOM     16  C   UNL     1      -5.096   0.839 126.354  0.00  0.00    +0.000 C 
BRANCH  16  17
ATOM     17  C   UNL     1      -4.854   2.318 126.134  0.00  0.00    +0.000 C 
BRANCH  17  19
ATOM     18  C   UNL     1      -2.634   3.060 126.664  0.00  0.00    +0.000 C 
ATOM     19  N   UNL     1      -3.973   2.842 127.203  0.00  0.00    +0.000 NA
ATOM     20  C   UNL     1      -4.463   4.091 127.806  0.00  0.00    +0.000 C 
ENDBRANCH  17  19
ENDBRANCH  16  17
ENDBRANCH  15  16
ENDBRANCH   1  15
TORSDOF 4
ENDMDL
MODEL 8
REMARK VINA RESULT:      -5.7      2.386      5.649
REMARK  Name = Promazine
REMARK  6 active torsions:
REMARK  status: ('A' for Active; 'I' for Inactive)
REMARK    1  A    between atoms: C_1  and  N_2
REMARK    2  A    between atoms: N_2  and  C_3
REMARK    3  A    between atoms: N_2  and  C_4
REMARK    4  A    between atoms: C_4  and  C_5
REMARK    5  A    between atoms: C_5  and  C_6
REMARK    6  A    between atoms: C_6  and  N_7
REMARK                            x       y       z     vdW  Elec       q    Type
REMARK                         _______ _______ _______ _____ _____    ______ ____
ROOT
ATOM      1  N   UNL     1      -6.426   0.616 124.352  0.00  0.00    +0.000 N 
ATOM      2  C   UNL     1      -7.238   1.466 123.559  0.00  0.00    +0.000 A 
ATOM      3  C   UNL     1      -6.652   2.478 122.774  0.00  0.00    +0.000 A 
ATOM      4  C   UNL     1      -7.403   3.317 121.952  0.00  0.00    +0.000 A 
ATOM      5  C   UNL     1      -8.755   3.087 121.805  0.00  0.00    +0.000 A 
ATOM      6  C   UNL     1      -9.361   2.040 122.500  0.00  0.00    +0.000 A 
ATOM      7  C   UNL     1      -8.612   1.238 123.380  0.00  0.00    +0.000 A 
ATOM      8  S   UNL     1      -9.441  -0.109 124.210  0.00  0.00    +0.000 S 
ATOM      9  C   UNL     1      -8.061  -1.237 124.345  0.00  0.00    +0.000 A 
ATOM     10  C   UNL     1      -8.322  -2.612 124.289  0.00  0.00    +0.000 A 
ATOM     11  C   UNL     1      -7.273  -3.527 124.356  0.00  0.00    +0.000 A 
ATOM     12  C   UNL     1      -5.965  -3.075 124.493  0.00  0.00    +0.000 A 
ATOM     13  C   UNL     1      -5.699  -1.706 124.560  0.00  0.00    +0.000 A 
ATOM     14  C   UNL     1      -6.739  -0.766 124.478  0.00  0.00    +0.000 A 
ENDROOT
BRANCH   1  15
ATOM     15  C   UNL     1      -5.647   1.168 125.507  0.00  0.00    +0.000 C 
BRANCH  15  16
ATOM     16  C   UNL     1      -6.424   2.187 126.322  0.00  0.00    +0.000 C 
BRANCH  16  17
ATOM     17  C   UNL     1      -5.945   3.624 126.304  0.00  0.00    +0.000 C 
BRANCH  17  19
ATOM     18  C   UNL     1      -7.989   4.679 125.622  0.00  0.00    +0.000 C 
ATOM     19  N   UNL     1      -7.045   4.522 126.724  0.00  0.00    +0.000 NA
ATOM     20  C   UNL     1      -7.764   4.049 127.916  0.00  0.00    +0.000 C 
ENDBRANCH  17  19
ENDBRANCH  16  17
ENDBRANCH  15  16
ENDBRANCH   1  15
TORSDOF 4
ENDMDL
MODEL 9
REMARK VINA RESULT:      -5.6      7.869     10.175
REMARK  Name = Promazine
REMARK  6 active torsions:
REMARK  status: ('A' for Active; 'I' for Inactive)
REMARK    1  A    between atoms: C_1  and  N_2
REMARK    2  A    between atoms: N_2  and  C_3
REMARK    3  A    between atoms: N_2  and  C_4
REMARK    4  A    between atoms: C_4  and  C_5
REMARK    5  A    between atoms: C_5  and  C_6
REMARK    6  A    between atoms: C_6  and  N_7
REMARK                            x       y       z     vdW  Elec       q    Type
REMARK                         _______ _______ _______ _____ _____    ______ ____
ROOT
ATOM      1  N   UNL     1      -8.923   5.065 133.402  0.00  0.00    +0.000 N 
ATOM      2  C   UNL     1      -9.460   5.735 132.273  0.00  0.00    +0.000 A 
ATOM      3  C   UNL     1     -10.797   6.178 132.282  0.00  0.00    +0.000 A 
ATOM      4  C   UNL     1     -11.363   6.872 131.213  0.00  0.00    +0.000 A 
ATOM      5  C   UNL     1     -10.566   7.243 130.149  0.00  0.00    +0.000 A 
ATOM      6  C   UNL     1      -9.214   6.897 130.141  0.00  0.00    +0.000 A 
ATOM      7  C   UNL     1      -8.663   6.139 131.191  0.00  0.00    +0.000 A 
ATOM      8  S   UNL     1      -6.918   5.762 131.136  0.00  0.00    +0.000 S 
ATOM      9  C   UNL     1      -6.594   5.718 132.894  0.00  0.00    +0.000 A 
ATOM     10  C   UNL     1      -5.332   6.127 133.344  0.00  0.00    +0.000 A 
ATOM     11  C   UNL     1      -5.047   6.140 134.709  0.00  0.00    +0.000 A 
ATOM     12  C   UNL     1      -6.011   5.734 135.623  0.00  0.00    +0.000 A 
ATOM     13  C   UNL     1      -7.267   5.314 135.180  0.00  0.00    +0.000 A 
ATOM     14  C   UNL     1      -7.582   5.308 133.811  0.00  0.00    +0.000 A 
ENDROOT
BRANCH   1  15
ATOM     15  C   UNL     1      -9.447   3.722 133.811  0.00  0.00    +0.000 C 
BRANCH  15  16
ATOM     16  C   UNL     1      -8.758   2.568 133.101  0.00  0.00    +0.000 C 
BRANCH  16  17
ATOM     17  C   UNL     1      -9.446   1.968 131.893  0.00  0.00    +0.000 C 
BRANCH  17  19
ATOM     18  C   UNL     1      -8.212   0.701 130.270  0.00  0.00    +0.000 C 
ATOM     19  N   UNL     1      -8.548   2.049 130.717  0.00  0.00    +0.000 NA
ATOM     20  C   UNL     1      -9.122   2.806 129.593  0.00  0.00    +0.000 C 
ENDBRANCH  17  19
ENDBRANCH  16  17
ENDBRANCH  15  16
ENDBRANCH   1  15
TORSDOF 4
ENDMDL
