MODEL 1
REMARK VINA RESULT:      -6.4      0.000      0.000
REMARK  Name = Promethazine
REMARK  6 active torsions:
REMARK  status: ('A' for Active; 'I' for Inactive)
REMARK    1  A    between atoms: C_1  and  C_2
REMARK    2  A    between atoms: C_2  and  C_3
REMARK    3  A    between atoms: C_2  and  N_18
REMARK    4  A    between atoms: C_3  and  N_4
REMARK    5  A    between atoms: N_18  and  C_19
REMARK    6  A    between atoms: N_18  and  C_20
REMARK                            x       y       z     vdW  Elec       q    Type
REMARK                         _______ _______ _______ _____ _____    ______ ____
ROOT
ATOM      1  N   UNL     1      -6.208   2.938 123.846  0.00  0.00    +0.000 N 
ATOM      2  C   UNL     1      -6.350   3.541 122.571  0.00  0.00    +0.000 A 
ATOM      3  C   UNL     1      -5.285   4.200 121.928  0.00  0.00    +0.000 A 
ATOM      4  C   UNL     1      -5.356   4.637 120.602  0.00  0.00    +0.000 A 
ATOM      5  C   UNL     1      -6.510   4.431 119.875  0.00  0.00    +0.000 A 
ATOM      6  C   UNL     1      -7.595   3.798 120.477  0.00  0.00    +0.000 A 
ATOM      7  C   UNL     1      -7.517   3.350 121.808  0.00  0.00    +0.000 A 
ATOM      8  S   UNL     1      -8.937   2.491 122.477  0.00  0.00    +0.000 S 
ATOM      9  C   UNL     1      -8.094   1.376 123.589  0.00  0.00    +0.000 A 
ATOM     10  C   UNL     1      -8.672   0.122 123.843  0.00  0.00    +0.000 A 
ATOM     11  C   UNL     1      -8.035  -0.796 124.680  0.00  0.00    +0.000 A 
ATOM     12  C   UNL     1      -6.846  -0.457 125.292  0.00  0.00    +0.000 A 
ATOM     13  C   UNL     1      -6.300   0.809 125.080  0.00  0.00    +0.000 A 
ATOM     14  C   UNL     1      -6.887   1.740 124.201  0.00  0.00    +0.000 A 
ENDROOT
BRANCH   1  15
ATOM     15  C   UNL     1      -5.590   3.694 124.962  0.00  0.00    +0.000 C 
BRANCH  15  17
ATOM     16  C   UNL     1      -7.760   4.886 125.569  0.00  0.00    +0.000 C 
ATOM     17  C   UNL     1      -6.582   4.057 126.110  0.00  0.00    +0.000 C 
BRANCH  17  18
ATOM     18  N   UNL     1      -5.950   4.695 127.301  0.00  0.00    +0.000 NA
ATOM     19  C   UNL     1      -5.940   3.742 128.424  0.00  0.00    +0.000 C 
ATOM     20  C   UNL     1      -4.554   5.063 127.008  0.00  0.00    +0.000 C 
ENDBRANCH  17  18
ENDBRANCH  15  17
ENDBRANCH   1  15
TORSDOF 3
ENDMDL
MODEL 2
REMARK VINA RESULT:      -6.3      3.807      5.185
REMARK  Name = Promethazine
REMARK  6 active torsions:
REMARK  status: ('A' for Active; 'I' for Inactive)
REMARK    1  A    between atoms: C_1  and  C_2
REMARK    2  A    between atoms: C_2  and  C_3
REMARK    3  A    between atoms: C_2  and  N_18
REMARK    4  A    between atoms: C_3  and  N_4
REMARK    5  A    between atoms: N_18  and  C_19
REMARK    6  A    between atoms: N_18  and  C_20
REMARK                            x       y       z     vdW  Elec       q    Type
REMARK                         _______ _______ _______ _____ _____    ______ ____
ROOT
ATOM      1  N   UNL     1      -7.232  -0.736 126.428  0.00  0.00    +0.000 N 
ATOM      2  C   UNL     1      -7.402  -1.144 125.081  0.00  0.00    +0.000 A 
ATOM      3  C   UNL     1      -6.567  -0.683 124.045  0.00  0.00    +0.000 A 
ATOM      4  C   UNL     1      -6.604  -1.212 122.752  0.00  0.00    +0.000 A 
ATOM      5  C   UNL     1      -7.491  -2.225 122.452  0.00  0.00    +0.000 A 
ATOM      6  C   UNL     1      -8.348  -2.700 123.443  0.00  0.00    +0.000 A 
ATOM      7  C   UNL     1      -8.301  -2.173 124.746  0.00  0.00    +0.000 A 
ATOM      8  S   UNL     1      -9.394  -2.889 125.968  0.00  0.00    +0.000 S 
ATOM      9  C   UNL     1      -8.370  -2.683 127.417  0.00  0.00    +0.000 A 
ATOM     10  C   UNL     1      -8.486  -3.620 128.457  0.00  0.00    +0.000 A 
ATOM     11  C   UNL     1      -7.685  -3.518 129.595  0.00  0.00    +0.000 A 
ATOM     12  C   UNL     1      -6.797  -2.469 129.719  0.00  0.00    +0.000 A 
ATOM     13  C   UNL     1      -6.721  -1.510 128.710  0.00  0.00    +0.000 A 
ATOM     14  C   UNL     1      -7.475  -1.610 127.524  0.00  0.00    +0.000 A 
ENDROOT
BRANCH   1  15
ATOM     15  C   UNL     1      -7.092   0.703 126.758  0.00  0.00    +0.000 C 
BRANCH  15  17
ATOM     16  C   UNL     1      -8.544   2.219 125.315  0.00  0.00    +0.000 C 
ATOM     17  C   UNL     1      -8.425   1.507 126.672  0.00  0.00    +0.000 C 
BRANCH  17  18
ATOM     18  N   UNL     1      -8.667   2.436 127.815  0.00  0.00    +0.000 NA
ATOM     19  C   UNL     1      -8.441   1.726 129.085  0.00  0.00    +0.000 C 
ATOM     20  C   UNL     1      -7.732   3.573 127.760  0.00  0.00    +0.000 C 
ENDBRANCH  17  18
ENDBRANCH  15  17
ENDBRANCH   1  15
TORSDOF 3
ENDMDL
MODEL 3
REMARK VINA RESULT:      -6.2      6.150      8.364
REMARK  Name = Promethazine
REMARK  6 active torsions:
REMARK  status: ('A' for Active; 'I' for Inactive)
REMARK    1  A    between atoms: C_1  and  C_2
REMARK    2  A    between atoms: C_2  and  C_3
REMARK    3  A    between atoms: C_2  and  N_18
REMARK    4  A    between atoms: C_3  and  N_4
REMARK    5  A    between atoms: N_18  and  C_19
REMARK    6  A    between atoms: N_18  and  C_20
REMARK                            x       y       z     vdW  Elec       q    Type
REMARK                         _______ _______ _______ _____ _____    ______ ____
ROOT
ATOM      1  N   UNL     1      -7.897  -1.857 130.187  0.00  0.00    +0.000 N 
ATOM      2  C   UNL     1      -8.042  -2.306 128.850  0.00  0.00    +0.000 A 
ATOM      3  C   UNL     1      -8.571  -3.572 128.536  0.00  0.00    +0.000 A 
ATOM      4  C   UNL     1      -8.889  -3.955 127.229  0.00  0.00    +0.000 A 
ATOM      5  C   UNL     1      -8.679  -3.076 126.187  0.00  0.00    +0.000 A 
ATOM      6  C   UNL     1      -8.140  -1.819 126.451  0.00  0.00    +0.000 A 
ATOM      7  C   UNL     1      -7.831  -1.432 127.768  0.00  0.00    +0.000 A 
ATOM      8  S   UNL     1      -7.204   0.225 128.018  0.00  0.00    +0.000 S 
ATOM      9  C   UNL     1      -7.885   0.543 129.638  0.00  0.00    +0.000 A 
ATOM     10  C   UNL     1      -8.215   1.866 129.976  0.00  0.00    +0.000 A 
ATOM     11  C   UNL     1      -8.780   2.159 131.219  0.00  0.00    +0.000 A 
ATOM     12  C   UNL     1      -8.982   1.149 132.137  0.00  0.00    +0.000 A 
ATOM     13  C   UNL     1      -8.605  -0.155 131.820  0.00  0.00    +0.000 A 
ATOM     14  C   UNL     1      -8.082  -0.496 130.557  0.00  0.00    +0.000 A 
ENDROOT
BRANCH   1  15
ATOM     15  C   UNL     1      -7.247  -2.726 131.198  0.00  0.00    +0.000 C 
BRANCH  15  17
ATOM     16  C   UNL     1      -5.570  -4.641 131.066  0.00  0.00    +0.000 C 
ATOM     17  C   UNL     1      -5.785  -3.135 130.839  0.00  0.00    +0.000 C 
BRANCH  17  18
ATOM     18  N   UNL     1      -4.730  -2.313 131.501  0.00  0.00    +0.000 NA
ATOM     19  C   UNL     1      -4.333  -1.210 130.610  0.00  0.00    +0.000 C 
ATOM     20  C   UNL     1      -5.242  -1.725 132.750  0.00  0.00    +0.000 C 
ENDBRANCH  17  18
ENDBRANCH  15  17
ENDBRANCH   1  15
TORSDOF 3
ENDMDL
MODEL 4
REMARK VINA RESULT:      -6.1      4.210      6.572
REMARK  Name = Promethazine
REMARK  6 active torsions:
REMARK  status: ('A' for Active; 'I' for Inactive)
REMARK    1  A    between atoms: C_1  and  C_2
REMARK    2  A    between atoms: C_2  and  C_3
REMARK    3  A    between atoms: C_2  and  N_18
REMARK    4  A    between atoms: C_3  and  N_4
REMARK    5  A    between atoms: N_18  and  C_19
REMARK    6  A    between atoms: N_18  and  C_20
REMARK                            x       y       z     vdW  Elec       q    Type
REMARK                         _______ _______ _______ _____ _____    ______ ____
ROOT
ATOM      1  N   UNL     1      -5.949  -1.864 127.042  0.00  0.00    +0.000 N 
ATOM      2  C   UNL     1      -6.969  -2.277 126.147  0.00  0.00    +0.000 A 
ATOM      3  C   UNL     1      -6.813  -2.213 124.750  0.00  0.00    +0.000 A 
ATOM      4  C   UNL     1      -7.729  -2.781 123.860  0.00  0.00    +0.000 A 
ATOM      5  C   UNL     1      -8.843  -3.433 124.348  0.00  0.00    +0.000 A 
ATOM      6  C   UNL     1      -9.045  -3.506 125.724  0.00  0.00    +0.000 A 
ATOM      7  C   UNL     1      -8.116  -2.941 126.618  0.00  0.00    +0.000 A 
ATOM      8  S   UNL     1      -8.426  -3.139 128.368  0.00  0.00    +0.000 S 
ATOM      9  C   UNL     1      -6.739  -3.210 128.948  0.00  0.00    +0.000 A 
ATOM     10  C   UNL     1      -6.456  -3.972 130.093  0.00  0.00    +0.000 A 
ATOM     11  C   UNL     1      -5.147  -4.083 130.565  0.00  0.00    +0.000 A 
ATOM     12  C   UNL     1      -4.127  -3.409 129.925  0.00  0.00    +0.000 A 
ATOM     13  C   UNL     1      -4.417  -2.611 128.820  0.00  0.00    +0.000 A 
ATOM     14  C   UNL     1      -5.716  -2.518 128.284  0.00  0.00    +0.000 A 
ENDROOT
BRANCH   1  15
ATOM     15  C   UNL     1      -5.289  -0.549 126.863  0.00  0.00    +0.000 C 
BRANCH  15  17
ATOM     16  C   UNL     1      -5.929   1.663 125.771  0.00  0.00    +0.000 C 
ATOM     17  C   UNL     1      -6.269   0.663 126.890  0.00  0.00    +0.000 C 
BRANCH  17  18
ATOM     18  N   UNL     1      -6.395   1.333 128.217  0.00  0.00    +0.000 NA
ATOM     19  C   UNL     1      -7.518   0.740 128.963  0.00  0.00    +0.000 C 
ATOM     20  C   UNL     1      -5.170   1.137 129.012  0.00  0.00    +0.000 C 
ENDBRANCH  17  18
ENDBRANCH  15  17
ENDBRANCH   1  15
TORSDOF 3
ENDMDL
MODEL 5
REMARK VINA RESULT:      -6.0      2.914      4.754
REMARK  Name = Promethazine
REMARK  6 active torsions:
REMARK  status: ('A' for Active; 'I' for Inactive)
REMARK    1  A    between atoms: C_1  and  C_2
REMARK    2  A    between atoms: C_2  and  C_3
REMARK    3  A    between atoms: C_2  and  N_18
REMARK    4  A    between atoms: C_3  and  N_4
REMARK    5  A    between atoms: N_18  and  C_19
REMARK    6  A    between atoms: N_18  and  C_20
REMARK                            x       y       z     vdW  Elec       q    Type
REMARK                         _______ _______ _______ _____ _____    ______ ____
ROOT
ATOM      1  N   UNL     1      -5.707   0.079 126.127  0.00  0.00    +0.000 N 
ATOM      2  C   UNL     1      -5.649   1.472 125.870  0.00  0.00    +0.000 A 
ATOM      3  C   UNL     1      -4.804   2.335 126.593  0.00  0.00    +0.000 A 
ATOM      4  C   UNL     1      -4.600   3.670 126.234  0.00  0.00    +0.000 A 
ATOM      5  C   UNL     1      -5.247   4.189 125.132  0.00  0.00    +0.000 A 
ATOM      6  C   UNL     1      -6.107   3.375 124.397  0.00  0.00    +0.000 A 
ATOM      7  C   UNL     1      -6.302   2.029 124.755  0.00  0.00    +0.000 A 
ATOM      8  S   UNL     1      -7.373   1.043 123.716  0.00  0.00    +0.000 S 
ATOM      9  C   UNL     1      -6.572  -0.541 123.906  0.00  0.00    +0.000 A 
ATOM     10  C   UNL     1      -6.628  -1.452 122.838  0.00  0.00    +0.000 A 
ATOM     11  C   UNL     1      -5.990  -2.690 122.929  0.00  0.00    +0.000 A 
ATOM     12  C   UNL     1      -5.329  -3.040 124.089  0.00  0.00    +0.000 A 
ATOM     13  C   UNL     1      -5.319  -2.156 125.167  0.00  0.00    +0.000 A 
ATOM     14  C   UNL     1      -5.906  -0.877 125.093  0.00  0.00    +0.000 A 
ENDROOT
BRANCH   1  15
ATOM     15  C   UNL     1      -5.871  -0.416 127.515  0.00  0.00    +0.000 C 
BRANCH  15  17
ATOM     16  C   UNL     1      -7.779   0.465 128.956  0.00  0.00    +0.000 C 
ATOM     17  C   UNL     1      -7.356  -0.616 127.947  0.00  0.00    +0.000 C 
BRANCH  17  18
ATOM     18  N   UNL     1      -7.684  -1.990 128.429  0.00  0.00    +0.000 NA
ATOM     19  C   UNL     1      -8.310  -2.757 127.339  0.00  0.00    +0.000 C 
ATOM     20  C   UNL     1      -6.460  -2.700 128.836  0.00  0.00    +0.000 C 
ENDBRANCH  17  18
ENDBRANCH  15  17
ENDBRANCH   1  15
TORSDOF 3
ENDMDL
MODEL 6
REMARK VINA RESULT:      -5.8      2.530      5.622
REMARK  Name = Promethazine
REMARK  6 active torsions:
REMARK  status: ('A' for Active; 'I' for Inactive)
REMARK    1  A    between atoms: C_1  and  C_2
REMARK    2  A    between atoms: C_2  and  C_3
REMARK    3  A    between atoms: C_2  and  N_18
REMARK    4  A    between atoms: C_3  and  N_4
REMARK    5  A    between atoms: N_18  and  C_19
REMARK    6  A    between atoms: N_18  and  C_20
REMARK                            x       y       z     vdW  Elec       q    Type
REMARK                         _______ _______ _______ _____ _____    ______ ____
ROOT
ATOM      1  N   UNL     1      -7.916   0.860 125.961  0.00  0.00    +0.000 N 
ATOM      2  C   UNL     1      -7.676  -0.130 126.947  0.00  0.00    +0.000 A 
ATOM      3  C   UNL     1      -7.770   0.144 128.325  0.00  0.00    +0.000 A 
ATOM      4  C   UNL     1      -7.717  -0.857 129.300  0.00  0.00    +0.000 A 
ATOM      5  C   UNL     1      -7.560  -2.174 128.921  0.00  0.00    +0.000 A 
ATOM      6  C   UNL     1      -7.445  -2.488 127.569  0.00  0.00    +0.000 A 
ATOM      7  C   UNL     1      -7.510  -1.481 126.589  0.00  0.00    +0.000 A 
ATOM      8  S   UNL     1      -7.417  -1.985 124.875  0.00  0.00    +0.000 S 
ATOM      9  C   UNL     1      -8.454  -0.724 124.153  0.00  0.00    +0.000 A 
ATOM     10  C   UNL     1      -9.191  -1.043 123.000  0.00  0.00    +0.000 A 
ATOM     11  C   UNL     1     -10.040  -0.099 122.419  0.00  0.00    +0.000 A 
ATOM     12  C   UNL     1     -10.130   1.168 122.956  0.00  0.00    +0.000 A 
ATOM     13  C   UNL     1      -9.358   1.499 124.069  0.00  0.00    +0.000 A 
ATOM     14  C   UNL     1      -8.532   0.558 124.714  0.00  0.00    +0.000 A 
ENDROOT
BRANCH   1  15
ATOM     15  C   UNL     1      -7.259   2.185 126.061  0.00  0.00    +0.000 C 
BRANCH  15  17
ATOM     16  C   UNL     1      -4.736   1.943 126.331  0.00  0.00    +0.000 C 
ATOM     17  C   UNL     1      -5.874   2.263 125.347  0.00  0.00    +0.000 C 
BRANCH  17  18
ATOM     18  N   UNL     1      -5.629   3.533 124.602  0.00  0.00    +0.000 NA
ATOM     19  C   UNL     1      -6.321   3.485 123.304  0.00  0.00    +0.000 C 
ATOM     20  C   UNL     1      -6.159   4.683 125.355  0.00  0.00    +0.000 C 
ENDBRANCH  17  18
ENDBRANCH  15  17
ENDBRANCH   1  15
TORSDOF 3
ENDMDL
MODEL 7
REMARK VINA RESULT:      -5.7      3.947      7.703
REMARK  Name = Promethazine
REMARK  6 active torsions:
REMARK  status: ('A' for Active; 'I' for Inactive)
REMARK    1  A    between atoms: C_1  and  C_2
REMARK    2  A    between atoms: C_2  and  C_3
REMARK    3  A    between atoms: C_2  and  N_18
REMARK    4  A    between atoms: C_3  and  N_4
REMARK    5  A    between atoms: N_18  and  C_19
REMARK    6  A    between atoms: N_18  and  C_20
REMARK                            x       y       z     vdW  Elec       q    Type
REMARK                         _______ _______ _______ _____ _____    ______ ____
ROOT
ATOM      1  N   UNL     1      -6.885  -0.934 127.204  0.00  0.00    +0.000 N 
ATOM      2  C   UNL     1      -7.233  -1.544 128.436  0.00  0.00    +0.000 A 
ATOM      3  C   UNL     1      -7.035  -2.917 128.677  0.00  0.00    +0.000 A 
ATOM      4  C   UNL     1      -7.202  -3.495 129.939  0.00  0.00    +0.000 A 
ATOM      5  C   UNL     1      -7.581  -2.709 131.007  0.00  0.00    +0.000 A 
ATOM      6  C   UNL     1      -7.804  -1.348 130.810  0.00  0.00    +0.000 A 
ATOM      7  C   UNL     1      -7.626  -0.767 129.541  0.00  0.00    +0.000 A 
ATOM      8  S   UNL     1      -7.873   0.999 129.397  0.00  0.00    +0.000 S 
ATOM      9  C   UNL     1      -6.684   1.346 128.111  0.00  0.00    +0.000 A 
ATOM     10  C   UNL     1      -6.059   2.604 128.101  0.00  0.00    +0.000 A 
ATOM     11  C   UNL     1      -5.099   2.910 127.134  0.00  0.00    +0.000 A 
ATOM     12  C   UNL     1      -4.787   1.986 126.159  0.00  0.00    +0.000 A 
ATOM     13  C   UNL     1      -5.447   0.757 126.139  0.00  0.00    +0.000 A 
ATOM     14  C   UNL     1      -6.381   0.394 127.129  0.00  0.00    +0.000 A 
ENDROOT
BRANCH   1  15
ATOM     15  C   UNL     1      -7.321  -1.541 125.924  0.00  0.00    +0.000 C 
BRANCH  15  17
ATOM     16  C   UNL     1      -9.455  -2.934 125.912  0.00  0.00    +0.000 C 
ATOM     17  C   UNL     1      -8.865  -1.528 125.707  0.00  0.00    +0.000 C 
BRANCH  17  18
ATOM     18  N   UNL     1      -9.308  -0.919 124.419  0.00  0.00    +0.000 NA
ATOM     19  C   UNL     1      -8.599   0.354 124.207  0.00  0.00    +0.000 C 
ATOM     20  C   UNL     1      -8.987  -1.809 123.290  0.00  0.00    +0.000 C 
ENDBRANCH  17  18
ENDBRANCH  15  17
ENDBRANCH   1  15
TORSDOF 3
ENDMDL
MODEL 8
REMARK VINA RESULT:      -5.7      3.169      5.678
REMARK  Name = Promethazine
REMARK  6 active torsions:
REMARK  status: ('A' for Active; 'I' for Inactive)
REMARK    1  A    between atoms: C_1  and  C_2
REMARK    2  A    between atoms: C_2  and  C_3
REMARK    3  A    between atoms: C_2  and  N_18
REMARK    4  A    between atoms: C_3  and  N_4
REMARK    5  A    between atoms: N_18  and  C_19
REMARK    6  A    between atoms: N_18  and  C_20
REMARK                            x       y       z     vdW  Elec       q    Type
REMARK                         _______ _______ _______ _____ _____    ______ ____
ROOT
ATOM      1  N   UNL     1      -7.338  -0.696 126.172  0.00  0.00    +0.000 N 
ATOM      2  C   UNL     1      -8.053  -1.428 125.190  0.00  0.00    +0.000 A 
ATOM      3  C   UNL     1      -7.992  -1.106 123.821  0.00  0.00    +0.000 A 
ATOM      4  C   UNL     1      -8.541  -1.922 122.828  0.00  0.00    +0.000 A 
ATOM      5  C   UNL     1      -9.178  -3.094 123.179  0.00  0.00    +0.000 A 
ATOM      6  C   UNL     1      -9.276  -3.443 124.524  0.00  0.00    +0.000 A 
ATOM      7  C   UNL     1      -8.714  -2.625 125.521  0.00  0.00    +0.000 A 
ATOM      8  S   UNL     1      -8.833  -3.185 127.216  0.00  0.00    +0.000 S 
ATOM      9  C   UNL     1      -7.309  -2.501 127.847  0.00  0.00    +0.000 A 
ATOM     10  C   UNL     1      -6.654  -3.176 128.890  0.00  0.00    +0.000 A 
ATOM     11  C   UNL     1      -5.444  -2.697 129.395  0.00  0.00    +0.000 A 
ATOM     12  C   UNL     1      -4.903  -1.532 128.892  0.00  0.00    +0.000 A 
ATOM     13  C   UNL     1      -5.581  -0.834 127.893  0.00  0.00    +0.000 A 
ATOM     14  C   UNL     1      -6.776  -1.315 127.323  0.00  0.00    +0.000 A 
ENDROOT
BRANCH   1  15
ATOM     15  C   UNL     1      -7.410   0.785 126.197  0.00  0.00    +0.000 C 
BRANCH  15  17
ATOM     16  C   UNL     1      -5.331   2.246 126.004  0.00  0.00    +0.000 C 
ATOM     17  C   UNL     1      -6.415   1.485 125.221  0.00  0.00    +0.000 C 
BRANCH  17  18
ATOM     18  N   UNL     1      -7.060   2.342 124.183  0.00  0.00    +0.000 NA
ATOM     19  C   UNL     1      -8.446   2.640 124.582  0.00  0.00    +0.000 C 
ATOM     20  C   UNL     1      -6.342   3.621 124.052  0.00  0.00    +0.000 C 
ENDBRANCH  17  18
ENDBRANCH  15  17
ENDBRANCH   1  15
TORSDOF 3
ENDMDL
MODEL 9
REMARK VINA RESULT:      -5.6      5.680      8.575
REMARK  Name = Promethazine
REMARK  6 active torsions:
REMARK  status: ('A' for Active; 'I' for Inactive)
REMARK    1  A    between atoms: C_1  and  C_2
REMARK    2  A    between atoms: C_2  and  C_3
REMARK    3  A    between atoms: C_2  and  N_18
REMARK    4  A    between atoms: C_3  and  N_4
REMARK    5  A    between atoms: N_18  and  C_19
REMARK    6  A    between atoms: N_18  and  C_20
REMARK                            x       y       z     vdW  Elec       q    Type
REMARK                         _______ _______ _______ _____ _____    ______ ____
ROOT
ATOM      1  N   UNL     1      -6.562  -1.266 128.478  0.00  0.00    +0.000 N 
ATOM      2  C   UNL     1      -5.766  -2.315 129.002  0.00  0.00    +0.000 A 
ATOM      3  C   UNL     1      -4.479  -2.601 128.508  0.00  0.00    +0.000 A 
ATOM      4  C   UNL     1      -3.614  -3.506 129.130  0.00  0.00    +0.000 A 
ATOM      5  C   UNL     1      -4.018  -4.164 130.273  0.00  0.00    +0.000 A 
ATOM      6  C   UNL     1      -5.291  -3.924 130.787  0.00  0.00    +0.000 A 
ATOM      7  C   UNL     1      -6.155  -3.005 130.165  0.00  0.00    +0.000 A 
ATOM      8  S   UNL     1      -7.745  -2.714 130.932  0.00  0.00    +0.000 S 
ATOM      9  C   UNL     1      -7.965  -1.000 130.484  0.00  0.00    +0.000 A 
ATOM     10  C   UNL     1      -8.696  -0.170 131.350  0.00  0.00    +0.000 A 
ATOM     11  C   UNL     1      -8.868   1.184 131.058  0.00  0.00    +0.000 A 
ATOM     12  C   UNL     1      -8.347   1.707 129.892  0.00  0.00    +0.000 A 
ATOM     13  C   UNL     1      -7.667   0.871 129.007  0.00  0.00    +0.000 A 
ATOM     14  C   UNL     1      -7.429  -0.488 129.294  0.00  0.00    +0.000 A 
ENDROOT
BRANCH   1  15
ATOM     15  C   UNL     1      -6.754  -1.138 127.013  0.00  0.00    +0.000 C 
BRANCH  15  17
ATOM     16  C   UNL     1      -6.702  -2.836 125.114  0.00  0.00    +0.000 C 
ATOM     17  C   UNL     1      -7.471  -2.358 126.358  0.00  0.00    +0.000 C 
BRANCH  17  18
ATOM     18  N   UNL     1      -8.921  -2.150 126.073  0.00  0.00    +0.000 NA
ATOM     19  C   UNL     1      -9.145  -0.756 125.653  0.00  0.00    +0.000 C 
ATOM     20  C   UNL     1      -9.362  -3.029 124.977  0.00  0.00    +0.000 C 
ENDBRANCH  17  18
ENDBRANCH  15  17
ENDBRANCH   1  15
TORSDOF 3
ENDMDL
