MODEL 1
REMARK VINA RESULT:      -6.7      0.000      0.000
REMARK  Name = Propafenone
REMARK  13 active torsions:
REMARK  status: ('A' for Active; 'I' for Inactive)
REMARK    1  A    between atoms: C_1  and  C_2
REMARK    2  A    between atoms: C_2  and  C_3
REMARK    3  A    between atoms: C_3  and  N_4
REMARK    4  A    between atoms: N_4  and  C_5
REMARK    5  A    between atoms: C_5  and  C_6
REMARK    6  A    between atoms: C_6  and  O_7
REMARK    7  A    between atoms: C_6  and  C_8
REMARK    8  A    between atoms: C_8  and  O_9
REMARK    9  A    between atoms: O_9  and  C_10
REMARK   10  A    between atoms: C_11  and  C_16
REMARK   11  A    between atoms: C_16  and  C_18
REMARK   12  A    between atoms: C_18  and  C_19
REMARK   13  A    between atoms: C_19  and  C_20
REMARK                            x       y       z     vdW  Elec       q    Type
REMARK                         _______ _______ _______ _____ _____    ______ ____
ROOT
ATOM      1  C   UNL     1      -6.640   0.395 125.323  0.00  0.00    +0.000 A 
ATOM      2  C   UNL     1      -7.853  -0.257 125.617  0.00  0.00    +0.000 A 
ATOM      3  C   UNL     1      -7.880  -1.223 126.636  0.00  0.00    +0.000 A 
ATOM      4  C   UNL     1      -6.704  -1.615 127.271  0.00  0.00    +0.000 A 
ATOM      5  C   UNL     1      -5.499  -1.007 126.935  0.00  0.00    +0.000 A 
ATOM      6  C   UNL     1      -5.471   0.010 125.983  0.00  0.00    +0.000 A 
ENDROOT
BRANCH   2   7
ATOM      7  C   UNL     1      -9.116  -0.066 124.837  0.00  0.00    +0.000 C 
ATOM      8  O   UNL     1     -10.115   0.394 125.404  0.00  0.00    +0.000 OA
BRANCH   7   9
ATOM      9  C   UNL     1      -9.161  -0.514 123.399  0.00  0.00    +0.000 C 
BRANCH   9  10
ATOM     10  C   UNL     1      -9.075  -2.023 123.243  0.00  0.00    +0.000 C 
BRANCH  10  11
ATOM     11  C   UNL     1      -7.657  -2.537 123.310  0.00  0.00    +0.000 A 
ATOM     12  C   UNL     1      -7.294  -3.566 124.191  0.00  0.00    +0.000 A 
ATOM     13  C   UNL     1      -5.964  -3.957 124.327  0.00  0.00    +0.000 A 
ATOM     14  C   UNL     1      -4.984  -3.347 123.555  0.00  0.00    +0.000 A 
ATOM     15  C   UNL     1      -5.330  -2.330 122.665  0.00  0.00    +0.000 A 
ATOM     16  C   UNL     1      -6.659  -1.925 122.546  0.00  0.00    +0.000 A 
ENDBRANCH  10  11
ENDBRANCH   9  10
ENDBRANCH   7   9
ENDBRANCH   2   7
BRANCH   1  17
ATOM     17  O   UNL     1      -6.640   1.501 124.520  0.00  0.00    +0.000 OA
BRANCH  17  18
ATOM     18  C   UNL     1      -6.863   2.754 125.173  0.00  0.00    +0.000 C 
BRANCH  18  19
ATOM     19  C   UNL     1      -7.952   3.513 124.402  0.00  0.00    +0.000 C 
BRANCH  19  20
ATOM     20  O   UNL     1      -9.226   3.367 125.031  0.00  0.00    +0.000 OA
ATOM     21  H   UNL     1      -9.663   2.566 124.701  0.00  0.00    +0.000 HD
ENDBRANCH  19  20
BRANCH  19  22
ATOM     22  C   UNL     1      -8.051   2.984 122.970  0.00  0.00    +0.000 C 
BRANCH  22  23
ATOM     23  N   UNL     1      -7.209   3.779 122.074  0.00  0.00    +0.000 NA
ATOM     24  H   UNL     1      -7.809   4.350 121.472  0.00  0.00    +0.000 HD
BRANCH  23  25
ATOM     25  C   UNL     1      -6.340   2.915 121.292  0.00  0.00    +0.000 C 
BRANCH  25  27
ATOM     26  C   UNL     1      -4.711   4.675 121.971  0.00  0.00    +0.000 C 
ATOM     27  C   UNL     1      -5.075   3.666 120.894  0.00  0.00    +0.000 C 
ENDBRANCH  25  27
ENDBRANCH  23  25
ENDBRANCH  22  23
ENDBRANCH  19  22
ENDBRANCH  18  19
ENDBRANCH  17  18
ENDBRANCH   1  17
TORSDOF 12
ENDMDL
MODEL 2
REMARK VINA RESULT:      -6.6      1.875      3.716
REMARK  Name = Propafenone
REMARK  13 active torsions:
REMARK  status: ('A' for Active; 'I' for Inactive)
REMARK    1  A    between atoms: C_1  and  C_2
REMARK    2  A    between atoms: C_2  and  C_3
REMARK    3  A    between atoms: C_3  and  N_4
REMARK    4  A    between atoms: N_4  and  C_5
REMARK    5  A    between atoms: C_5  and  C_6
REMARK    6  A    between atoms: C_6  and  O_7
REMARK    7  A    between atoms: C_6  and  C_8
REMARK    8  A    between atoms: C_8  and  O_9
REMARK    9  A    between atoms: O_9  and  C_10
REMARK   10  A    between atoms: C_11  and  C_16
REMARK   11  A    between atoms: C_16  and  C_18
REMARK   12  A    between atoms: C_18  and  C_19
REMARK   13  A    between atoms: C_19  and  C_20
REMARK                            x       y       z     vdW  Elec       q    Type
REMARK                         _______ _______ _______ _____ _____    ______ ____
ROOT
ATOM      1  C   UNL     1      -7.332  -1.795 123.248  0.00  0.00    +0.000 A 
ATOM      2  C   UNL     1      -7.749  -2.901 124.014  0.00  0.00    +0.000 A 
ATOM      3  C   UNL     1      -6.814  -3.896 124.343  0.00  0.00    +0.000 A 
ATOM      4  C   UNL     1      -5.521  -3.852 123.826  0.00  0.00    +0.000 A 
ATOM      5  C   UNL     1      -5.132  -2.786 123.022  0.00  0.00    +0.000 A 
ATOM      6  C   UNL     1      -6.025  -1.750 122.754  0.00  0.00    +0.000 A 
ENDROOT
BRANCH   2   7
ATOM      7  C   UNL     1      -9.167  -3.148 124.423  0.00  0.00    +0.000 C 
ATOM      8  O   UNL     1     -10.017  -3.380 123.555  0.00  0.00    +0.000 OA
BRANCH   7   9
ATOM      9  C   UNL     1      -9.538  -3.027 125.878  0.00  0.00    +0.000 C 
BRANCH   9  10
ATOM     10  C   UNL     1      -8.790  -1.914 126.593  0.00  0.00    +0.000 C 
BRANCH  10  11
ATOM     11  C   UNL     1      -7.816  -2.433 127.623  0.00  0.00    +0.000 A 
ATOM     12  C   UNL     1      -8.257  -3.116 128.766  0.00  0.00    +0.000 A 
ATOM     13  C   UNL     1      -7.363  -3.492 129.765  0.00  0.00    +0.000 A 
ATOM     14  C   UNL     1      -6.008  -3.222 129.616  0.00  0.00    +0.000 A 
ATOM     15  C   UNL     1      -5.553  -2.554 128.480  0.00  0.00    +0.000 A 
ATOM     16  C   UNL     1      -6.452  -2.159 127.490  0.00  0.00    +0.000 A 
ENDBRANCH  10  11
ENDBRANCH   9  10
ENDBRANCH   7   9
ENDBRANCH   2   7
BRANCH   1  17
ATOM     17  O   UNL     1      -8.146  -0.705 123.128  0.00  0.00    +0.000 OA
BRANCH  17  18
ATOM     18  C   UNL     1      -7.756   0.458 123.865  0.00  0.00    +0.000 C 
BRANCH  18  19
ATOM     19  C   UNL     1      -8.965   1.400 123.957  0.00  0.00    +0.000 C 
BRANCH  19  20
ATOM     20  O   UNL     1     -10.155   0.680 124.285  0.00  0.00    +0.000 OA
ATOM     21  H   UNL     1     -10.079   0.315 125.181  0.00  0.00    +0.000 HD
ENDBRANCH  19  20
BRANCH  19  22
ATOM     22  C   UNL     1      -9.180   2.115 122.621  0.00  0.00    +0.000 C 
BRANCH  22  23
ATOM     23  N   UNL     1      -8.494   3.408 122.621  0.00  0.00    +0.000 NA
ATOM     24  H   UNL     1      -9.190   4.155 122.691  0.00  0.00    +0.000 HD
BRANCH  23  25
ATOM     25  C   UNL     1      -7.679   3.551 121.425  0.00  0.00    +0.000 C 
BRANCH  25  27
ATOM     26  C   UNL     1      -5.654   4.107 122.766  0.00  0.00    +0.000 C 
ATOM     27  C   UNL     1      -6.236   3.166 121.725  0.00  0.00    +0.000 C 
ENDBRANCH  25  27
ENDBRANCH  23  25
ENDBRANCH  22  23
ENDBRANCH  19  22
ENDBRANCH  18  19
ENDBRANCH  17  18
ENDBRANCH   1  17
TORSDOF 12
ENDMDL
MODEL 3
REMARK VINA RESULT:      -6.2      2.547      4.952
REMARK  Name = Propafenone
REMARK  13 active torsions:
REMARK  status: ('A' for Active; 'I' for Inactive)
REMARK    1  A    between atoms: C_1  and  C_2
REMARK    2  A    between atoms: C_2  and  C_3
REMARK    3  A    between atoms: C_3  and  N_4
REMARK    4  A    between atoms: N_4  and  C_5
REMARK    5  A    between atoms: C_5  and  C_6
REMARK    6  A    between atoms: C_6  and  O_7
REMARK    7  A    between atoms: C_6  and  C_8
REMARK    8  A    between atoms: C_8  and  O_9
REMARK    9  A    between atoms: O_9  and  C_10
REMARK   10  A    between atoms: C_11  and  C_16
REMARK   11  A    between atoms: C_16  and  C_18
REMARK   12  A    between atoms: C_18  and  C_19
REMARK   13  A    between atoms: C_19  and  C_20
REMARK                            x       y       z     vdW  Elec       q    Type
REMARK                         _______ _______ _______ _____ _____    ______ ____
ROOT
ATOM      1  C   UNL     1      -7.661  -1.598 123.220  0.00  0.00    +0.000 A 
ATOM      2  C   UNL     1      -7.883  -2.757 123.989  0.00  0.00    +0.000 A 
ATOM      3  C   UNL     1      -6.804  -3.615 124.258  0.00  0.00    +0.000 A 
ATOM      4  C   UNL     1      -5.558  -3.389 123.679  0.00  0.00    +0.000 A 
ATOM      5  C   UNL     1      -5.361  -2.273 122.872  0.00  0.00    +0.000 A 
ATOM      6  C   UNL     1      -6.400  -1.369 122.663  0.00  0.00    +0.000 A 
ENDROOT
BRANCH   2   7
ATOM      7  C   UNL     1      -9.231  -3.200 124.464  0.00  0.00    +0.000 C 
ATOM      8  O   UNL     1     -10.075  -3.564 123.637  0.00  0.00    +0.000 OA
BRANCH   7   9
ATOM      9  C   UNL     1      -9.551  -3.116 125.934  0.00  0.00    +0.000 C 
BRANCH   9  10
ATOM     10  C   UNL     1      -8.825  -1.981 126.636  0.00  0.00    +0.000 C 
BRANCH  10  11
ATOM     11  C   UNL     1      -7.857  -2.469 127.687  0.00  0.00    +0.000 A 
ATOM     12  C   UNL     1      -8.300  -3.157 128.825  0.00  0.00    +0.000 A 
ATOM     13  C   UNL     1      -7.415  -3.505 129.843  0.00  0.00    +0.000 A 
ATOM     14  C   UNL     1      -6.065  -3.201 129.715  0.00  0.00    +0.000 A 
ATOM     15  C   UNL     1      -5.606  -2.529 128.583  0.00  0.00    +0.000 A 
ATOM     16  C   UNL     1      -6.498  -2.162 127.575  0.00  0.00    +0.000 A 
ENDBRANCH  10  11
ENDBRANCH   9  10
ENDBRANCH   7   9
ENDBRANCH   2   7
BRANCH   1  17
ATOM     17  O   UNL     1      -8.623  -0.630 123.155  0.00  0.00    +0.000 OA
BRANCH  17  18
ATOM     18  C   UNL     1      -8.213   0.692 123.520  0.00  0.00    +0.000 C 
BRANCH  18  19
ATOM     19  C   UNL     1      -9.005   1.117 124.764  0.00  0.00    +0.000 C 
BRANCH  19  20
ATOM     20  O   UNL     1      -9.932   2.160 124.453  0.00  0.00    +0.000 OA
ATOM     21  H   UNL     1      -9.852   2.873 125.106  0.00  0.00    +0.000 HD
ENDBRANCH  19  20
BRANCH  19  22
ATOM     22  C   UNL     1      -8.052   1.620 125.850  0.00  0.00    +0.000 C 
BRANCH  22  23
ATOM     23  N   UNL     1      -8.718   1.614 127.153  0.00  0.00    +0.000 NA
ATOM     24  H   UNL     1      -9.368   2.404 127.200  0.00  0.00    +0.000 HD
BRANCH  23  25
ATOM     25  C   UNL     1      -7.738   1.669 128.226  0.00  0.00    +0.000 C 
BRANCH  25  27
ATOM     26  C   UNL     1      -6.995   0.489 130.291  0.00  0.00    +0.000 C 
ATOM     27  C   UNL     1      -8.179   0.783 129.385  0.00  0.00    +0.000 C 
ENDBRANCH  25  27
ENDBRANCH  23  25
ENDBRANCH  22  23
ENDBRANCH  19  22
ENDBRANCH  18  19
ENDBRANCH  17  18
ENDBRANCH   1  17
TORSDOF 12
ENDMDL
MODEL 4
REMARK VINA RESULT:      -6.2      2.716      4.708
REMARK  Name = Propafenone
REMARK  13 active torsions:
REMARK  status: ('A' for Active; 'I' for Inactive)
REMARK    1  A    between atoms: C_1  and  C_2
REMARK    2  A    between atoms: C_2  and  C_3
REMARK    3  A    between atoms: C_3  and  N_4
REMARK    4  A    between atoms: N_4  and  C_5
REMARK    5  A    between atoms: C_5  and  C_6
REMARK    6  A    between atoms: C_6  and  O_7
REMARK    7  A    between atoms: C_6  and  C_8
REMARK    8  A    between atoms: C_8  and  O_9
REMARK    9  A    between atoms: O_9  and  C_10
REMARK   10  A    between atoms: C_11  and  C_16
REMARK   11  A    between atoms: C_16  and  C_18
REMARK   12  A    between atoms: C_18  and  C_19
REMARK   13  A    between atoms: C_19  and  C_20
REMARK                            x       y       z     vdW  Elec       q    Type
REMARK                         _______ _______ _______ _____ _____    ______ ____
ROOT
ATOM      1  C   UNL     1      -6.984  -1.512 125.200  0.00  0.00    +0.000 A 
ATOM      2  C   UNL     1      -7.597  -2.763 125.406  0.00  0.00    +0.000 A 
ATOM      3  C   UNL     1      -7.056  -3.900 124.783  0.00  0.00    +0.000 A 
ATOM      4  C   UNL     1      -6.000  -3.779 123.883  0.00  0.00    +0.000 A 
ATOM      5  C   UNL     1      -5.436  -2.531 123.640  0.00  0.00    +0.000 A 
ATOM      6  C   UNL     1      -5.909  -1.407 124.313  0.00  0.00    +0.000 A 
ENDROOT
BRANCH   2   7
ATOM      7  C   UNL     1      -8.867  -2.955 126.173  0.00  0.00    +0.000 C 
ATOM      8  O   UNL     1      -9.934  -2.562 125.688  0.00  0.00    +0.000 OA
BRANCH   7   9
ATOM      9  C   UNL     1      -8.802  -3.553 127.555  0.00  0.00    +0.000 C 
BRANCH   9  10
ATOM     10  C   UNL     1      -8.234  -2.597 128.590  0.00  0.00    +0.000 C 
BRANCH  10  11
ATOM     11  C   UNL     1      -6.843  -2.980 129.038  0.00  0.00    +0.000 A 
ATOM     12  C   UNL     1      -5.704  -2.442 128.423  0.00  0.00    +0.000 A 
ATOM     13  C   UNL     1      -4.428  -2.884 128.765  0.00  0.00    +0.000 A 
ATOM     14  C   UNL     1      -4.275  -3.845 129.756  0.00  0.00    +0.000 A 
ATOM     15  C   UNL     1      -5.398  -4.381 130.386  0.00  0.00    +0.000 A 
ATOM     16  C   UNL     1      -6.676  -3.954 130.027  0.00  0.00    +0.000 A 
ENDBRANCH  10  11
ENDBRANCH   9  10
ENDBRANCH   7   9
ENDBRANCH   2   7
BRANCH   1  17
ATOM     17  O   UNL     1      -7.332  -0.447 125.982  0.00  0.00    +0.000 OA
BRANCH  17  18
ATOM     18  C   UNL     1      -7.017   0.848 125.460  0.00  0.00    +0.000 C 
BRANCH  18  19
ATOM     19  C   UNL     1      -8.158   1.807 125.827  0.00  0.00    +0.000 C 
BRANCH  19  20
ATOM     20  O   UNL     1      -7.782   2.665 126.906  0.00  0.00    +0.000 OA
ATOM     21  H   UNL     1      -7.976   3.587 126.673  0.00  0.00    +0.000 HD
ENDBRANCH  19  20
BRANCH  19  22
ATOM     22  C   UNL     1      -9.400   1.016 126.242  0.00  0.00    +0.000 C 
BRANCH  22  23
ATOM     23  N   UNL     1     -10.024   0.399 125.071  0.00  0.00    +0.000 NA
ATOM     24  H   UNL     1      -9.482  -0.426 124.799  0.00  0.00    +0.000 HD
BRANCH  23  25
ATOM     25  C   UNL     1     -10.117   1.356 123.980  0.00  0.00    +0.000 C 
BRANCH  25  27
ATOM     26  C   UNL     1      -9.473  -0.688 122.708  0.00  0.00    +0.000 C 
ATOM     27  C   UNL     1     -10.240   0.624 122.650  0.00  0.00    +0.000 C 
ENDBRANCH  25  27
ENDBRANCH  23  25
ENDBRANCH  22  23
ENDBRANCH  19  22
ENDBRANCH  18  19
ENDBRANCH  17  18
ENDBRANCH   1  17
TORSDOF 12
ENDMDL
MODEL 5
REMARK VINA RESULT:      -6.1      2.142      5.704
REMARK  Name = Propafenone
REMARK  13 active torsions:
REMARK  status: ('A' for Active; 'I' for Inactive)
REMARK    1  A    between atoms: C_1  and  C_2
REMARK    2  A    between atoms: C_2  and  C_3
REMARK    3  A    between atoms: C_3  and  N_4
REMARK    4  A    between atoms: N_4  and  C_5
REMARK    5  A    between atoms: C_5  and  C_6
REMARK    6  A    between atoms: C_6  and  O_7
REMARK    7  A    between atoms: C_6  and  C_8
REMARK    8  A    between atoms: C_8  and  O_9
REMARK    9  A    between atoms: O_9  and  C_10
REMARK   10  A    between atoms: C_11  and  C_16
REMARK   11  A    between atoms: C_16  and  C_18
REMARK   12  A    between atoms: C_18  and  C_19
REMARK   13  A    between atoms: C_19  and  C_20
REMARK                            x       y       z     vdW  Elec       q    Type
REMARK                         _______ _______ _______ _____ _____    ______ ____
ROOT
ATOM      1  C   UNL     1      -8.880  -1.063 125.337  0.00  0.00    +0.000 A 
ATOM      2  C   UNL     1      -8.729  -0.850 123.954  0.00  0.00    +0.000 A 
ATOM      3  C   UNL     1      -9.034  -1.893 123.064  0.00  0.00    +0.000 A 
ATOM      4  C   UNL     1      -9.370  -3.157 123.543  0.00  0.00    +0.000 A 
ATOM      5  C   UNL     1      -9.461  -3.377 124.914  0.00  0.00    +0.000 A 
ATOM      6  C   UNL     1      -9.241  -2.329 125.806  0.00  0.00    +0.000 A 
ENDROOT
BRANCH   2   7
ATOM      7  C   UNL     1      -8.158   0.398 123.358  0.00  0.00    +0.000 C 
ATOM      8  O   UNL     1      -6.932   0.552 123.330  0.00  0.00    +0.000 OA
BRANCH   7   9
ATOM      9  C   UNL     1      -9.099   1.474 122.878  0.00  0.00    +0.000 C 
BRANCH   9  10
ATOM     10  C   UNL     1      -8.531   2.874 123.033  0.00  0.00    +0.000 C 
BRANCH  10  11
ATOM     11  C   UNL     1      -8.027   3.448 121.731  0.00  0.00    +0.000 A 
ATOM     12  C   UNL     1      -8.903   3.747 120.677  0.00  0.00    +0.000 A 
ATOM     13  C   UNL     1      -8.420   4.170 119.441  0.00  0.00    +0.000 A 
ATOM     14  C   UNL     1      -7.053   4.334 119.256  0.00  0.00    +0.000 A 
ATOM     15  C   UNL     1      -6.169   4.053 120.297  0.00  0.00    +0.000 A 
ATOM     16  C   UNL     1      -6.653   3.609 121.528  0.00  0.00    +0.000 A 
ENDBRANCH  10  11
ENDBRANCH   9  10
ENDBRANCH   7   9
ENDBRANCH   2   7
BRANCH   1  17
ATOM     17  O   UNL     1      -8.832  -0.004 126.199  0.00  0.00    +0.000 OA
BRANCH  17  18
ATOM     18  C   UNL     1      -7.992  -0.161 127.346  0.00  0.00    +0.000 C 
BRANCH  18  19
ATOM     19  C   UNL     1      -6.711   0.655 127.122  0.00  0.00    +0.000 C 
BRANCH  19  20
ATOM     20  O   UNL     1      -6.948   1.752 126.236  0.00  0.00    +0.000 OA
ATOM     21  H   UNL     1      -7.117   2.557 126.751  0.00  0.00    +0.000 HD
ENDBRANCH  19  20
BRANCH  19  22
ATOM     22  C   UNL     1      -5.619  -0.231 126.520  0.00  0.00    +0.000 C 
BRANCH  22  23
ATOM     23  N   UNL     1      -5.972  -1.644 126.667  0.00  0.00    +0.000 NA
ATOM     24  H   UNL     1      -5.937  -1.896 127.658  0.00  0.00    +0.000 HD
BRANCH  23  25
ATOM     25  C   UNL     1      -5.080  -2.476 125.876  0.00  0.00    +0.000 C 
BRANCH  25  27
ATOM     26  C   UNL     1      -4.843  -3.714 123.726  0.00  0.00    +0.000 C 
ATOM     27  C   UNL     1      -5.638  -2.652 124.469  0.00  0.00    +0.000 C 
ENDBRANCH  25  27
ENDBRANCH  23  25
ENDBRANCH  22  23
ENDBRANCH  19  22
ENDBRANCH  18  19
ENDBRANCH  17  18
ENDBRANCH   1  17
TORSDOF 12
ENDMDL
MODEL 6
REMARK VINA RESULT:      -6.1      2.340      4.635
REMARK  Name = Propafenone
REMARK  13 active torsions:
REMARK  status: ('A' for Active; 'I' for Inactive)
REMARK    1  A    between atoms: C_1  and  C_2
REMARK    2  A    between atoms: C_2  and  C_3
REMARK    3  A    between atoms: C_3  and  N_4
REMARK    4  A    between atoms: N_4  and  C_5
REMARK    5  A    between atoms: C_5  and  C_6
REMARK    6  A    between atoms: C_6  and  O_7
REMARK    7  A    between atoms: C_6  and  C_8
REMARK    8  A    between atoms: C_8  and  O_9
REMARK    9  A    between atoms: O_9  and  C_10
REMARK   10  A    between atoms: C_11  and  C_16
REMARK   11  A    between atoms: C_16  and  C_18
REMARK   12  A    between atoms: C_18  and  C_19
REMARK   13  A    between atoms: C_19  and  C_20
REMARK                            x       y       z     vdW  Elec       q    Type
REMARK                         _______ _______ _______ _____ _____    ______ ____
ROOT
ATOM      1  C   UNL     1      -7.961  -1.387 124.046  0.00  0.00    +0.000 A 
ATOM      2  C   UNL     1      -7.857  -2.478 124.931  0.00  0.00    +0.000 A 
ATOM      3  C   UNL     1      -6.733  -3.316 124.854  0.00  0.00    +0.000 A 
ATOM      4  C   UNL     1      -5.790  -3.144 123.844  0.00  0.00    +0.000 A 
ATOM      5  C   UNL     1      -5.929  -2.099 122.936  0.00  0.00    +0.000 A 
ATOM      6  C   UNL     1      -6.996  -1.211 123.051  0.00  0.00    +0.000 A 
ENDROOT
BRANCH   2   7
ATOM      7  C   UNL     1      -8.928  -2.874 125.898  0.00  0.00    +0.000 C 
ATOM      8  O   UNL     1     -10.114  -2.800 125.555  0.00  0.00    +0.000 OA
BRANCH   7   9
ATOM      9  C   UNL     1      -8.536  -3.279 127.296  0.00  0.00    +0.000 C 
BRANCH   9  10
ATOM     10  C   UNL     1      -7.727  -2.215 128.018  0.00  0.00    +0.000 C 
BRANCH  10  11
ATOM     11  C   UNL     1      -6.561  -2.788 128.787  0.00  0.00    +0.000 A 
ATOM     12  C   UNL     1      -5.237  -2.531 128.406  0.00  0.00    +0.000 A 
ATOM     13  C   UNL     1      -4.171  -3.154 129.051  0.00  0.00    +0.000 A 
ATOM     14  C   UNL     1      -4.417  -4.015 130.114  0.00  0.00    +0.000 A 
ATOM     15  C   UNL     1      -5.728  -4.271 130.513  0.00  0.00    +0.000 A 
ATOM     16  C   UNL     1      -6.795  -3.664 129.852  0.00  0.00    +0.000 A 
ENDBRANCH  10  11
ENDBRANCH   9  10
ENDBRANCH   7   9
ENDBRANCH   2   7
BRANCH   1  17
ATOM     17  O   UNL     1      -8.905  -0.423 124.262  0.00  0.00    +0.000 OA
BRANCH  17  18
ATOM     18  C   UNL     1      -9.344   0.299 123.107  0.00  0.00    +0.000 C 
BRANCH  18  19
ATOM     19  C   UNL     1      -9.354   1.796 123.449  0.00  0.00    +0.000 C 
BRANCH  19  20
ATOM     20  O   UNL     1      -9.285   2.595 122.266  0.00  0.00    +0.000 OA
ATOM     21  H   UNL     1      -9.018   2.043 121.514  0.00  0.00    +0.000 HD
ENDBRANCH  19  20
BRANCH  19  22
ATOM     22  C   UNL     1      -8.160   2.141 124.342  0.00  0.00    +0.000 C 
BRANCH  22  23
ATOM     23  N   UNL     1      -8.548   2.091 125.752  0.00  0.00    +0.000 NA
ATOM     24  H   UNL     1      -8.813   3.031 126.059  0.00  0.00    +0.000 HD
BRANCH  23  25
ATOM     25  C   UNL     1      -7.464   1.555 126.559  0.00  0.00    +0.000 C 
BRANCH  25  27
ATOM     26  C   UNL     1      -5.378   0.249 126.167  0.00  0.00    +0.000 C 
ATOM     27  C   UNL     1      -6.191   1.457 125.728  0.00  0.00    +0.000 C 
ENDBRANCH  25  27
ENDBRANCH  23  25
ENDBRANCH  22  23
ENDBRANCH  19  22
ENDBRANCH  18  19
ENDBRANCH  17  18
ENDBRANCH   1  17
TORSDOF 12
ENDMDL
MODEL 7
REMARK VINA RESULT:      -6.0      2.566      6.225
REMARK  Name = Propafenone
REMARK  13 active torsions:
REMARK  status: ('A' for Active; 'I' for Inactive)
REMARK    1  A    between atoms: C_1  and  C_2
REMARK    2  A    between atoms: C_2  and  C_3
REMARK    3  A    between atoms: C_3  and  N_4
REMARK    4  A    between atoms: N_4  and  C_5
REMARK    5  A    between atoms: C_5  and  C_6
REMARK    6  A    between atoms: C_6  and  O_7
REMARK    7  A    between atoms: C_6  and  C_8
REMARK    8  A    between atoms: C_8  and  O_9
REMARK    9  A    between atoms: O_9  and  C_10
REMARK   10  A    between atoms: C_11  and  C_16
REMARK   11  A    between atoms: C_16  and  C_18
REMARK   12  A    between atoms: C_18  and  C_19
REMARK   13  A    between atoms: C_19  and  C_20
REMARK                            x       y       z     vdW  Elec       q    Type
REMARK                         _______ _______ _______ _____ _____    ______ ____
ROOT
ATOM      1  C   UNL     1      -6.516  -0.865 124.826  0.00  0.00    +0.000 A 
ATOM      2  C   UNL     1      -7.812  -0.463 124.450  0.00  0.00    +0.000 A 
ATOM      3  C   UNL     1      -8.426  -1.081 123.349  0.00  0.00    +0.000 A 
ATOM      4  C   UNL     1      -7.724  -1.995 122.566  0.00  0.00    +0.000 A 
ATOM      5  C   UNL     1      -6.422  -2.344 122.909  0.00  0.00    +0.000 A 
ATOM      6  C   UNL     1      -5.829  -1.801 124.047  0.00  0.00    +0.000 A 
ENDROOT
BRANCH   2   7
ATOM      7  C   UNL     1      -8.556   0.667 125.090  0.00  0.00    +0.000 C 
ATOM      8  O   UNL     1      -9.480   0.418 125.873  0.00  0.00    +0.000 OA
BRANCH   7   9
ATOM      9  C   UNL     1      -8.209   2.081 124.702  0.00  0.00    +0.000 C 
BRANCH   9  10
ATOM     10  C   UNL     1      -8.982   2.571 123.490  0.00  0.00    +0.000 C 
BRANCH  10  11
ATOM     11  C   UNL     1      -8.082   2.972 122.345  0.00  0.00    +0.000 A 
ATOM     12  C   UNL     1      -6.689   2.842 122.433  0.00  0.00    +0.000 A 
ATOM     13  C   UNL     1      -5.860   3.317 121.419  0.00  0.00    +0.000 A 
ATOM     14  C   UNL     1      -6.419   3.895 120.286  0.00  0.00    +0.000 A 
ATOM     15  C   UNL     1      -7.804   4.020 120.178  0.00  0.00    +0.000 A 
ATOM     16  C   UNL     1      -8.631   3.563 121.204  0.00  0.00    +0.000 A 
ENDBRANCH  10  11
ENDBRANCH   9  10
ENDBRANCH   7   9
ENDBRANCH   2   7
BRANCH   1  17
ATOM     17  O   UNL     1      -6.001  -0.466 126.027  0.00  0.00    +0.000 OA
BRANCH  17  18
ATOM     18  C   UNL     1      -5.539  -1.508 126.892  0.00  0.00    +0.000 C 
BRANCH  18  19
ATOM     19  C   UNL     1      -5.399  -0.932 128.309  0.00  0.00    +0.000 C 
BRANCH  19  20
ATOM     20  O   UNL     1      -4.278  -1.503 128.988  0.00  0.00    +0.000 OA
ATOM     21  H   UNL     1      -3.502  -1.489 128.406  0.00  0.00    +0.000 HD
ENDBRANCH  19  20
BRANCH  19  22
ATOM     22  C   UNL     1      -6.662  -1.220 129.123  0.00  0.00    +0.000 C 
BRANCH  22  23
ATOM     23  N   UNL     1      -7.684  -1.834 128.274  0.00  0.00    +0.000 NA
ATOM     24  H   UNL     1      -8.404  -1.137 128.062  0.00  0.00    +0.000 HD
BRANCH  23  25
ATOM     25  C   UNL     1      -8.253  -3.002 128.928  0.00  0.00    +0.000 C 
BRANCH  25  27
ATOM     26  C   UNL     1      -8.941  -3.237 126.544  0.00  0.00    +0.000 C 
ATOM     27  C   UNL     1      -8.862  -3.938 127.890  0.00  0.00    +0.000 C 
ENDBRANCH  25  27
ENDBRANCH  23  25
ENDBRANCH  22  23
ENDBRANCH  19  22
ENDBRANCH  18  19
ENDBRANCH  17  18
ENDBRANCH   1  17
TORSDOF 12
ENDMDL
MODEL 8
REMARK VINA RESULT:      -6.0      1.989      4.874
REMARK  Name = Propafenone
REMARK  13 active torsions:
REMARK  status: ('A' for Active; 'I' for Inactive)
REMARK    1  A    between atoms: C_1  and  C_2
REMARK    2  A    between atoms: C_2  and  C_3
REMARK    3  A    between atoms: C_3  and  N_4
REMARK    4  A    between atoms: N_4  and  C_5
REMARK    5  A    between atoms: C_5  and  C_6
REMARK    6  A    between atoms: C_6  and  O_7
REMARK    7  A    between atoms: C_6  and  C_8
REMARK    8  A    between atoms: C_8  and  O_9
REMARK    9  A    between atoms: O_9  and  C_10
REMARK   10  A    between atoms: C_11  and  C_16
REMARK   11  A    between atoms: C_16  and  C_18
REMARK   12  A    between atoms: C_18  and  C_19
REMARK   13  A    between atoms: C_19  and  C_20
REMARK                            x       y       z     vdW  Elec       q    Type
REMARK                         _______ _______ _______ _____ _____    ______ ____
ROOT
ATOM      1  C   UNL     1      -5.797   3.875 123.028  0.00  0.00    +0.000 A 
ATOM      2  C   UNL     1      -7.000   3.322 122.547  0.00  0.00    +0.000 A 
ATOM      3  C   UNL     1      -7.278   3.381 121.172  0.00  0.00    +0.000 A 
ATOM      4  C   UNL     1      -6.434   4.075 120.308  0.00  0.00    +0.000 A 
ATOM      5  C   UNL     1      -5.276   4.668 120.799  0.00  0.00    +0.000 A 
ATOM      6  C   UNL     1      -4.946   4.548 122.147  0.00  0.00    +0.000 A 
ENDROOT
BRANCH   2   7
ATOM      7  C   UNL     1      -8.071   2.758 123.427  0.00  0.00    +0.000 C 
ATOM      8  O   UNL     1      -8.652   3.500 124.228  0.00  0.00    +0.000 OA
BRANCH   7   9
ATOM      9  C   UNL     1      -8.358   1.280 123.370  0.00  0.00    +0.000 C 
BRANCH   9  10
ATOM     10  C   UNL     1      -7.104   0.435 123.224  0.00  0.00    +0.000 C 
BRANCH  10  11
ATOM     11  C   UNL     1      -7.289  -0.977 123.724  0.00  0.00    +0.000 A 
ATOM     12  C   UNL     1      -6.238  -1.905 123.698  0.00  0.00    +0.000 A 
ATOM     13  C   UNL     1      -6.447  -3.235 124.055  0.00  0.00    +0.000 A 
ATOM     14  C   UNL     1      -7.705  -3.645 124.480  0.00  0.00    +0.000 A 
ATOM     15  C   UNL     1      -8.757  -2.732 124.523  0.00  0.00    +0.000 A 
ATOM     16  C   UNL     1      -8.552  -1.405 124.144  0.00  0.00    +0.000 A 
ENDBRANCH  10  11
ENDBRANCH   9  10
ENDBRANCH   7   9
ENDBRANCH   2   7
BRANCH   1  17
ATOM     17  O   UNL     1      -5.391   3.613 124.306  0.00  0.00    +0.000 OA
BRANCH  17  18
ATOM     18  C   UNL     1      -5.556   4.675 125.250  0.00  0.00    +0.000 C 
BRANCH  18  19
ATOM     19  C   UNL     1      -4.734   4.340 126.502  0.00  0.00    +0.000 C 
BRANCH  19  20
ATOM     20  O   UNL     1      -3.463   3.790 126.152  0.00  0.00    +0.000 OA
ATOM     21  H   UNL     1      -2.766   4.443 126.324  0.00  0.00    +0.000 HD
ENDBRANCH  19  20
BRANCH  19  22
ATOM     22  C   UNL     1      -5.483   3.326 127.370  0.00  0.00    +0.000 C 
BRANCH  22  23
ATOM     23  N   UNL     1      -6.687   2.860 126.681  0.00  0.00    +0.000 NA
ATOM     24  H   UNL     1      -7.499   3.367 127.047  0.00  0.00    +0.000 HD
BRANCH  23  25
ATOM     25  C   UNL     1      -6.842   1.423 126.844  0.00  0.00    +0.000 C 
BRANCH  25  27
ATOM     26  C   UNL     1      -5.547  -0.693 127.080  0.00  0.00    +0.000 C 
ATOM     27  C   UNL     1      -5.537   0.714 126.504  0.00  0.00    +0.000 C 
ENDBRANCH  25  27
ENDBRANCH  23  25
ENDBRANCH  22  23
ENDBRANCH  19  22
ENDBRANCH  18  19
ENDBRANCH  17  18
ENDBRANCH   1  17
TORSDOF 12
ENDMDL
MODEL 9
REMARK VINA RESULT:      -5.9      2.268      3.456
REMARK  Name = Propafenone
REMARK  13 active torsions:
REMARK  status: ('A' for Active; 'I' for Inactive)
REMARK    1  A    between atoms: C_1  and  C_2
REMARK    2  A    between atoms: C_2  and  C_3
REMARK    3  A    between atoms: C_3  and  N_4
REMARK    4  A    between atoms: N_4  and  C_5
REMARK    5  A    between atoms: C_5  and  C_6
REMARK    6  A    between atoms: C_6  and  O_7
REMARK    7  A    between atoms: C_6  and  C_8
REMARK    8  A    between atoms: C_8  and  O_9
REMARK    9  A    between atoms: O_9  and  C_10
REMARK   10  A    between atoms: C_11  and  C_16
REMARK   11  A    between atoms: C_16  and  C_18
REMARK   12  A    between atoms: C_18  and  C_19
REMARK   13  A    between atoms: C_19  and  C_20
REMARK                            x       y       z     vdW  Elec       q    Type
REMARK                         _______ _______ _______ _____ _____    ______ ____
ROOT
ATOM      1  C   UNL     1      -6.299  -1.957 127.616  0.00  0.00    +0.000 A 
ATOM      2  C   UNL     1      -7.668  -2.280 127.674  0.00  0.00    +0.000 A 
ATOM      3  C   UNL     1      -8.148  -3.031 128.760  0.00  0.00    +0.000 A 
ATOM      4  C   UNL     1      -7.267  -3.548 129.707  0.00  0.00    +0.000 A 
ATOM      5  C   UNL     1      -5.907  -3.273 129.612  0.00  0.00    +0.000 A 
ATOM      6  C   UNL     1      -5.428  -2.462 128.585  0.00  0.00    +0.000 A 
ENDROOT
BRANCH   2   7
ATOM      7  C   UNL     1      -8.649  -1.963 126.590  0.00  0.00    +0.000 C 
ATOM      8  O   UNL     1      -8.912  -0.781 126.337  0.00  0.00    +0.000 OA
BRANCH   7   9
ATOM      9  C   UNL     1      -9.352  -3.095 125.887  0.00  0.00    +0.000 C 
BRANCH   9  10
ATOM     10  C   UNL     1      -8.399  -4.018 125.146  0.00  0.00    +0.000 C 
BRANCH  10  11
ATOM     11  C   UNL     1      -7.458  -3.273 124.231  0.00  0.00    +0.000 A 
ATOM     12  C   UNL     1      -7.935  -2.365 123.275  0.00  0.00    +0.000 A 
ATOM     13  C   UNL     1      -7.071  -1.767 122.360  0.00  0.00    +0.000 A 
ATOM     14  C   UNL     1      -5.711  -2.043 122.416  0.00  0.00    +0.000 A 
ATOM     15  C   UNL     1      -5.219  -2.933 123.369  0.00  0.00    +0.000 A 
ATOM     16  C   UNL     1      -6.088  -3.548 124.270  0.00  0.00    +0.000 A 
ENDBRANCH  10  11
ENDBRANCH   9  10
ENDBRANCH   7   9
ENDBRANCH   2   7
BRANCH   1  17
ATOM     17  O   UNL     1      -5.856  -1.029 126.716  0.00  0.00    +0.000 OA
BRANCH  17  18
ATOM     18  C   UNL     1      -5.514   0.253 127.249  0.00  0.00    +0.000 C 
BRANCH  18  19
ATOM     19  C   UNL     1      -4.912   1.101 126.120  0.00  0.00    +0.000 C 
BRANCH  19  20
ATOM     20  O   UNL     1      -3.839   1.914 126.601  0.00  0.00    +0.000 OA
ATOM     21  H   UNL     1      -4.183   2.574 127.223  0.00  0.00    +0.000 HD
ENDBRANCH  19  20
BRANCH  19  22
ATOM     22  C   UNL     1      -5.983   2.013 125.517  0.00  0.00    +0.000 C 
BRANCH  22  23
ATOM     23  N   UNL     1      -7.055   1.214 124.921  0.00  0.00    +0.000 NA
ATOM     24  H   UNL     1      -6.681   0.700 124.118  0.00  0.00    +0.000 HD
BRANCH  23  25
ATOM     25  C   UNL     1      -8.169   2.065 124.535  0.00  0.00    +0.000 C 
BRANCH  25  27
ATOM     26  C   UNL     1      -9.849   0.858 123.146  0.00  0.00    +0.000 C 
ATOM     27  C   UNL     1      -8.610   1.738 123.114  0.00  0.00    +0.000 C 
ENDBRANCH  25  27
ENDBRANCH  23  25
ENDBRANCH  22  23
ENDBRANCH  19  22
ENDBRANCH  18  19
ENDBRANCH  17  18
ENDBRANCH   1  17
TORSDOF 12
ENDMDL
