MODEL 1
REMARK VINA RESULT:      -5.3      0.000      0.000
REMARK  Name = Propyliodone
REMARK  6 active torsions:
REMARK  status: ('A' for Active; 'I' for Inactive)
REMARK    1  A    between atoms: C_1  and  C_2
REMARK    2  A    between atoms: C_2  and  C_3
REMARK    3  A    between atoms: C_3  and  O_4
REMARK    4  A    between atoms: O_4  and  C_5
REMARK    5  A    between atoms: C_5  and  C_7
REMARK    6  A    between atoms: C_7  and  N_8
REMARK                            x       y       z     vdW  Elec       q    Type
REMARK                         _______ _______ _______ _____ _____    ______ ____
ROOT
ATOM      1  N   UNL     1      -8.448   2.375 123.966  0.00  0.00    +0.000 N 
ATOM      2  C   UNL     1      -7.701   2.752 125.081  0.00  0.00    +0.000 A 
ATOM      3  C   UNL     1      -6.562   3.459 125.059  0.00  0.00    +0.000 A 
ATOM      4  I   UNL     1      -5.623   4.053 126.773  0.00  0.00    +0.000 I 
ATOM      5  C   UNL     1      -6.013   3.840 123.721  0.00  0.00    +0.000 A 
ATOM      6  O   UNL     1      -4.967   4.481 123.617  0.00  0.00    +0.000 OA
ATOM      7  C   UNL     1      -6.791   3.393 122.514  0.00  0.00    +0.000 A 
ATOM      8  I   UNL     1      -6.079   3.854 120.648  0.00  0.00    +0.000 I 
ATOM      9  C   UNL     1      -7.937   2.714 122.714  0.00  0.00    +0.000 A 
ENDROOT
BRANCH   1  10
ATOM     10  C   UNL     1      -9.827   1.825 124.162  0.00  0.00    +0.000 C 
BRANCH  10  11
ATOM     11  C   UNL     1     -10.004   0.498 123.398  0.00  0.00    +0.000 C 
ATOM     12  O   UNL     1     -10.619   0.372 122.343  0.00  0.00    +0.000 OA
BRANCH  11  13
ATOM     13  O   UNL     1      -9.417  -0.555 124.048  0.00  0.00    +0.000 OA
BRANCH  13  14
ATOM     14  C   UNL     1      -8.346  -1.143 123.280  0.00  0.00    +0.000 C 
BRANCH  14  16
ATOM     15  C   UNL     1      -9.341  -3.339 124.011  0.00  0.00    +0.000 C 
ATOM     16  C   UNL     1      -8.712  -2.563 122.861  0.00  0.00    +0.000 C 
ENDBRANCH  14  16
ENDBRANCH  13  14
ENDBRANCH  11  13
ENDBRANCH  10  11
ENDBRANCH   1  10
TORSDOF 5
ENDMDL
MODEL 2
REMARK VINA RESULT:      -5.3      1.006      2.763
REMARK  Name = Propyliodone
REMARK  6 active torsions:
REMARK  status: ('A' for Active; 'I' for Inactive)
REMARK    1  A    between atoms: C_1  and  C_2
REMARK    2  A    between atoms: C_2  and  C_3
REMARK    3  A    between atoms: C_3  and  O_4
REMARK    4  A    between atoms: O_4  and  C_5
REMARK    5  A    between atoms: C_5  and  C_7
REMARK    6  A    between atoms: C_7  and  N_8
REMARK                            x       y       z     vdW  Elec       q    Type
REMARK                         _______ _______ _______ _____ _____    ______ ____
ROOT
ATOM      1  N   UNL     1      -7.300   1.512 123.787  0.00  0.00    +0.000 N 
ATOM      2  C   UNL     1      -7.188   2.125 122.539  0.00  0.00    +0.000 A 
ATOM      3  C   UNL     1      -6.520   3.257 122.279  0.00  0.00    +0.000 A 
ATOM      4  I   UNL     1      -6.329   3.991 120.383  0.00  0.00    +0.000 I 
ATOM      5  C   UNL     1      -5.874   3.957 123.432  0.00  0.00    +0.000 A 
ATOM      6  O   UNL     1      -5.250   5.007 123.277  0.00  0.00    +0.000 OA
ATOM      7  C   UNL     1      -6.034   3.324 124.787  0.00  0.00    +0.000 A 
ATOM      8  I   UNL     1      -5.201   4.247 126.418  0.00  0.00    +0.000 I 
ATOM      9  C   UNL     1      -6.713   2.164 124.870  0.00  0.00    +0.000 A 
ENDROOT
BRANCH   1  10
ATOM     10  C   UNL     1      -7.847   0.121 123.871  0.00  0.00    +0.000 C 
BRANCH  10  11
ATOM     11  C   UNL     1      -9.363   0.108 123.590  0.00  0.00    +0.000 C 
ATOM     12  O   UNL     1     -10.156   0.960 123.979  0.00  0.00    +0.000 OA
BRANCH  11  13
ATOM     13  O   UNL     1      -9.746  -0.994 122.873  0.00  0.00    +0.000 OA
BRANCH  13  14
ATOM     14  C   UNL     1      -8.769  -2.055 122.936  0.00  0.00    +0.000 C 
BRANCH  14  16
ATOM     15  C   UNL     1      -8.301  -3.828 124.663  0.00  0.00    +0.000 C 
ATOM     16  C   UNL     1      -9.331  -3.247 123.703  0.00  0.00    +0.000 C 
ENDBRANCH  14  16
ENDBRANCH  13  14
ENDBRANCH  11  13
ENDBRANCH  10  11
ENDBRANCH   1  10
TORSDOF 5
ENDMDL
MODEL 3
REMARK VINA RESULT:      -5.2      8.279      9.379
REMARK  Name = Propyliodone
REMARK  6 active torsions:
REMARK  status: ('A' for Active; 'I' for Inactive)
REMARK    1  A    between atoms: C_1  and  C_2
REMARK    2  A    between atoms: C_2  and  C_3
REMARK    3  A    between atoms: C_3  and  O_4
REMARK    4  A    between atoms: O_4  and  C_5
REMARK    5  A    between atoms: C_5  and  C_7
REMARK    6  A    between atoms: C_7  and  N_8
REMARK                            x       y       z     vdW  Elec       q    Type
REMARK                         _______ _______ _______ _____ _____    ______ ____
ROOT
ATOM      1  N   UNL     1      -9.290   6.329 130.814  0.00  0.00    +0.000 N 
ATOM      2  C   UNL     1      -7.954   6.689 130.983  0.00  0.00    +0.000 A 
ATOM      3  C   UNL     1      -6.972   5.881 131.406  0.00  0.00    +0.000 A 
ATOM      4  I   UNL     1      -5.027   6.496 131.497  0.00  0.00    +0.000 I 
ATOM      5  C   UNL     1      -7.344   4.480 131.777  0.00  0.00    +0.000 A 
ATOM      6  O   UNL     1      -6.501   3.680 132.182  0.00  0.00    +0.000 OA
ATOM      7  C   UNL     1      -8.794   4.104 131.642  0.00  0.00    +0.000 A 
ATOM      8  I   UNL     1      -9.378   2.209 132.163  0.00  0.00    +0.000 I 
ATOM      9  C   UNL     1      -9.649   5.031 131.170  0.00  0.00    +0.000 A 
ENDROOT
BRANCH   1  10
ATOM     10  C   UNL     1     -10.211   7.258 130.084  0.00  0.00    +0.000 C 
BRANCH  10  11
ATOM     11  C   UNL     1     -10.638   6.658 128.730  0.00  0.00    +0.000 C 
ATOM     12  O   UNL     1      -9.952   6.664 127.712  0.00  0.00    +0.000 OA
BRANCH  11  13
ATOM     13  O   UNL     1     -11.903   6.134 128.772  0.00  0.00    +0.000 OA
BRANCH  13  14
ATOM     14  C   UNL     1     -12.865   7.070 129.301  0.00  0.00    +0.000 C 
BRANCH  14  16
ATOM     15  C   UNL     1     -13.381   9.457 128.683  0.00  0.00    +0.000 C 
ATOM     16  C   UNL     1     -13.346   8.012 128.203  0.00  0.00    +0.000 C 
ENDBRANCH  14  16
ENDBRANCH  13  14
ENDBRANCH  11  13
ENDBRANCH  10  11
ENDBRANCH   1  10
TORSDOF 5
ENDMDL
MODEL 4
REMARK VINA RESULT:      -5.1      8.475      9.610
REMARK  Name = Propyliodone
REMARK  6 active torsions:
REMARK  status: ('A' for Active; 'I' for Inactive)
REMARK    1  A    between atoms: C_1  and  C_2
REMARK    2  A    between atoms: C_2  and  C_3
REMARK    3  A    between atoms: C_3  and  O_4
REMARK    4  A    between atoms: O_4  and  C_5
REMARK    5  A    between atoms: C_5  and  C_7
REMARK    6  A    between atoms: C_7  and  N_8
REMARK                            x       y       z     vdW  Elec       q    Type
REMARK                         _______ _______ _______ _____ _____    ______ ____
ROOT
ATOM      1  N   UNL     1     -10.232   4.645 130.734  0.00  0.00    +0.000 N 
ATOM      2  C   UNL     1      -9.116   5.458 130.927  0.00  0.00    +0.000 A 
ATOM      3  C   UNL     1      -7.887   5.038 131.257  0.00  0.00    +0.000 A 
ATOM      4  I   UNL     1      -6.304   6.320 131.393  0.00  0.00    +0.000 I 
ATOM      5  C   UNL     1      -7.699   3.572 131.487  0.00  0.00    +0.000 A 
ATOM      6  O   UNL     1      -6.602   3.108 131.802  0.00  0.00    +0.000 OA
ATOM      7  C   UNL     1      -8.912   2.698 131.327  0.00  0.00    +0.000 A 
ATOM      8  I   UNL     1      -8.733   0.682 131.658  0.00  0.00    +0.000 I 
ATOM      9  C   UNL     1     -10.070   3.279 130.960  0.00  0.00    +0.000 A 
ENDROOT
BRANCH   1  10
ATOM     10  C   UNL     1     -11.463   5.228 130.110  0.00  0.00    +0.000 C 
BRANCH  10  11
ATOM     11  C   UNL     1     -11.856   6.549 130.800  0.00  0.00    +0.000 C 
ATOM     12  O   UNL     1     -12.386   6.634 131.904  0.00  0.00    +0.000 OA
BRANCH  11  13
ATOM     13  O   UNL     1     -11.574   7.642 130.023  0.00  0.00    +0.000 OA
BRANCH  13  14
ATOM     14  C   UNL     1     -12.673   8.576 129.975  0.00  0.00    +0.000 C 
BRANCH  14  16
ATOM     15  C   UNL     1     -13.684   7.715 127.834  0.00  0.00    +0.000 C 
ATOM     16  C   UNL     1     -13.029   8.902 128.529  0.00  0.00    +0.000 C 
ENDBRANCH  14  16
ENDBRANCH  13  14
ENDBRANCH  11  13
ENDBRANCH  10  11
ENDBRANCH   1  10
TORSDOF 5
ENDMDL
MODEL 5
REMARK VINA RESULT:      -5.0      2.236      3.557
REMARK  Name = Propyliodone
REMARK  6 active torsions:
REMARK  status: ('A' for Active; 'I' for Inactive)
REMARK    1  A    between atoms: C_1  and  C_2
REMARK    2  A    between atoms: C_2  and  C_3
REMARK    3  A    between atoms: C_3  and  O_4
REMARK    4  A    between atoms: O_4  and  C_5
REMARK    5  A    between atoms: C_5  and  C_7
REMARK    6  A    between atoms: C_7  and  N_8
REMARK                            x       y       z     vdW  Elec       q    Type
REMARK                         _______ _______ _______ _____ _____    ______ ____
ROOT
ATOM      1  N   UNL     1      -7.681   1.062 124.215  0.00  0.00    +0.000 N 
ATOM      2  C   UNL     1      -7.340   1.719 123.034  0.00  0.00    +0.000 A 
ATOM      3  C   UNL     1      -6.563   2.806 122.937  0.00  0.00    +0.000 A 
ATOM      4  I   UNL     1      -6.037   3.606 121.133  0.00  0.00    +0.000 I 
ATOM      5  C   UNL     1      -6.051   3.403 124.209  0.00  0.00    +0.000 A 
ATOM      6  O   UNL     1      -5.339   4.407 124.206  0.00  0.00    +0.000 OA
ATOM      7  C   UNL     1      -6.457   2.725 125.489  0.00  0.00    +0.000 A 
ATOM      8  I   UNL     1      -5.818   3.509 127.273  0.00  0.00    +0.000 I 
ATOM      9  C   UNL     1      -7.221   1.619 125.407  0.00  0.00    +0.000 A 
ENDROOT
BRANCH   1  10
ATOM     10  C   UNL     1      -8.330  -0.286 124.142  0.00  0.00    +0.000 C 
BRANCH  10  11
ATOM     11  C   UNL     1      -7.439  -1.285 123.378  0.00  0.00    +0.000 C 
ATOM     12  O   UNL     1      -7.751  -1.845 122.331  0.00  0.00    +0.000 OA
BRANCH  11  13
ATOM     13  O   UNL     1      -6.250  -1.512 124.019  0.00  0.00    +0.000 OA
BRANCH  13  14
ATOM     14  C   UNL     1      -5.975  -2.920 124.177  0.00  0.00    +0.000 C 
BRANCH  14  16
ATOM     15  C   UNL     1      -4.355  -4.768 123.621  0.00  0.00    +0.000 C 
ATOM     16  C   UNL     1      -4.698  -3.296 123.432  0.00  0.00    +0.000 C 
ENDBRANCH  14  16
ENDBRANCH  13  14
ENDBRANCH  11  13
ENDBRANCH  10  11
ENDBRANCH   1  10
TORSDOF 5
ENDMDL
MODEL 6
REMARK VINA RESULT:      -4.9      8.408      9.759
REMARK  Name = Propyliodone
REMARK  6 active torsions:
REMARK  status: ('A' for Active; 'I' for Inactive)
REMARK    1  A    between atoms: C_1  and  C_2
REMARK    2  A    between atoms: C_2  and  C_3
REMARK    3  A    between atoms: C_3  and  O_4
REMARK    4  A    between atoms: O_4  and  C_5
REMARK    5  A    between atoms: C_5  and  C_7
REMARK    6  A    between atoms: C_7  and  N_8
REMARK                            x       y       z     vdW  Elec       q    Type
REMARK                         _______ _______ _______ _____ _____    ______ ____
ROOT
ATOM      1  N   UNL     1      -9.564   5.435 131.838  0.00  0.00    +0.000 N 
ATOM      2  C   UNL     1      -8.874   5.763 133.004  0.00  0.00    +0.000 A 
ATOM      3  C   UNL     1      -8.207   4.906 133.788  0.00  0.00    +0.000 A 
ATOM      4  I   UNL     1      -7.133   5.531 135.409  0.00  0.00    +0.000 I 
ATOM      5  C   UNL     1      -8.239   3.459 133.411  0.00  0.00    +0.000 A 
ATOM      6  O   UNL     1      -7.658   2.608 134.085  0.00  0.00    +0.000 OA
ATOM      7  C   UNL     1      -9.022   3.095 132.180  0.00  0.00    +0.000 A 
ATOM      8  I   UNL     1      -9.135   1.125 131.623  0.00  0.00    +0.000 I 
ATOM      9  C   UNL     1      -9.612   4.087 131.486  0.00  0.00    +0.000 A 
ENDROOT
BRANCH   1  10
ATOM     10  C   UNL     1     -10.031   6.531 130.931  0.00  0.00    +0.000 C 
BRANCH  10  11
ATOM     11  C   UNL     1     -10.252   6.004 129.500  0.00  0.00    +0.000 C 
ATOM     12  O   UNL     1      -9.369   5.864 128.659  0.00  0.00    +0.000 OA
BRANCH  11  13
ATOM     13  O   UNL     1     -11.571   5.733 129.247  0.00  0.00    +0.000 OA
BRANCH  13  14
ATOM     14  C   UNL     1     -12.443   6.792 129.696  0.00  0.00    +0.000 C 
BRANCH  14  16
ATOM     15  C   UNL     1     -12.922   7.110 127.244  0.00  0.00    +0.000 C 
ATOM     16  C   UNL     1     -13.512   7.079 128.647  0.00  0.00    +0.000 C 
ENDBRANCH  14  16
ENDBRANCH  13  14
ENDBRANCH  11  13
ENDBRANCH  10  11
ENDBRANCH   1  10
TORSDOF 5
ENDMDL
MODEL 7
REMARK VINA RESULT:      -4.9      7.813      9.629
REMARK  Name = Propyliodone
REMARK  6 active torsions:
REMARK  status: ('A' for Active; 'I' for Inactive)
REMARK    1  A    between atoms: C_1  and  C_2
REMARK    2  A    between atoms: C_2  and  C_3
REMARK    3  A    between atoms: C_3  and  O_4
REMARK    4  A    between atoms: O_4  and  C_5
REMARK    5  A    between atoms: C_5  and  C_7
REMARK    6  A    between atoms: C_7  and  N_8
REMARK                            x       y       z     vdW  Elec       q    Type
REMARK                         _______ _______ _______ _____ _____    ______ ____
ROOT
ATOM      1  N   UNL     1     -10.082   5.125 130.755  0.00  0.00    +0.000 N 
ATOM      2  C   UNL     1      -9.150   4.794 129.773  0.00  0.00    +0.000 A 
ATOM      3  C   UNL     1      -7.900   4.365 129.990  0.00  0.00    +0.000 A 
ATOM      4  I   UNL     1      -6.668   3.796 128.464  0.00  0.00    +0.000 I 
ATOM      5  C   UNL     1      -7.439   4.275 131.411  0.00  0.00    +0.000 A 
ATOM      6  O   UNL     1      -6.302   3.898 131.694  0.00  0.00    +0.000 OA
ATOM      7  C   UNL     1      -8.427   4.677 132.472  0.00  0.00    +0.000 A 
ATOM      8  I   UNL     1      -7.852   4.609 134.439  0.00  0.00    +0.000 I 
ATOM      9  C   UNL     1      -9.659   5.058 132.081  0.00  0.00    +0.000 A 
ENDROOT
BRANCH   1  10
ATOM     10  C   UNL     1     -11.514   5.329 130.366  0.00  0.00    +0.000 C 
BRANCH  10  11
ATOM     11  C   UNL     1     -12.015   6.715 130.819  0.00  0.00    +0.000 C 
ATOM     12  O   UNL     1     -12.916   6.904 131.630  0.00  0.00    +0.000 OA
BRANCH  11  13
ATOM     13  O   UNL     1     -11.357   7.735 130.184  0.00  0.00    +0.000 OA
BRANCH  13  14
ATOM     14  C   UNL     1     -12.258   8.603 129.466  0.00  0.00    +0.000 C 
BRANCH  14  16
ATOM     15  C   UNL     1     -10.878   8.148 127.408  0.00  0.00    +0.000 C 
ATOM     16  C   UNL     1     -12.284   8.231 127.987  0.00  0.00    +0.000 C 
ENDBRANCH  14  16
ENDBRANCH  13  14
ENDBRANCH  11  13
ENDBRANCH  10  11
ENDBRANCH   1  10
TORSDOF 5
ENDMDL
MODEL 8
REMARK VINA RESULT:      -4.9      7.740      9.145
REMARK  Name = Propyliodone
REMARK  6 active torsions:
REMARK  status: ('A' for Active; 'I' for Inactive)
REMARK    1  A    between atoms: C_1  and  C_2
REMARK    2  A    between atoms: C_2  and  C_3
REMARK    3  A    between atoms: C_3  and  O_4
REMARK    4  A    between atoms: O_4  and  C_5
REMARK    5  A    between atoms: C_5  and  C_7
REMARK    6  A    between atoms: C_7  and  N_8
REMARK                            x       y       z     vdW  Elec       q    Type
REMARK                         _______ _______ _______ _____ _____    ______ ____
ROOT
ATOM      1  N   UNL     1      -9.954   4.641 130.714  0.00  0.00    +0.000 N 
ATOM      2  C   UNL     1      -9.563   4.650 132.052  0.00  0.00    +0.000 A 
ATOM      3  C   UNL     1      -8.308   4.527 132.504  0.00  0.00    +0.000 A 
ATOM      4  I   UNL     1      -7.850   4.678 134.488  0.00  0.00    +0.000 I 
ATOM      5  C   UNL     1      -7.229   4.313 131.490  0.00  0.00    +0.000 A 
ATOM      6  O   UNL     1      -6.051   4.182 131.825  0.00  0.00    +0.000 OA
ATOM      7  C   UNL     1      -7.653   4.254 130.048  0.00  0.00    +0.000 A 
ATOM      8  I   UNL     1      -6.230   3.931 128.608  0.00  0.00    +0.000 I 
ATOM      9  C   UNL     1      -8.958   4.428 129.763  0.00  0.00    +0.000 A 
ENDROOT
BRANCH   1  10
ATOM     10  C   UNL     1     -11.348   5.056 130.356  0.00  0.00    +0.000 C 
BRANCH  10  11
ATOM     11  C   UNL     1     -11.666   6.457 130.914  0.00  0.00    +0.000 C 
ATOM     12  O   UNL     1     -12.514   6.696 131.769  0.00  0.00    +0.000 OA
BRANCH  11  13
ATOM     13  O   UNL     1     -10.909   7.433 130.322  0.00  0.00    +0.000 OA
BRANCH  13  14
ATOM     14  C   UNL     1     -11.579   8.034 129.194  0.00  0.00    +0.000 C 
BRANCH  14  16
ATOM     15  C   UNL     1     -10.967   7.813 126.760  0.00  0.00    +0.000 C 
ATOM     16  C   UNL     1     -10.569   8.395 128.109  0.00  0.00    +0.000 C 
ENDBRANCH  14  16
ENDBRANCH  13  14
ENDBRANCH  11  13
ENDBRANCH  10  11
ENDBRANCH   1  10
TORSDOF 5
ENDMDL
MODEL 9
REMARK VINA RESULT:      -4.7      3.282      5.431
REMARK  Name = Propyliodone
REMARK  6 active torsions:
REMARK  status: ('A' for Active; 'I' for Inactive)
REMARK    1  A    between atoms: C_1  and  C_2
REMARK    2  A    between atoms: C_2  and  C_3
REMARK    3  A    between atoms: C_3  and  O_4
REMARK    4  A    between atoms: O_4  and  C_5
REMARK    5  A    between atoms: C_5  and  C_7
REMARK    6  A    between atoms: C_7  and  N_8
REMARK                            x       y       z     vdW  Elec       q    Type
REMARK                         _______ _______ _______ _____ _____    ______ ____
ROOT
ATOM      1  N   UNL     1      -8.860   1.173 125.311  0.00  0.00    +0.000 N 
ATOM      2  C   UNL     1      -8.407   1.065 126.625  0.00  0.00    +0.000 A 
ATOM      3  C   UNL     1      -8.074  -0.073 127.249  0.00  0.00    +0.000 A 
ATOM      4  I   UNL     1      -7.307  -0.087 129.142  0.00  0.00    +0.000 I 
ATOM      5  C   UNL     1      -8.244  -1.351 126.490  0.00  0.00    +0.000 A 
ATOM      6  O   UNL     1      -7.968  -2.439 126.996  0.00  0.00    +0.000 OA
ATOM      7  C   UNL     1      -8.778  -1.242 125.088  0.00  0.00    +0.000 A 
ATOM      8  I   UNL     1      -9.068  -2.956 124.002  0.00  0.00    +0.000 I 
ATOM      9  C   UNL     1      -9.036  -0.013 124.600  0.00  0.00    +0.000 A 
ENDROOT
BRANCH   1  10
ATOM     10  C   UNL     1      -8.935   2.525 124.672  0.00  0.00    +0.000 C 
BRANCH  10  11
ATOM     11  C   UNL     1      -8.442   2.472 123.213  0.00  0.00    +0.000 C 
ATOM     12  O   UNL     1      -9.169   2.513 122.225  0.00  0.00    +0.000 OA
BRANCH  11  13
ATOM     13  O   UNL     1      -7.081   2.339 123.131  0.00  0.00    +0.000 OA
BRANCH  13  14
ATOM     14  C   UNL     1      -6.412   3.615 123.045  0.00  0.00    +0.000 C 
BRANCH  14  16
ATOM     15  C   UNL     1      -4.639   4.723 121.639  0.00  0.00    +0.000 C 
ATOM     16  C   UNL     1      -5.880   3.839 121.633  0.00  0.00    +0.000 C 
ENDBRANCH  14  16
ENDBRANCH  13  14
ENDBRANCH  11  13
ENDBRANCH  10  11
ENDBRANCH   1  10
TORSDOF 5
ENDMDL
