MODEL 1
REMARK VINA RESULT:      -3.8      0.000      0.000
REMARK  Name = Propanoic acid
REMARK  3 active torsions:
REMARK  status: ('A' for Active; 'I' for Inactive)
REMARK    1  A    between atoms: C_1  and  C_2
REMARK    2  A    between atoms: C_2  and  C_3
REMARK    3  A    between atoms: C_3  and  O_4
REMARK                            x       y       z     vdW  Elec       q    Type
REMARK                         _______ _______ _______ _____ _____    ______ ____
ROOT
ATOM      1  C   UNL     1      -5.470   5.498 119.559  0.00  0.00    +0.000 C 
ATOM      2  O   UNL     1      -4.728   6.143 120.292  0.00  0.00    +0.000 OA
ENDROOT
BRANCH   1   4
ATOM      3  C   UNL     1      -5.445   3.351 120.967  0.00  0.00    +0.000 C 
ATOM      4  C   UNL     1      -6.219   4.280 120.052  0.00  0.00    +0.000 C 
ENDBRANCH   1   4
BRANCH   1   5
ATOM      5  O   UNL     1      -5.648   5.853 118.272  0.00  0.00    +0.000 OA
ATOM      6  H   UNL     1      -4.997   6.464 117.881  0.00  0.00    +0.000 HD
ENDBRANCH   1   5
TORSDOF 2
ENDMDL
MODEL 2
REMARK VINA RESULT:      -3.4      9.554      9.846
REMARK  Name = Propanoic acid
REMARK  3 active torsions:
REMARK  status: ('A' for Active; 'I' for Inactive)
REMARK    1  A    between atoms: C_1  and  C_2
REMARK    2  A    between atoms: C_2  and  C_3
REMARK    3  A    between atoms: C_3  and  O_4
REMARK                            x       y       z     vdW  Elec       q    Type
REMARK                         _______ _______ _______ _____ _____    ______ ____
ROOT
ATOM      1  C   UNL     1     -11.208   7.603 126.425  0.00  0.00    +0.000 C 
ATOM      2  O   UNL     1     -10.771   8.038 125.365  0.00  0.00    +0.000 OA
ENDROOT
BRANCH   1   4
ATOM      3  C   UNL     1     -12.008   8.691 128.609  0.00  0.00    +0.000 C 
ATOM      4  C   UNL     1     -10.845   8.226 127.755  0.00  0.00    +0.000 C 
ENDBRANCH   1   4
BRANCH   1   5
ATOM      5  O   UNL     1     -12.038   6.543 126.446  0.00  0.00    +0.000 OA
ATOM      6  H   UNL     1     -12.675   6.457 125.714  0.00  0.00    +0.000 HD
ENDBRANCH   1   5
TORSDOF 2
ENDMDL
MODEL 3
REMARK VINA RESULT:      -3.3      9.451      9.757
REMARK  Name = Propanoic acid
REMARK  3 active torsions:
REMARK  status: ('A' for Active; 'I' for Inactive)
REMARK    1  A    between atoms: C_1  and  C_2
REMARK    2  A    between atoms: C_2  and  C_3
REMARK    3  A    between atoms: C_3  and  O_4
REMARK                            x       y       z     vdW  Elec       q    Type
REMARK                         _______ _______ _______ _____ _____    ______ ____
ROOT
ATOM      1  C   UNL     1     -10.719   7.093 126.876  0.00  0.00    +0.000 C 
ATOM      2  O   UNL     1      -9.703   6.409 126.820  0.00  0.00    +0.000 OA
ENDROOT
BRANCH   1   4
ATOM      3  C   UNL     1     -12.164   8.633 128.336  0.00  0.00    +0.000 C 
ATOM      4  C   UNL     1     -10.802   8.330 127.741  0.00  0.00    +0.000 C 
ENDBRANCH   1   4
BRANCH   1   5
ATOM      5  O   UNL     1     -11.811   6.765 126.160  0.00  0.00    +0.000 OA
ATOM      6  H   UNL     1     -12.429   7.482 125.931  0.00  0.00    +0.000 HD
ENDBRANCH   1   5
TORSDOF 2
ENDMDL
MODEL 4
REMARK VINA RESULT:      -3.2     10.285     10.592
REMARK  Name = Propanoic acid
REMARK  3 active torsions:
REMARK  status: ('A' for Active; 'I' for Inactive)
REMARK    1  A    between atoms: C_1  and  C_2
REMARK    2  A    between atoms: C_2  and  C_3
REMARK    3  A    between atoms: C_3  and  O_4
REMARK                            x       y       z     vdW  Elec       q    Type
REMARK                         _______ _______ _______ _____ _____    ______ ____
ROOT
ATOM      1  C   UNL     1     -11.729   7.637 127.080  0.00  0.00    +0.000 C 
ATOM      2  O   UNL     1     -10.795   8.427 127.159  0.00  0.00    +0.000 OA
ENDROOT
BRANCH   1   4
ATOM      3  C   UNL     1     -13.129   9.117 128.643  0.00  0.00    +0.000 C 
ATOM      4  C   UNL     1     -12.985   7.799 127.907  0.00  0.00    +0.000 C 
ENDBRANCH   1   4
BRANCH   1   5
ATOM      5  O   UNL     1     -11.672   6.582 126.245  0.00  0.00    +0.000 OA
ATOM      6  H   UNL     1     -12.129   5.767 126.519  0.00  0.00    +0.000 HD
ENDBRANCH   1   5
TORSDOF 2
ENDMDL
MODEL 5
REMARK VINA RESULT:      -2.9     12.381     12.860
REMARK  Name = Propanoic acid
REMARK  3 active torsions:
REMARK  status: ('A' for Active; 'I' for Inactive)
REMARK    1  A    between atoms: C_1  and  C_2
REMARK    2  A    between atoms: C_2  and  C_3
REMARK    3  A    between atoms: C_3  and  O_4
REMARK                            x       y       z     vdW  Elec       q    Type
REMARK                         _______ _______ _______ _____ _____    ______ ____
ROOT
ATOM      1  C   UNL     1     -12.215   6.511 130.502  0.00  0.00    +0.000 C 
ATOM      2  O   UNL     1     -11.976   5.780 129.547  0.00  0.00    +0.000 OA
ENDROOT
BRANCH   1   4
ATOM      3  C   UNL     1     -12.187   8.621 129.037  0.00  0.00    +0.000 C 
ATOM      4  C   UNL     1     -12.643   7.950 130.319  0.00  0.00    +0.000 C 
ENDBRANCH   1   4
BRANCH   1   5
ATOM      5  O   UNL     1     -12.103   6.056 131.764  0.00  0.00    +0.000 OA
ATOM      6  H   UNL     1     -12.636   5.279 132.010  0.00  0.00    +0.000 HD
ENDBRANCH   1   5
TORSDOF 2
ENDMDL
MODEL 6
REMARK VINA RESULT:      -2.9     18.046     18.540
REMARK  Name = Propanoic acid
REMARK  3 active torsions:
REMARK  status: ('A' for Active; 'I' for Inactive)
REMARK    1  A    between atoms: C_1  and  C_2
REMARK    2  A    between atoms: C_2  and  C_3
REMARK    3  A    between atoms: C_3  and  O_4
REMARK                            x       y       z     vdW  Elec       q    Type
REMARK                         _______ _______ _______ _____ _____    ______ ____
ROOT
ATOM      1  C   UNL     1      -9.792   8.811 137.521  0.00  0.00    +0.000 C 
ATOM      2  O   UNL     1     -10.460   9.347 138.398  0.00  0.00    +0.000 OA
ENDROOT
BRANCH   1   4
ATOM      3  C   UNL     1      -8.321   6.743 137.911  0.00  0.00    +0.000 C 
ATOM      4  C   UNL     1      -8.413   8.252 137.796  0.00  0.00    +0.000 C 
ENDBRANCH   1   4
BRANCH   1   5
ATOM      5  O   UNL     1     -10.265   8.698 136.265  0.00  0.00    +0.000 OA
ATOM      6  H   UNL     1      -9.918   9.316 135.598  0.00  0.00    +0.000 HD
ENDBRANCH   1   5
TORSDOF 2
ENDMDL
MODEL 7
REMARK VINA RESULT:      -2.9      9.565     10.192
REMARK  Name = Propanoic acid
REMARK  3 active torsions:
REMARK  status: ('A' for Active; 'I' for Inactive)
REMARK    1  A    between atoms: C_1  and  C_2
REMARK    2  A    between atoms: C_2  and  C_3
REMARK    3  A    between atoms: C_3  and  O_4
REMARK                            x       y       z     vdW  Elec       q    Type
REMARK                         _______ _______ _______ _____ _____    ______ ____
ROOT
ATOM      1  C   UNL     1      -9.335  -2.872 124.132  0.00  0.00    +0.000 C 
ATOM      2  O   UNL     1      -9.310  -1.647 124.089  0.00  0.00    +0.000 OA
ENDROOT
BRANCH   1   4
ATOM      3  C   UNL     1      -8.709  -3.553 126.528  0.00  0.00    +0.000 C 
ATOM      4  C   UNL     1      -8.419  -3.658 125.043  0.00  0.00    +0.000 C 
ENDBRANCH   1   4
BRANCH   1   5
ATOM      5  O   UNL     1     -10.189  -3.572 123.362  0.00  0.00    +0.000 OA
ATOM      6  H   UNL     1     -11.037  -3.151 123.134  0.00  0.00    +0.000 HD
ENDBRANCH   1   5
TORSDOF 2
ENDMDL
MODEL 8
REMARK VINA RESULT:      -2.9     10.585     10.946
REMARK  Name = Propanoic acid
REMARK  3 active torsions:
REMARK  status: ('A' for Active; 'I' for Inactive)
REMARK    1  A    between atoms: C_1  and  C_2
REMARK    2  A    between atoms: C_2  and  C_3
REMARK    3  A    between atoms: C_3  and  O_4
REMARK                            x       y       z     vdW  Elec       q    Type
REMARK                         _______ _______ _______ _____ _____    ______ ____
ROOT
ATOM      1  C   UNL     1     -12.502   7.002 127.702  0.00  0.00    +0.000 C 
ATOM      2  O   UNL     1     -12.641   6.676 126.528  0.00  0.00    +0.000 OA
ENDROOT
BRANCH   1   4
ATOM      3  C   UNL     1     -10.511   8.558 128.158  0.00  0.00    +0.000 C 
ATOM      4  C   UNL     1     -12.016   8.378 128.097  0.00  0.00    +0.000 C 
ENDBRANCH   1   4
BRANCH   1   5
ATOM      5  O   UNL     1     -12.780   6.137 128.696  0.00  0.00    +0.000 OA
ATOM      6  H   UNL     1     -12.937   5.207 128.452  0.00  0.00    +0.000 HD
ENDBRANCH   1   5
TORSDOF 2
ENDMDL
MODEL 9
REMARK VINA RESULT:      -2.9     11.910     12.208
REMARK  Name = Propanoic acid
REMARK  3 active torsions:
REMARK  status: ('A' for Active; 'I' for Inactive)
REMARK    1  A    between atoms: C_1  and  C_2
REMARK    2  A    between atoms: C_2  and  C_3
REMARK    3  A    between atoms: C_3  and  O_4
REMARK                            x       y       z     vdW  Elec       q    Type
REMARK                         _______ _______ _______ _____ _____    ______ ____
ROOT
ATOM      1  C   UNL     1     -12.258   8.766 128.728  0.00  0.00    +0.000 C 
ATOM      2  O   UNL     1     -11.233   8.646 128.067  0.00  0.00    +0.000 OA
ENDROOT
BRANCH   1   4
ATOM      3  C   UNL     1     -12.794   7.553 130.927  0.00  0.00    +0.000 C 
ATOM      4  C   UNL     1     -12.907   7.585 129.415  0.00  0.00    +0.000 C 
ENDBRANCH   1   4
BRANCH   1   5
ATOM      5  O   UNL     1     -12.853   9.966 128.870  0.00  0.00    +0.000 OA
ATOM      6  H   UNL     1     -13.719  10.090 128.443  0.00  0.00    +0.000 HD
ENDBRANCH   1   5
TORSDOF 2
ENDMDL
