MODEL 1
REMARK VINA RESULT:      -5.9      0.000      0.000
REMARK  Name = Proparacaine
REMARK  14 active torsions:
REMARK  status: ('A' for Active; 'I' for Inactive)
REMARK    1  A    between atoms: C_1  and  C_2
REMARK    2  A    between atoms: C_2  and  C_3
REMARK    3  A    between atoms: C_3  and  O_4
REMARK    4  A    between atoms: O_4  and  C_5
REMARK    5  A    between atoms: C_6  and  N_7
REMARK    6  A    between atoms: C_9  and  C_12
REMARK    7  A    between atoms: C_12  and  O_14
REMARK    8  A    between atoms: O_14  and  C_15
REMARK    9  A    between atoms: C_15  and  C_16
REMARK   10  A    between atoms: C_16  and  N_17
REMARK   11  A    between atoms: N_17  and  C_18
REMARK   12  A    between atoms: N_17  and  C_20
REMARK   13  A    between atoms: C_18  and  C_19
REMARK   14  A    between atoms: C_20  and  C_21
REMARK                            x       y       z     vdW  Elec       q    Type
REMARK                         _______ _______ _______ _____ _____    ______ ____
ROOT
ATOM      1  C   UNL     1     -12.303   7.892 129.501  0.00  0.00    +0.000 A 
ATOM      2  C   UNL     1     -10.955   7.978 129.099  0.00  0.00    +0.000 A 
ATOM      3  C   UNL     1      -9.973   7.395 129.923  0.00  0.00    +0.000 A 
ATOM      4  C   UNL     1     -10.301   6.773 131.139  0.00  0.00    +0.000 A 
ATOM      5  C   UNL     1     -11.630   6.741 131.552  0.00  0.00    +0.000 A 
ATOM      6  C   UNL     1     -12.620   7.298 130.738  0.00  0.00    +0.000 A 
ENDROOT
BRANCH   2   7
ATOM      7  N   UNL     1     -10.547   8.441 127.838  0.00  0.00    +0.000 N 
ATOM      8  H   UNL     1      -9.837   9.161 127.867  0.00  0.00    +0.000 HD
ATOM      9  H   UNL     1     -10.320   7.729 127.153  0.00  0.00    +0.000 HD
ENDBRANCH   2   7
BRANCH   4  10
ATOM     10  C   UNL     1      -9.215   6.163 131.947  0.00  0.00    +0.000 C 
ATOM     11  O   UNL     1      -9.252   6.119 133.162  0.00  0.00    +0.000 OA
BRANCH  10  12
ATOM     12  O   UNL     1      -8.212   5.660 131.148  0.00  0.00    +0.000 OA
BRANCH  12  13
ATOM     13  C   UNL     1      -6.930   5.956 131.712  0.00  0.00    +0.000 C 
BRANCH  13  14
ATOM     14  C   UNL     1      -6.106   7.040 130.993  0.00  0.00    +0.000 C 
BRANCH  14  15
ATOM     15  N   UNL     1      -4.679   6.676 130.733  0.00  0.00    +0.000 NA
BRANCH  15  16
ATOM     16  C   UNL     1      -3.799   6.818 131.917  0.00  0.00    +0.000 C 
ATOM     17  C   UNL     1      -2.897   8.044 131.981  0.00  0.00    +0.000 C 
ENDBRANCH  15  16
BRANCH  15  18
ATOM     18  C   UNL     1      -4.617   5.276 130.231  0.00  0.00    +0.000 C 
ATOM     19  C   UNL     1      -3.275   4.584 130.486  0.00  0.00    +0.000 C 
ENDBRANCH  15  18
ENDBRANCH  14  15
ENDBRANCH  13  14
ENDBRANCH  12  13
ENDBRANCH  10  12
ENDBRANCH   4  10
BRANCH   1  20
ATOM     20  O   UNL     1     -13.381   8.462 128.863  0.00  0.00    +0.000 OA
BRANCH  20  21
ATOM     21  C   UNL     1     -13.392   9.882 128.719  0.00  0.00    +0.000 C 
BRANCH  21  23
ATOM     22  C   UNL     1     -13.803  11.993 129.996  0.00  0.00    +0.000 C 
ATOM     23  C   UNL     1     -13.401  10.529 130.102  0.00  0.00    +0.000 C 
ENDBRANCH  21  23
ENDBRANCH  20  21
ENDBRANCH   1  20
TORSDOF 11
ENDMDL
MODEL 2
REMARK VINA RESULT:      -5.9     10.383     12.482
REMARK  Name = Proparacaine
REMARK  14 active torsions:
REMARK  status: ('A' for Active; 'I' for Inactive)
REMARK    1  A    between atoms: C_1  and  C_2
REMARK    2  A    between atoms: C_2  and  C_3
REMARK    3  A    between atoms: C_3  and  O_4
REMARK    4  A    between atoms: O_4  and  C_5
REMARK    5  A    between atoms: C_6  and  N_7
REMARK    6  A    between atoms: C_9  and  C_12
REMARK    7  A    between atoms: C_12  and  O_14
REMARK    8  A    between atoms: O_14  and  C_15
REMARK    9  A    between atoms: C_15  and  C_16
REMARK   10  A    between atoms: C_16  and  N_17
REMARK   11  A    between atoms: N_17  and  C_18
REMARK   12  A    between atoms: N_17  and  C_20
REMARK   13  A    between atoms: C_18  and  C_19
REMARK   14  A    between atoms: C_20  and  C_21
REMARK                            x       y       z     vdW  Elec       q    Type
REMARK                         _______ _______ _______ _____ _____    ______ ____
ROOT
ATOM      1  C   UNL     1      -6.518  -2.958 129.219  0.00  0.00    +0.000 A 
ATOM      2  C   UNL     1      -6.087  -2.220 128.098  0.00  0.00    +0.000 A 
ATOM      3  C   UNL     1      -6.954  -2.113 126.994  0.00  0.00    +0.000 A 
ATOM      4  C   UNL     1      -8.206  -2.750 126.973  0.00  0.00    +0.000 A 
ATOM      5  C   UNL     1      -8.599  -3.521 128.063  0.00  0.00    +0.000 A 
ATOM      6  C   UNL     1      -7.759  -3.623 129.175  0.00  0.00    +0.000 A 
ENDROOT
BRANCH   2   7
ATOM      7  N   UNL     1      -4.927  -1.428 128.087  0.00  0.00    +0.000 N 
ATOM      8  H   UNL     1      -4.187  -1.780 127.493  0.00  0.00    +0.000 HD
ATOM      9  H   UNL     1      -5.067  -0.434 127.949  0.00  0.00    +0.000 HD
ENDBRANCH   2   7
BRANCH   4  10
ATOM     10  C   UNL     1      -9.076  -2.577 125.781  0.00  0.00    +0.000 C 
ATOM     11  O   UNL     1      -9.899  -1.686 125.700  0.00  0.00    +0.000 OA
BRANCH  10  12
ATOM     12  O   UNL     1      -8.808  -3.524 124.818  0.00  0.00    +0.000 OA
BRANCH  12  13
ATOM     13  C   UNL     1      -9.282  -3.083 123.541  0.00  0.00    +0.000 C 
BRANCH  13  14
ATOM     14  C   UNL     1      -8.271  -2.315 122.670  0.00  0.00    +0.000 C 
BRANCH  14  15
ATOM     15  N   UNL     1      -7.112  -1.734 123.415  0.00  0.00    +0.000 NA
BRANCH  15  16
ATOM     16  C   UNL     1      -5.802  -2.312 123.034  0.00  0.00    +0.000 C 
ATOM     17  C   UNL     1      -5.251  -3.437 123.901  0.00  0.00    +0.000 C 
ENDBRANCH  15  16
BRANCH  15  18
ATOM     18  C   UNL     1      -7.088  -0.260 123.204  0.00  0.00    +0.000 C 
ATOM     19  C   UNL     1      -6.826   0.546 124.480  0.00  0.00    +0.000 C 
ENDBRANCH  15  18
ENDBRANCH  14  15
ENDBRANCH  13  14
ENDBRANCH  12  13
ENDBRANCH  10  12
ENDBRANCH   4  10
BRANCH   1  20
ATOM     20  O   UNL     1      -5.780  -3.227 130.350  0.00  0.00    +0.000 OA
BRANCH  20  21
ATOM     21  C   UNL     1      -6.296  -2.778 131.602  0.00  0.00    +0.000 C 
BRANCH  21  23
ATOM     22  C   UNL     1      -5.365  -5.051 132.078  0.00  0.00    +0.000 C 
ATOM     23  C   UNL     1      -6.237  -3.923 132.612  0.00  0.00    +0.000 C 
ENDBRANCH  21  23
ENDBRANCH  20  21
ENDBRANCH   1  20
TORSDOF 11
ENDMDL
MODEL 3
REMARK VINA RESULT:      -5.8      2.609      3.250
REMARK  Name = Proparacaine
REMARK  14 active torsions:
REMARK  status: ('A' for Active; 'I' for Inactive)
REMARK    1  A    between atoms: C_1  and  C_2
REMARK    2  A    between atoms: C_2  and  C_3
REMARK    3  A    between atoms: C_3  and  O_4
REMARK    4  A    between atoms: O_4  and  C_5
REMARK    5  A    between atoms: C_6  and  N_7
REMARK    6  A    between atoms: C_9  and  C_12
REMARK    7  A    between atoms: C_12  and  O_14
REMARK    8  A    between atoms: O_14  and  C_15
REMARK    9  A    between atoms: C_15  and  C_16
REMARK   10  A    between atoms: C_16  and  N_17
REMARK   11  A    between atoms: N_17  and  C_18
REMARK   12  A    between atoms: N_17  and  C_20
REMARK   13  A    between atoms: C_18  and  C_19
REMARK   14  A    between atoms: C_20  and  C_21
REMARK                            x       y       z     vdW  Elec       q    Type
REMARK                         _______ _______ _______ _____ _____    ______ ____
ROOT
ATOM      1  C   UNL     1     -11.086   5.888 129.875  0.00  0.00    +0.000 A 
ATOM      2  C   UNL     1     -10.437   4.820 130.528  0.00  0.00    +0.000 A 
ATOM      3  C   UNL     1      -9.165   5.052 131.086  0.00  0.00    +0.000 A 
ATOM      4  C   UNL     1      -8.523   6.295 130.972  0.00  0.00    +0.000 A 
ATOM      5  C   UNL     1      -9.149   7.326 130.278  0.00  0.00    +0.000 A 
ATOM      6  C   UNL     1     -10.420   7.120 129.734  0.00  0.00    +0.000 A 
ENDROOT
BRANCH   2   7
ATOM      7  N   UNL     1     -11.058   3.596 130.823  0.00  0.00    +0.000 N 
ATOM      8  H   UNL     1     -11.149   2.972 130.031  0.00  0.00    +0.000 HD
ATOM      9  H   UNL     1     -10.711   3.104 131.639  0.00  0.00    +0.000 HD
ENDBRANCH   2   7
BRANCH   4  10
ATOM     10  C   UNL     1      -7.189   6.472 131.602  0.00  0.00    +0.000 C 
ATOM     11  O   UNL     1      -6.954   6.114 132.740  0.00  0.00    +0.000 OA
BRANCH  10  12
ATOM     12  O   UNL     1      -6.294   7.057 130.735  0.00  0.00    +0.000 OA
BRANCH  12  13
ATOM     13  C   UNL     1      -5.162   6.204 130.537  0.00  0.00    +0.000 C 
BRANCH  13  14
ATOM     14  C   UNL     1      -5.282   5.170 129.401  0.00  0.00    +0.000 C 
BRANCH  14  15
ATOM     15  N   UNL     1      -4.384   5.416 128.231  0.00  0.00    +0.000 NA
BRANCH  15  16
ATOM     16  C   UNL     1      -3.760   6.760 128.224  0.00  0.00    +0.000 C 
ATOM     17  C   UNL     1      -2.239   6.830 128.239  0.00  0.00    +0.000 C 
ENDBRANCH  15  16
BRANCH  15  18
ATOM     18  C   UNL     1      -3.322   4.372 128.205  0.00  0.00    +0.000 C 
ATOM     19  C   UNL     1      -3.793   2.997 128.688  0.00  0.00    +0.000 C 
ENDBRANCH  15  18
ENDBRANCH  14  15
ENDBRANCH  13  14
ENDBRANCH  12  13
ENDBRANCH  10  12
ENDBRANCH   4  10
BRANCH   1  20
ATOM     20  O   UNL     1     -12.291   5.826 129.214  0.00  0.00    +0.000 OA
BRANCH  20  21
ATOM     21  C   UNL     1     -13.116   6.990 129.227  0.00  0.00    +0.000 C 
BRANCH  21  23
ATOM     22  C   UNL     1     -12.688   7.073 126.763  0.00  0.00    +0.000 C 
ATOM     23  C   UNL     1     -13.750   7.175 127.849  0.00  0.00    +0.000 C 
ENDBRANCH  21  23
ENDBRANCH  20  21
ENDBRANCH   1  20
TORSDOF 11
ENDMDL
MODEL 4
REMARK VINA RESULT:      -5.8      9.486     12.149
REMARK  Name = Proparacaine
REMARK  14 active torsions:
REMARK  status: ('A' for Active; 'I' for Inactive)
REMARK    1  A    between atoms: C_1  and  C_2
REMARK    2  A    between atoms: C_2  and  C_3
REMARK    3  A    between atoms: C_3  and  O_4
REMARK    4  A    between atoms: O_4  and  C_5
REMARK    5  A    between atoms: C_6  and  N_7
REMARK    6  A    between atoms: C_9  and  C_12
REMARK    7  A    between atoms: C_12  and  O_14
REMARK    8  A    between atoms: O_14  and  C_15
REMARK    9  A    between atoms: C_15  and  C_16
REMARK   10  A    between atoms: C_16  and  N_17
REMARK   11  A    between atoms: N_17  and  C_18
REMARK   12  A    between atoms: N_17  and  C_20
REMARK   13  A    between atoms: C_18  and  C_19
REMARK   14  A    between atoms: C_20  and  C_21
REMARK                            x       y       z     vdW  Elec       q    Type
REMARK                         _______ _______ _______ _____ _____    ______ ____
ROOT
ATOM      1  C   UNL     1      -6.407  -2.368 128.395  0.00  0.00    +0.000 A 
ATOM      2  C   UNL     1      -5.960  -1.113 127.936  0.00  0.00    +0.000 A 
ATOM      3  C   UNL     1      -6.789  -0.387 127.059  0.00  0.00    +0.000 A 
ATOM      4  C   UNL     1      -8.016  -0.900 126.608  0.00  0.00    +0.000 A 
ATOM      5  C   UNL     1      -8.423  -2.163 127.025  0.00  0.00    +0.000 A 
ATOM      6  C   UNL     1      -7.622  -2.890 127.910  0.00  0.00    +0.000 A 
ENDROOT
BRANCH   2   7
ATOM      7  N   UNL     1      -4.828  -0.456 128.446  0.00  0.00    +0.000 N 
ATOM      8  H   UNL     1      -5.035   0.374 128.986  0.00  0.00    +0.000 HD
ATOM      9  H   UNL     1      -4.147  -1.041 128.918  0.00  0.00    +0.000 HD
ENDBRANCH   2   7
BRANCH   4  10
ATOM     10  C   UNL     1      -8.847  -0.069 125.698  0.00  0.00    +0.000 C 
ATOM     11  O   UNL     1     -10.061  -0.143 125.676  0.00  0.00    +0.000 OA
BRANCH  10  12
ATOM     12  O   UNL     1      -8.071   0.772 124.933  0.00  0.00    +0.000 OA
BRANCH  12  13
ATOM     13  C   UNL     1      -8.030   0.316 123.577  0.00  0.00    +0.000 C 
BRANCH  13  14
ATOM     14  C   UNL     1      -6.862  -0.618 123.210  0.00  0.00    +0.000 C 
BRANCH  14  15
ATOM     15  N   UNL     1      -7.260  -2.021 122.875  0.00  0.00    +0.000 NA
BRANCH  15  16
ATOM     16  C   UNL     1      -6.788  -3.028 123.854  0.00  0.00    +0.000 C 
ATOM     17  C   UNL     1      -5.434  -2.792 124.509  0.00  0.00    +0.000 C 
ENDBRANCH  15  16
BRANCH  15  18
ATOM     18  C   UNL     1      -8.742  -2.092 122.760  0.00  0.00    +0.000 C 
ATOM     19  C   UNL     1      -9.372  -3.239 123.557  0.00  0.00    +0.000 C 
ENDBRANCH  15  18
ENDBRANCH  14  15
ENDBRANCH  13  14
ENDBRANCH  12  13
ENDBRANCH  10  12
ENDBRANCH   4  10
BRANCH   1  20
ATOM     20  O   UNL     1      -5.703  -3.242 129.193  0.00  0.00    +0.000 OA
BRANCH  20  21
ATOM     21  C   UNL     1      -6.396  -3.852 130.281  0.00  0.00    +0.000 C 
BRANCH  21  23
ATOM     22  C   UNL     1      -5.477  -4.993 132.309  0.00  0.00    +0.000 C 
ATOM     23  C   UNL     1      -5.585  -5.042 130.791  0.00  0.00    +0.000 C 
ENDBRANCH  21  23
ENDBRANCH  20  21
ENDBRANCH   1  20
TORSDOF 11
ENDMDL
MODEL 5
REMARK VINA RESULT:      -5.8      9.383     12.390
REMARK  Name = Proparacaine
REMARK  14 active torsions:
REMARK  status: ('A' for Active; 'I' for Inactive)
REMARK    1  A    between atoms: C_1  and  C_2
REMARK    2  A    between atoms: C_2  and  C_3
REMARK    3  A    between atoms: C_3  and  O_4
REMARK    4  A    between atoms: O_4  and  C_5
REMARK    5  A    between atoms: C_6  and  N_7
REMARK    6  A    between atoms: C_9  and  C_12
REMARK    7  A    between atoms: C_12  and  O_14
REMARK    8  A    between atoms: O_14  and  C_15
REMARK    9  A    between atoms: C_15  and  C_16
REMARK   10  A    between atoms: C_16  and  N_17
REMARK   11  A    between atoms: N_17  and  C_18
REMARK   12  A    between atoms: N_17  and  C_20
REMARK   13  A    between atoms: C_18  and  C_19
REMARK   14  A    between atoms: C_20  and  C_21
REMARK                            x       y       z     vdW  Elec       q    Type
REMARK                         _______ _______ _______ _____ _____    ______ ____
ROOT
ATOM      1  C   UNL     1      -6.541  -2.888 129.279  0.00  0.00    +0.000 A 
ATOM      2  C   UNL     1      -6.077  -2.301 128.084  0.00  0.00    +0.000 A 
ATOM      3  C   UNL     1      -6.915  -2.336 126.953  0.00  0.00    +0.000 A 
ATOM      4  C   UNL     1      -8.168  -2.969 126.980  0.00  0.00    +0.000 A 
ATOM      5  C   UNL     1      -8.593  -3.592 128.149  0.00  0.00    +0.000 A 
ATOM      6  C   UNL     1      -7.783  -3.551 129.287  0.00  0.00    +0.000 A 
ENDROOT
BRANCH   2   7
ATOM      7  N   UNL     1      -4.914  -1.519 128.002  0.00  0.00    +0.000 N 
ATOM      8  H   UNL     1      -5.080  -0.546 127.782  0.00  0.00    +0.000 HD
ATOM      9  H   UNL     1      -4.256  -1.615 128.768  0.00  0.00    +0.000 HD
ENDBRANCH   2   7
BRANCH   4  10
ATOM     10  C   UNL     1      -9.005  -2.949 125.754  0.00  0.00    +0.000 C 
ATOM     11  O   UNL     1     -10.218  -2.857 125.794  0.00  0.00    +0.000 OA
BRANCH  10  12
ATOM     12  O   UNL     1      -8.236  -3.028 124.615  0.00  0.00    +0.000 OA
BRANCH  12  13
ATOM     13  C   UNL     1      -8.964  -2.532 123.486  0.00  0.00    +0.000 C 
BRANCH  13  14
ATOM     14  C   UNL     1      -8.664  -1.080 123.071  0.00  0.00    +0.000 C 
BRANCH  14  15
ATOM     15  N   UNL     1      -9.466  -0.042 123.790  0.00  0.00    +0.000 NA
BRANCH  15  16
ATOM     16  C   UNL     1      -8.706   0.689 124.830  0.00  0.00    +0.000 C 
ATOM     17  C   UNL     1      -9.270   0.689 126.245  0.00  0.00    +0.000 C 
ENDBRANCH  15  16
BRANCH  15  18
ATOM     18  C   UNL     1     -10.012   0.924 122.797  0.00  0.00    +0.000 C 
ATOM     19  C   UNL     1      -9.157   2.184 122.623  0.00  0.00    +0.000 C 
ENDBRANCH  15  18
ENDBRANCH  14  15
ENDBRANCH  13  14
ENDBRANCH  12  13
ENDBRANCH  10  12
ENDBRANCH   4  10
BRANCH   1  20
ATOM     20  O   UNL     1      -5.835  -3.010 130.454  0.00  0.00    +0.000 OA
BRANCH  20  21
ATOM     21  C   UNL     1      -4.931  -4.108 130.573  0.00  0.00    +0.000 C 
BRANCH  21  23
ATOM     22  C   UNL     1      -6.117  -4.129 132.776  0.00  0.00    +0.000 C 
ATOM     23  C   UNL     1      -5.332  -4.964 131.773  0.00  0.00    +0.000 C 
ENDBRANCH  21  23
ENDBRANCH  20  21
ENDBRANCH   1  20
TORSDOF 11
ENDMDL
MODEL 6
REMARK VINA RESULT:      -5.7      8.745     10.428
REMARK  Name = Proparacaine
REMARK  14 active torsions:
REMARK  status: ('A' for Active; 'I' for Inactive)
REMARK    1  A    between atoms: C_1  and  C_2
REMARK    2  A    between atoms: C_2  and  C_3
REMARK    3  A    between atoms: C_3  and  O_4
REMARK    4  A    between atoms: O_4  and  C_5
REMARK    5  A    between atoms: C_6  and  N_7
REMARK    6  A    between atoms: C_9  and  C_12
REMARK    7  A    between atoms: C_12  and  O_14
REMARK    8  A    between atoms: O_14  and  C_15
REMARK    9  A    between atoms: C_15  and  C_16
REMARK   10  A    between atoms: C_16  and  N_17
REMARK   11  A    between atoms: N_17  and  C_18
REMARK   12  A    between atoms: N_17  and  C_20
REMARK   13  A    between atoms: C_18  and  C_19
REMARK   14  A    between atoms: C_20  and  C_21
REMARK                            x       y       z     vdW  Elec       q    Type
REMARK                         _______ _______ _______ _____ _____    ______ ____
ROOT
ATOM      1  C   UNL     1      -6.484   3.460 123.315  0.00  0.00    +0.000 A 
ATOM      2  C   UNL     1      -6.849   4.048 124.542  0.00  0.00    +0.000 A 
ATOM      3  C   UNL     1      -7.400   3.223 125.541  0.00  0.00    +0.000 A 
ATOM      4  C   UNL     1      -7.628   1.854 125.328  0.00  0.00    +0.000 A 
ATOM      5  C   UNL     1      -7.315   1.294 124.093  0.00  0.00    +0.000 A 
ATOM      6  C   UNL     1      -6.749   2.094 123.096  0.00  0.00    +0.000 A 
ENDROOT
BRANCH   2   7
ATOM      7  N   UNL     1      -6.522   5.366 124.901  0.00  0.00    +0.000 N 
ATOM      8  H   UNL     1      -7.292   5.896 125.289  0.00  0.00    +0.000 HD
ATOM      9  H   UNL     1      -5.681   5.483 125.454  0.00  0.00    +0.000 HD
ENDBRANCH   2   7
BRANCH   4  10
ATOM     10  C   UNL     1      -8.195   1.042 126.435  0.00  0.00    +0.000 C 
ATOM     11  O   UNL     1      -9.207   1.366 127.028  0.00  0.00    +0.000 OA
BRANCH  10  12
ATOM     12  O   UNL     1      -7.449  -0.091 126.664  0.00  0.00    +0.000 OA
BRANCH  12  13
ATOM     13  C   UNL     1      -8.243  -1.263 126.448  0.00  0.00    +0.000 C 
BRANCH  13  14
ATOM     14  C   UNL     1      -7.469  -2.571 126.203  0.00  0.00    +0.000 C 
BRANCH  14  15
ATOM     15  N   UNL     1      -7.181  -2.872 124.767  0.00  0.00    +0.000 NA
BRANCH  15  16
ATOM     16  C   UNL     1      -8.179  -2.313 123.825  0.00  0.00    +0.000 C 
ATOM     17  C   UNL     1      -9.383  -3.179 123.480  0.00  0.00    +0.000 C 
ENDBRANCH  15  16
BRANCH  15  18
ATOM     18  C   UNL     1      -5.827  -2.356 124.424  0.00  0.00    +0.000 C 
ATOM     19  C   UNL     1      -4.956  -3.359 123.661  0.00  0.00    +0.000 C 
ENDBRANCH  15  18
ENDBRANCH  14  15
ENDBRANCH  13  14
ENDBRANCH  12  13
ENDBRANCH  10  12
ENDBRANCH   4  10
BRANCH   1  20
ATOM     20  O   UNL     1      -6.002   4.119 122.207  0.00  0.00    +0.000 OA
BRANCH  20  21
ATOM     21  C   UNL     1      -5.962   3.403 120.973  0.00  0.00    +0.000 C 
BRANCH  21  23
ATOM     22  C   UNL     1      -8.243   4.020 120.150  0.00  0.00    +0.000 C 
ATOM     23  C   UNL     1      -6.747   4.176 119.915  0.00  0.00    +0.000 C 
ENDBRANCH  21  23
ENDBRANCH  20  21
ENDBRANCH   1  20
TORSDOF 11
ENDMDL
MODEL 7
REMARK VINA RESULT:      -5.7      2.506      3.867
REMARK  Name = Proparacaine
REMARK  14 active torsions:
REMARK  status: ('A' for Active; 'I' for Inactive)
REMARK    1  A    between atoms: C_1  and  C_2
REMARK    2  A    between atoms: C_2  and  C_3
REMARK    3  A    between atoms: C_3  and  O_4
REMARK    4  A    between atoms: O_4  and  C_5
REMARK    5  A    between atoms: C_6  and  N_7
REMARK    6  A    between atoms: C_9  and  C_12
REMARK    7  A    between atoms: C_12  and  O_14
REMARK    8  A    between atoms: O_14  and  C_15
REMARK    9  A    between atoms: C_15  and  C_16
REMARK   10  A    between atoms: C_16  and  N_17
REMARK   11  A    between atoms: N_17  and  C_18
REMARK   12  A    between atoms: N_17  and  C_20
REMARK   13  A    between atoms: C_18  and  C_19
REMARK   14  A    between atoms: C_20  and  C_21
REMARK                            x       y       z     vdW  Elec       q    Type
REMARK                         _______ _______ _______ _____ _____    ______ ____
ROOT
ATOM      1  C   UNL     1     -10.264   6.183 131.453  0.00  0.00    +0.000 A 
ATOM      2  C   UNL     1      -9.445   5.488 132.367  0.00  0.00    +0.000 A 
ATOM      3  C   UNL     1      -8.057   5.720 132.331  0.00  0.00    +0.000 A 
ATOM      4  C   UNL     1      -7.476   6.585 131.390  0.00  0.00    +0.000 A 
ATOM      5  C   UNL     1      -8.287   7.224 130.457  0.00  0.00    +0.000 A 
ATOM      6  C   UNL     1      -9.669   7.021 130.490  0.00  0.00    +0.000 A 
ENDROOT
BRANCH   2   7
ATOM      7  N   UNL     1      -9.944   4.726 133.435  0.00  0.00    +0.000 N 
ATOM      8  H   UNL     1     -10.045   5.238 134.302  0.00  0.00    +0.000 HD
ATOM      9  H   UNL     1     -10.769   4.169 133.239  0.00  0.00    +0.000 HD
ENDBRANCH   2   7
BRANCH   4  10
ATOM     10  C   UNL     1      -6.006   6.795 131.423  0.00  0.00    +0.000 C 
ATOM     11  O   UNL     1      -5.320   6.454 132.368  0.00  0.00    +0.000 OA
BRANCH  10  12
ATOM     12  O   UNL     1      -5.553   7.390 130.267  0.00  0.00    +0.000 OA
BRANCH  12  13
ATOM     13  C   UNL     1      -4.230   6.939 129.959  0.00  0.00    +0.000 C 
BRANCH  13  14
ATOM     14  C   UNL     1      -4.109   5.931 128.801  0.00  0.00    +0.000 C 
BRANCH  14  15
ATOM     15  N   UNL     1      -4.465   4.522 129.154  0.00  0.00    +0.000 NA
BRANCH  15  16
ATOM     16  C   UNL     1      -5.810   4.108 128.689  0.00  0.00    +0.000 C 
ATOM     17  C   UNL     1      -6.716   3.406 129.691  0.00  0.00    +0.000 C 
ENDBRANCH  15  16
BRANCH  15  18
ATOM     18  C   UNL     1      -3.437   3.605 128.590  0.00  0.00    +0.000 C 
ATOM     19  C   UNL     1      -2.495   4.273 127.583  0.00  0.00    +0.000 C 
ENDBRANCH  15  18
ENDBRANCH  14  15
ENDBRANCH  13  14
ENDBRANCH  12  13
ENDBRANCH  10  12
ENDBRANCH   4  10
BRANCH   1  20
ATOM     20  O   UNL     1     -11.622   6.029 131.297  0.00  0.00    +0.000 OA
BRANCH  20  21
ATOM     21  C   UNL     1     -12.435   7.200 131.362  0.00  0.00    +0.000 C 
BRANCH  21  23
ATOM     22  C   UNL     1     -12.751   8.841 129.500  0.00  0.00    +0.000 C 
ATOM     23  C   UNL     1     -13.082   7.441 130.000  0.00  0.00    +0.000 C 
ENDBRANCH  21  23
ENDBRANCH  20  21
ENDBRANCH   1  20
TORSDOF 11
ENDMDL
MODEL 8
REMARK VINA RESULT:      -5.5      3.078      4.339
REMARK  Name = Proparacaine
REMARK  14 active torsions:
REMARK  status: ('A' for Active; 'I' for Inactive)
REMARK    1  A    between atoms: C_1  and  C_2
REMARK    2  A    between atoms: C_2  and  C_3
REMARK    3  A    between atoms: C_3  and  O_4
REMARK    4  A    between atoms: O_4  and  C_5
REMARK    5  A    between atoms: C_6  and  N_7
REMARK    6  A    between atoms: C_9  and  C_12
REMARK    7  A    between atoms: C_12  and  O_14
REMARK    8  A    between atoms: O_14  and  C_15
REMARK    9  A    between atoms: C_15  and  C_16
REMARK   10  A    between atoms: C_16  and  N_17
REMARK   11  A    between atoms: N_17  and  C_18
REMARK   12  A    between atoms: N_17  and  C_20
REMARK   13  A    between atoms: C_18  and  C_19
REMARK   14  A    between atoms: C_20  and  C_21
REMARK                            x       y       z     vdW  Elec       q    Type
REMARK                         _______ _______ _______ _____ _____    ______ ____
ROOT
ATOM      1  C   UNL     1     -10.622   5.824 130.935  0.00  0.00    +0.000 A 
ATOM      2  C   UNL     1     -10.293   4.506 130.562  0.00  0.00    +0.000 A 
ATOM      3  C   UNL     1      -8.938   4.188 130.352  0.00  0.00    +0.000 A 
ATOM      4  C   UNL     1      -7.925   5.155 130.466  0.00  0.00    +0.000 A 
ATOM      5  C   UNL     1      -8.266   6.466 130.782  0.00  0.00    +0.000 A 
ATOM      6  C   UNL     1      -9.604   6.796 131.013  0.00  0.00    +0.000 A 
ENDROOT
BRANCH   2   7
ATOM      7  N   UNL     1     -11.211   3.443 130.571  0.00  0.00    +0.000 N 
ATOM      8  H   UNL     1     -10.898   2.625 131.078  0.00  0.00    +0.000 HD
ATOM      9  H   UNL     1     -12.167   3.680 130.812  0.00  0.00    +0.000 HD
ENDBRANCH   2   7
BRANCH   4  10
ATOM     10  C   UNL     1      -6.515   4.743 130.248  0.00  0.00    +0.000 C 
ATOM     11  O   UNL     1      -6.077   3.681 130.648  0.00  0.00    +0.000 OA
BRANCH  10  12
ATOM     12  O   UNL     1      -5.814   5.693 129.540  0.00  0.00    +0.000 OA
BRANCH  12  13
ATOM     13  C   UNL     1      -4.532   5.184 129.158  0.00  0.00    +0.000 C 
BRANCH  13  14
ATOM     14  C   UNL     1      -3.977   5.684 127.811  0.00  0.00    +0.000 C 
BRANCH  14  15
ATOM     15  N   UNL     1      -3.909   4.648 126.735  0.00  0.00    +0.000 NA
BRANCH  15  16
ATOM     16  C   UNL     1      -3.315   3.364 127.176  0.00  0.00    +0.000 C 
ATOM     17  C   UNL     1      -1.852   3.112 126.837  0.00  0.00    +0.000 C 
ENDBRANCH  15  16
BRANCH  15  18
ATOM     18  C   UNL     1      -5.278   4.409 126.202  0.00  0.00    +0.000 C 
ATOM     19  C   UNL     1      -5.307   3.996 124.727  0.00  0.00    +0.000 C 
ENDBRANCH  15  18
ENDBRANCH  14  15
ENDBRANCH  13  14
ENDBRANCH  12  13
ENDBRANCH  10  12
ENDBRANCH   4  10
BRANCH   1  20
ATOM     20  O   UNL     1     -11.890   6.329 131.111  0.00  0.00    +0.000 OA
BRANCH  20  21
ATOM     21  C   UNL     1     -12.356   7.295 130.169  0.00  0.00    +0.000 C 
BRANCH  21  23
ATOM     22  C   UNL     1     -13.580   7.574 128.005  0.00  0.00    +0.000 C 
ATOM     23  C   UNL     1     -12.924   6.574 128.947  0.00  0.00    +0.000 C 
ENDBRANCH  21  23
ENDBRANCH  20  21
ENDBRANCH   1  20
TORSDOF 11
ENDMDL
MODEL 9
REMARK VINA RESULT:      -5.4      2.053      3.091
REMARK  Name = Proparacaine
REMARK  14 active torsions:
REMARK  status: ('A' for Active; 'I' for Inactive)
REMARK    1  A    between atoms: C_1  and  C_2
REMARK    2  A    between atoms: C_2  and  C_3
REMARK    3  A    between atoms: C_3  and  O_4
REMARK    4  A    between atoms: O_4  and  C_5
REMARK    5  A    between atoms: C_6  and  N_7
REMARK    6  A    between atoms: C_9  and  C_12
REMARK    7  A    between atoms: C_12  and  O_14
REMARK    8  A    between atoms: O_14  and  C_15
REMARK    9  A    between atoms: C_15  and  C_16
REMARK   10  A    between atoms: C_16  and  N_17
REMARK   11  A    between atoms: N_17  and  C_18
REMARK   12  A    between atoms: N_17  and  C_20
REMARK   13  A    between atoms: C_18  and  C_19
REMARK   14  A    between atoms: C_20  and  C_21
REMARK                            x       y       z     vdW  Elec       q    Type
REMARK                         _______ _______ _______ _____ _____    ______ ____
ROOT
ATOM      1  C   UNL     1     -10.853   5.962 129.775  0.00  0.00    +0.000 A 
ATOM      2  C   UNL     1     -10.373   4.839 130.479  0.00  0.00    +0.000 A 
ATOM      3  C   UNL     1      -9.175   4.968 131.207  0.00  0.00    +0.000 A 
ATOM      4  C   UNL     1      -8.437   6.164 131.212  0.00  0.00    +0.000 A 
ATOM      5  C   UNL     1      -8.892   7.249 130.470  0.00  0.00    +0.000 A 
ATOM      6  C   UNL     1     -10.089   7.146 129.757  0.00  0.00    +0.000 A 
ENDROOT
BRANCH   2   7
ATOM      7  N   UNL     1     -11.112   3.658 130.656  0.00  0.00    +0.000 N 
ATOM      8  H   UNL     1     -11.948   3.600 130.089  0.00  0.00    +0.000 HD
ATOM      9  H   UNL     1     -10.585   2.793 130.623  0.00  0.00    +0.000 HD
ENDBRANCH   2   7
BRANCH   4  10
ATOM     10  C   UNL     1      -7.192   6.232 132.018  0.00  0.00    +0.000 C 
ATOM     11  O   UNL     1      -7.098   5.722 133.119  0.00  0.00    +0.000 OA
BRANCH  10  12
ATOM     12  O   UNL     1      -6.196   6.912 131.353  0.00  0.00    +0.000 OA
BRANCH  12  13
ATOM     13  C   UNL     1      -5.363   5.997 130.634  0.00  0.00    +0.000 C 
BRANCH  13  14
ATOM     14  C   UNL     1      -3.882   5.954 131.054  0.00  0.00    +0.000 C 
BRANCH  14  15
ATOM     15  N   UNL     1      -3.638   6.135 132.518  0.00  0.00    +0.000 NA
BRANCH  15  16
ATOM     16  C   UNL     1      -3.478   4.863 133.261  0.00  0.00    +0.000 C 
ATOM     17  C   UNL     1      -2.344   3.939 132.839  0.00  0.00    +0.000 C 
ENDBRANCH  15  16
BRANCH  15  18
ATOM     18  C   UNL     1      -2.427   6.981 132.708  0.00  0.00    +0.000 C 
ATOM     19  C   UNL     1      -2.634   8.453 132.337  0.00  0.00    +0.000 C 
ENDBRANCH  15  18
ENDBRANCH  14  15
ENDBRANCH  13  14
ENDBRANCH  12  13
ENDBRANCH  10  12
ENDBRANCH   4  10
BRANCH   1  20
ATOM     20  O   UNL     1     -11.960   6.000 128.958  0.00  0.00    +0.000 OA
BRANCH  20  21
ATOM     21  C   UNL     1     -13.027   6.872 129.326  0.00  0.00    +0.000 C 
BRANCH  21  23
ATOM     22  C   UNL     1     -13.186   9.281 128.670  0.00  0.00    +0.000 C 
ATOM     23  C   UNL     1     -13.302   7.844 128.180  0.00  0.00    +0.000 C 
ENDBRANCH  21  23
ENDBRANCH  20  21
ENDBRANCH   1  20
TORSDOF 11
ENDMDL
