MODEL 1
REMARK VINA RESULT:      -3.3      0.000      0.000
REMARK  Name = Propylene glycol
REMARK  4 active torsions:
REMARK  status: ('A' for Active; 'I' for Inactive)
REMARK    1  A    between atoms: C_1  and  C_2
REMARK    2  A    between atoms: C_2  and  O_3
REMARK    3  A    between atoms: C_2  and  C_4
REMARK    4  A    between atoms: C_4  and  O_5
REMARK                            x       y       z     vdW  Elec       q    Type
REMARK                         _______ _______ _______ _____ _____    ______ ____
ROOT
ATOM      1  C   UNL     1      -6.866   4.296 119.735  0.00  0.00    +0.000 C 
ATOM      2  C   UNL     1      -5.436   4.802 119.631  0.00  0.00    +0.000 C 
ENDROOT
BRANCH   2   3
ATOM      3  O   UNL     1      -5.436   6.008 118.865  0.00  0.00    +0.000 OA
ATOM      4  H   UNL     1      -6.337   6.152 118.530  0.00  0.00    +0.000 HD
ENDBRANCH   2   3
BRANCH   2   5
ATOM      5  C   UNL     1      -4.834   5.032 121.025  0.00  0.00    +0.000 C 
BRANCH   5   6
ATOM      6  O   UNL     1      -4.150   6.280 121.109  0.00  0.00    +0.000 OA
ATOM      7  H   UNL     1      -3.506   6.315 120.384  0.00  0.00    +0.000 HD
ENDBRANCH   5   6
ENDBRANCH   2   5
TORSDOF 3
ENDMDL
MODEL 2
REMARK VINA RESULT:      -3.1     10.236     10.680
REMARK  Name = Propylene glycol
REMARK  4 active torsions:
REMARK  status: ('A' for Active; 'I' for Inactive)
REMARK    1  A    between atoms: C_1  and  C_2
REMARK    2  A    between atoms: C_2  and  O_3
REMARK    3  A    between atoms: C_2  and  C_4
REMARK    4  A    between atoms: C_4  and  O_5
REMARK                            x       y       z     vdW  Elec       q    Type
REMARK                         _______ _______ _______ _____ _____    ______ ____
ROOT
ATOM      1  C   UNL     1     -10.599   8.368 127.903  0.00  0.00    +0.000 C 
ATOM      2  C   UNL     1     -12.054   8.092 128.244  0.00  0.00    +0.000 C 
ENDROOT
BRANCH   2   3
ATOM      3  O   UNL     1     -12.730   9.342 128.393  0.00  0.00    +0.000 OA
ATOM      4  H   UNL     1     -13.042   9.622 127.517  0.00  0.00    +0.000 HD
ENDBRANCH   2   3
BRANCH   2   5
ATOM      5  C   UNL     1     -12.717   7.231 127.158  0.00  0.00    +0.000 C 
BRANCH   5   6
ATOM      6  O   UNL     1     -11.758   6.669 126.266  0.00  0.00    +0.000 OA
ATOM      7  H   UNL     1     -11.501   7.358 125.633  0.00  0.00    +0.000 HD
ENDBRANCH   5   6
ENDBRANCH   2   5
TORSDOF 3
ENDMDL
MODEL 3
REMARK VINA RESULT:      -3.1     10.359     10.604
REMARK  Name = Propylene glycol
REMARK  4 active torsions:
REMARK  status: ('A' for Active; 'I' for Inactive)
REMARK    1  A    between atoms: C_1  and  C_2
REMARK    2  A    between atoms: C_2  and  O_3
REMARK    3  A    between atoms: C_2  and  C_4
REMARK    4  A    between atoms: C_4  and  O_5
REMARK                            x       y       z     vdW  Elec       q    Type
REMARK                         _______ _______ _______ _____ _____    ______ ____
ROOT
ATOM      1  C   UNL     1     -13.740   7.376 127.775  0.00  0.00    +0.000 C 
ATOM      2  C   UNL     1     -12.268   7.095 127.517  0.00  0.00    +0.000 C 
ENDROOT
BRANCH   2   3
ATOM      3  O   UNL     1     -12.120   6.657 126.166  0.00  0.00    +0.000 OA
ATOM      4  H   UNL     1     -12.997   6.669 125.748  0.00  0.00    +0.000 HD
ENDBRANCH   2   3
BRANCH   2   5
ATOM      5  C   UNL     1     -11.416   8.343 127.791  0.00  0.00    +0.000 C 
BRANCH   5   6
ATOM      6  O   UNL     1     -12.127   9.315 128.555  0.00  0.00    +0.000 OA
ATOM      7  H   UNL     1     -11.671   9.415 129.406  0.00  0.00    +0.000 HD
ENDBRANCH   5   6
ENDBRANCH   2   5
TORSDOF 3
ENDMDL
MODEL 4
REMARK VINA RESULT:      -3.0     10.161     10.485
REMARK  Name = Propylene glycol
REMARK  4 active torsions:
REMARK  status: ('A' for Active; 'I' for Inactive)
REMARK    1  A    between atoms: C_1  and  C_2
REMARK    2  A    between atoms: C_2  and  O_3
REMARK    3  A    between atoms: C_2  and  C_4
REMARK    4  A    between atoms: C_4  and  O_5
REMARK                            x       y       z     vdW  Elec       q    Type
REMARK                         _______ _______ _______ _____ _____    ______ ____
ROOT
ATOM      1  C   UNL     1     -10.860   8.139 127.683  0.00  0.00    +0.000 C 
ATOM      2  C   UNL     1     -12.187   7.509 127.292  0.00  0.00    +0.000 C 
ENDROOT
BRANCH   2   3
ATOM      3  O   UNL     1     -11.957   6.595 126.218  0.00  0.00    +0.000 OA
ATOM      4  H   UNL     1     -12.485   5.796 126.384  0.00  0.00    +0.000 HD
ENDBRANCH   2   3
BRANCH   2   5
ATOM      5  C   UNL     1     -12.833   6.801 128.492  0.00  0.00    +0.000 C 
BRANCH   5   6
ATOM      6  O   UNL     1     -11.977   5.804 129.044  0.00  0.00    +0.000 OA
ATOM      7  H   UNL     1     -11.852   5.115 128.373  0.00  0.00    +0.000 HD
ENDBRANCH   5   6
ENDBRANCH   2   5
TORSDOF 3
ENDMDL
MODEL 5
REMARK VINA RESULT:      -3.0      9.620     10.050
REMARK  Name = Propylene glycol
REMARK  4 active torsions:
REMARK  status: ('A' for Active; 'I' for Inactive)
REMARK    1  A    between atoms: C_1  and  C_2
REMARK    2  A    between atoms: C_2  and  O_3
REMARK    3  A    between atoms: C_2  and  C_4
REMARK    4  A    between atoms: C_4  and  O_5
REMARK                            x       y       z     vdW  Elec       q    Type
REMARK                         _______ _______ _______ _____ _____    ______ ____
ROOT
ATOM      1  C   UNL     1     -12.288   8.264 128.283  0.00  0.00    +0.000 C 
ATOM      2  C   UNL     1     -10.892   8.353 127.687  0.00  0.00    +0.000 C 
ENDROOT
BRANCH   2   3
ATOM      3  O   UNL     1      -9.940   8.110 128.724  0.00  0.00    +0.000 OA
ATOM      4  H   UNL     1      -9.155   8.655 128.545  0.00  0.00    +0.000 HD
ENDBRANCH   2   3
BRANCH   2   5
ATOM      5  C   UNL     1     -10.724   7.351 126.535  0.00  0.00    +0.000 C 
BRANCH   5   6
ATOM      6  O   UNL     1     -11.943   6.675 126.237  0.00  0.00    +0.000 OA
ATOM      7  H   UNL     1     -12.126   6.795 125.292  0.00  0.00    +0.000 HD
ENDBRANCH   5   6
ENDBRANCH   2   5
TORSDOF 3
ENDMDL
MODEL 6
REMARK VINA RESULT:      -2.9     12.928     13.219
REMARK  Name = Propylene glycol
REMARK  4 active torsions:
REMARK  status: ('A' for Active; 'I' for Inactive)
REMARK    1  A    between atoms: C_1  and  C_2
REMARK    2  A    between atoms: C_2  and  O_3
REMARK    3  A    between atoms: C_2  and  C_4
REMARK    4  A    between atoms: C_4  and  O_5
REMARK                            x       y       z     vdW  Elec       q    Type
REMARK                         _______ _______ _______ _____ _____    ______ ____
ROOT
ATOM      1  C   UNL     1     -12.770   8.320 130.431  0.00  0.00    +0.000 C 
ATOM      2  C   UNL     1     -12.785   9.496 129.469  0.00  0.00    +0.000 C 
ENDROOT
BRANCH   2   3
ATOM      3  O   UNL     1     -13.524   9.122 128.305  0.00  0.00    +0.000 OA
ATOM      4  H   UNL     1     -12.956   8.556 127.757  0.00  0.00    +0.000 HD
ENDBRANCH   2   3
BRANCH   2   5
ATOM      5  C   UNL     1     -13.392  10.740 130.134  0.00  0.00    +0.000 C 
BRANCH   5   6
ATOM      6  O   UNL     1     -13.327  11.883 129.284  0.00  0.00    +0.000 OA
ATOM      7  H   UNL     1     -13.236  11.568 128.370  0.00  0.00    +0.000 HD
ENDBRANCH   5   6
ENDBRANCH   2   5
TORSDOF 3
ENDMDL
MODEL 7
REMARK VINA RESULT:      -2.8     10.851     11.200
REMARK  Name = Propylene glycol
REMARK  4 active torsions:
REMARK  status: ('A' for Active; 'I' for Inactive)
REMARK    1  A    between atoms: C_1  and  C_2
REMARK    2  A    between atoms: C_2  and  O_3
REMARK    3  A    between atoms: C_2  and  C_4
REMARK    4  A    between atoms: C_4  and  O_5
REMARK                            x       y       z     vdW  Elec       q    Type
REMARK                         _______ _______ _______ _____ _____    ______ ____
ROOT
ATOM      1  C   UNL     1     -10.546   8.445 128.147  0.00  0.00    +0.000 C 
ATOM      2  C   UNL     1     -11.949   8.097 127.675  0.00  0.00    +0.000 C 
ENDROOT
BRANCH   2   3
ATOM      3  O   UNL     1     -12.033   6.681 127.506  0.00  0.00    +0.000 OA
ATOM      4  H   UNL     1     -12.912   6.394 127.804  0.00  0.00    +0.000 HD
ENDBRANCH   2   3
BRANCH   2   5
ATOM      5  C   UNL     1     -13.003   8.599 128.673  0.00  0.00    +0.000 C 
BRANCH   5   6
ATOM      6  O   UNL     1     -13.021  10.022 128.755  0.00  0.00    +0.000 OA
ATOM      7  H   UNL     1     -13.658  10.349 128.099  0.00  0.00    +0.000 HD
ENDBRANCH   5   6
ENDBRANCH   2   5
TORSDOF 3
ENDMDL
MODEL 8
REMARK VINA RESULT:      -2.8     12.114     12.409
REMARK  Name = Propylene glycol
REMARK  4 active torsions:
REMARK  status: ('A' for Active; 'I' for Inactive)
REMARK    1  A    between atoms: C_1  and  C_2
REMARK    2  A    between atoms: C_2  and  O_3
REMARK    3  A    between atoms: C_2  and  C_4
REMARK    4  A    between atoms: C_4  and  O_5
REMARK                            x       y       z     vdW  Elec       q    Type
REMARK                         _______ _______ _______ _____ _____    ______ ____
ROOT
ATOM      1  C   UNL     1     -13.077   8.691 128.603  0.00  0.00    +0.000 C 
ATOM      2  C   UNL     1     -13.054   7.261 129.119  0.00  0.00    +0.000 C 
ENDROOT
BRANCH   2   3
ATOM      3  O   UNL     1     -12.388   6.442 128.156  0.00  0.00    +0.000 OA
ATOM      4  H   UNL     1     -13.009   5.753 127.866  0.00  0.00    +0.000 HD
ENDBRANCH   2   3
BRANCH   2   5
ATOM      5  C   UNL     1     -12.359   7.183 130.486  0.00  0.00    +0.000 C 
BRANCH   5   6
ATOM      6  O   UNL     1     -13.293   7.244 131.561  0.00  0.00    +0.000 OA
ATOM      7  H   UNL     1     -14.145   6.915 131.233  0.00  0.00    +0.000 HD
ENDBRANCH   5   6
ENDBRANCH   2   5
TORSDOF 3
ENDMDL
MODEL 9
REMARK VINA RESULT:      -2.7     10.959     11.281
REMARK  Name = Propylene glycol
REMARK  4 active torsions:
REMARK  status: ('A' for Active; 'I' for Inactive)
REMARK    1  A    between atoms: C_1  and  C_2
REMARK    2  A    between atoms: C_2  and  O_3
REMARK    3  A    between atoms: C_2  and  C_4
REMARK    4  A    between atoms: C_4  and  O_5
REMARK                            x       y       z     vdW  Elec       q    Type
REMARK                         _______ _______ _______ _____ _____    ______ ____
ROOT
ATOM      1  C   UNL     1     -13.408   7.564 128.036  0.00  0.00    +0.000 C 
ATOM      2  C   UNL     1     -12.288   8.571 128.246  0.00  0.00    +0.000 C 
ENDROOT
BRANCH   2   3
ATOM      3  O   UNL     1     -12.856   9.786 128.736  0.00  0.00    +0.000 OA
ATOM      4  H   UNL     1     -13.689   9.569 129.187  0.00  0.00    +0.000 HD
ENDBRANCH   2   3
BRANCH   2   5
ATOM      5  C   UNL     1     -11.233   8.021 129.217  0.00  0.00    +0.000 C 
BRANCH   5   6
ATOM      6  O   UNL     1      -9.909   8.200 128.721  0.00  0.00    +0.000 OA
ATOM      7  H   UNL     1      -9.830   7.693 127.897  0.00  0.00    +0.000 HD
ENDBRANCH   5   6
ENDBRANCH   2   5
TORSDOF 3
ENDMDL
