MODEL 1
REMARK VINA RESULT:      -5.4      0.000      0.000
REMARK  Name = Propylhexedrine
REMARK  5 active torsions:
REMARK  status: ('A' for Active; 'I' for Inactive)
REMARK    1  A    between atoms: C_1  and  N_2
REMARK    2  A    between atoms: N_2  and  C_3
REMARK    3  A    between atoms: C_3  and  C_4
REMARK    4  A    between atoms: C_3  and  C_5
REMARK    5  A    between atoms: C_5  and  C_6
REMARK                            x       y       z     vdW  Elec       q    Type
REMARK                         _______ _______ _______ _____ _____    ______ ____
ROOT
ATOM      1  C   UNL     1     -12.056   6.783 131.101  0.00  0.00    +0.000 C 
ENDROOT
BRANCH   1   2
ATOM      2  C   UNL     1     -12.160   7.562 129.750  0.00  0.00    +0.000 C 
ATOM      3  C   UNL     1     -10.777   7.873 129.150  0.00  0.00    +0.000 C 
ATOM      4  C   UNL     1     -10.858   8.345 127.691  0.00  0.00    +0.000 C 
ATOM      5  C   UNL     1     -11.654   7.392 126.800  0.00  0.00    +0.000 C 
ATOM      6  C   UNL     1     -13.069   7.235 127.334  0.00  0.00    +0.000 C 
ATOM      7  C   UNL     1     -12.968   6.748 128.753  0.00  0.00    +0.000 C 
ENDBRANCH   1   2
BRANCH   1   8
ATOM      8  C   UNL     1     -10.755   5.931 131.307  0.00  0.00    +0.000 C 
ATOM      9  C   UNL     1     -10.782   4.513 130.679  0.00  0.00    +0.000 C 
BRANCH   8  11
ATOM     10  C   UNL     1      -9.092   5.747 133.079  0.00  0.00    +0.000 C 
ATOM     11  N   UNL     1     -10.515   5.733 132.750  0.00  0.00    +0.000 NA
ATOM     12  H   UNL     1     -10.983   6.480 133.283  0.00  0.00    +0.000 HD
ENDBRANCH   8  11
ENDBRANCH   1   8
TORSDOF 3
ENDMDL
MODEL 2
REMARK VINA RESULT:      -5.2      1.289      2.146
REMARK  Name = Propylhexedrine
REMARK  5 active torsions:
REMARK  status: ('A' for Active; 'I' for Inactive)
REMARK    1  A    between atoms: C_1  and  N_2
REMARK    2  A    between atoms: N_2  and  C_3
REMARK    3  A    between atoms: C_3  and  C_4
REMARK    4  A    between atoms: C_3  and  C_5
REMARK    5  A    between atoms: C_5  and  C_6
REMARK                            x       y       z     vdW  Elec       q    Type
REMARK                         _______ _______ _______ _____ _____    ______ ____
ROOT
ATOM      1  C   UNL     1     -11.874   6.392 131.380  0.00  0.00    +0.000 C 
ENDROOT
BRANCH   1   2
ATOM      2  C   UNL     1     -11.930   7.133 130.005  0.00  0.00    +0.000 C 
ATOM      3  C   UNL     1     -12.662   6.309 128.930  0.00  0.00    +0.000 C 
ATOM      4  C   UNL     1     -13.005   7.138 127.683  0.00  0.00    +0.000 C 
ATOM      5  C   UNL     1     -13.760   8.425 128.013  0.00  0.00    +0.000 C 
ATOM      6  C   UNL     1     -12.935   9.290 128.951  0.00  0.00    +0.000 C 
ATOM      7  C   UNL     1     -12.632   8.471 130.176  0.00  0.00    +0.000 C 
ENDBRANCH   1   2
BRANCH   1   8
ATOM      8  C   UNL     1     -10.443   6.147 131.974  0.00  0.00    +0.000 C 
ATOM      9  C   UNL     1      -9.267   6.706 131.131  0.00  0.00    +0.000 C 
BRANCH   8  11
ATOM     10  C   UNL     1     -10.278   4.009 130.818  0.00  0.00    +0.000 C 
ATOM     11  N   UNL     1     -10.200   4.697 132.103  0.00  0.00    +0.000 NA
ATOM     12  H   UNL     1      -9.266   4.538 132.505  0.00  0.00    +0.000 HD
ENDBRANCH   8  11
ENDBRANCH   1   8
TORSDOF 3
ENDMDL
MODEL 3
REMARK VINA RESULT:      -4.9      1.280      2.123
REMARK  Name = Propylhexedrine
REMARK  5 active torsions:
REMARK  status: ('A' for Active; 'I' for Inactive)
REMARK    1  A    between atoms: C_1  and  N_2
REMARK    2  A    between atoms: N_2  and  C_3
REMARK    3  A    between atoms: C_3  and  C_4
REMARK    4  A    between atoms: C_3  and  C_5
REMARK    5  A    between atoms: C_5  and  C_6
REMARK                            x       y       z     vdW  Elec       q    Type
REMARK                         _______ _______ _______ _____ _____    ______ ____
ROOT
ATOM      1  C   UNL     1     -10.511   6.384 131.759  0.00  0.00    +0.000 C 
ENDROOT
BRANCH   1   2
ATOM      2  C   UNL     1     -11.121   6.635 130.343  0.00  0.00    +0.000 C 
ATOM      3  C   UNL     1     -12.564   7.166 130.418  0.00  0.00    +0.000 C 
ATOM      4  C   UNL     1     -13.062   7.715 129.073  0.00  0.00    +0.000 C 
ATOM      5  C   UNL     1     -12.116   8.749 128.464  0.00  0.00    +0.000 C 
ATOM      6  C   UNL     1     -10.740   8.139 128.254  0.00  0.00    +0.000 C 
ATOM      7  C   UNL     1     -10.259   7.631 129.585  0.00  0.00    +0.000 C 
ENDBRANCH   1   2
BRANCH   1   8
ATOM      8  C   UNL     1      -9.710   5.047 131.939  0.00  0.00    +0.000 C 
ATOM      9  C   UNL     1     -10.080   3.911 130.948  0.00  0.00    +0.000 C 
BRANCH   8  11
ATOM     10  C   UNL     1      -9.053   3.395 133.605  0.00  0.00    +0.000 C 
ATOM     11  N   UNL     1      -9.949   4.503 133.290  0.00  0.00    +0.000 NA
ATOM     12  H   UNL     1      -9.812   5.246 133.990  0.00  0.00    +0.000 HD
ENDBRANCH   8  11
ENDBRANCH   1   8
TORSDOF 3
ENDMDL
MODEL 4
REMARK VINA RESULT:      -4.8      9.723     11.370
REMARK  Name = Propylhexedrine
REMARK  5 active torsions:
REMARK  status: ('A' for Active; 'I' for Inactive)
REMARK    1  A    between atoms: C_1  and  N_2
REMARK    2  A    between atoms: N_2  and  C_3
REMARK    3  A    between atoms: C_3  and  C_4
REMARK    4  A    between atoms: C_3  and  C_5
REMARK    5  A    between atoms: C_5  and  C_6
REMARK                            x       y       z     vdW  Elec       q    Type
REMARK                         _______ _______ _______ _____ _____    ______ ____
ROOT
ATOM      1  C   UNL     1      -9.443  -2.882 125.898  0.00  0.00    +0.000 C 
ENDROOT
BRANCH   1   2
ATOM      2  C   UNL     1      -8.297  -2.805 126.958  0.00  0.00    +0.000 C 
ATOM      3  C   UNL     1      -7.958  -1.353 127.343  0.00  0.00    +0.000 C 
ATOM      4  C   UNL     1      -7.075  -1.265 128.597  0.00  0.00    +0.000 C 
ATOM      5  C   UNL     1      -7.645  -2.041 129.783  0.00  0.00    +0.000 C 
ATOM      6  C   UNL     1      -7.814  -3.507 129.417  0.00  0.00    +0.000 C 
ATOM      7  C   UNL     1      -8.702  -3.574 128.205  0.00  0.00    +0.000 C 
ENDBRANCH   1   2
BRANCH   1   8
ATOM      8  C   UNL     1      -9.072  -3.551 124.528  0.00  0.00    +0.000 C 
ATOM      9  C   UNL     1      -7.574  -3.470 124.131  0.00  0.00    +0.000 C 
BRANCH   8  11
ATOM     10  C   UNL     1      -9.163  -1.675 122.976  0.00  0.00    +0.000 C 
ATOM     11  N   UNL     1      -9.819  -2.894 123.438  0.00  0.00    +0.000 NA
ATOM     12  H   UNL     1      -9.907  -3.542 122.642  0.00  0.00    +0.000 HD
ENDBRANCH   8  11
ENDBRANCH   1   8
TORSDOF 3
ENDMDL
MODEL 5
REMARK VINA RESULT:      -4.8      2.286      4.691
REMARK  Name = Propylhexedrine
REMARK  5 active torsions:
REMARK  status: ('A' for Active; 'I' for Inactive)
REMARK    1  A    between atoms: C_1  and  N_2
REMARK    2  A    between atoms: N_2  and  C_3
REMARK    3  A    between atoms: C_3  and  C_4
REMARK    4  A    between atoms: C_3  and  C_5
REMARK    5  A    between atoms: C_5  and  C_6
REMARK                            x       y       z     vdW  Elec       q    Type
REMARK                         _______ _______ _______ _____ _____    ______ ____
ROOT
ATOM      1  C   UNL     1     -12.795   7.407 130.413  0.00  0.00    +0.000 C 
ENDROOT
BRANCH   1   2
ATOM      2  C   UNL     1     -11.510   6.536 130.595  0.00  0.00    +0.000 C 
ATOM      3  C   UNL     1     -10.289   7.146 129.882  0.00  0.00    +0.000 C 
ATOM      4  C   UNL     1      -8.968   6.490 130.307  0.00  0.00    +0.000 C 
ATOM      5  C   UNL     1      -8.776   6.464 131.823  0.00  0.00    +0.000 C 
ATOM      6  C   UNL     1      -9.920   5.711 132.482  0.00  0.00    +0.000 C 
ATOM      7  C   UNL     1     -11.202   6.384 132.075  0.00  0.00    +0.000 C 
ENDBRANCH   1   2
BRANCH   1   8
ATOM      8  C   UNL     1     -12.656   8.654 129.471  0.00  0.00    +0.000 C 
ATOM      9  C   UNL     1     -13.081  10.010 130.094  0.00  0.00    +0.000 C 
BRANCH   8  11
ATOM     10  C   UNL     1     -13.284   7.176 127.639  0.00  0.00    +0.000 C 
ATOM     11  N   UNL     1     -13.503   8.470 128.277  0.00  0.00    +0.000 NA
ATOM     12  H   UNL     1     -14.496   8.542 128.543  0.00  0.00    +0.000 HD
ENDBRANCH   8  11
ENDBRANCH   1   8
TORSDOF 3
ENDMDL
MODEL 6
REMARK VINA RESULT:      -4.8      8.529     10.177
REMARK  Name = Propylhexedrine
REMARK  5 active torsions:
REMARK  status: ('A' for Active; 'I' for Inactive)
REMARK    1  A    between atoms: C_1  and  N_2
REMARK    2  A    between atoms: N_2  and  C_3
REMARK    3  A    between atoms: C_3  and  C_4
REMARK    4  A    between atoms: C_3  and  C_5
REMARK    5  A    between atoms: C_5  and  C_6
REMARK                            x       y       z     vdW  Elec       q    Type
REMARK                         _______ _______ _______ _____ _____    ______ ____
ROOT
ATOM      1  C   UNL     1      -8.338   0.740 123.726  0.00  0.00    +0.000 C 
ENDROOT
BRANCH   1   2
ATOM      2  C   UNL     1      -9.116  -0.589 123.989  0.00  0.00    +0.000 C 
ATOM      3  C   UNL     1      -8.827  -1.655 122.917  0.00  0.00    +0.000 C 
ATOM      4  C   UNL     1      -9.320  -3.052 123.324  0.00  0.00    +0.000 C 
ATOM      5  C   UNL     1      -8.811  -3.487 124.697  0.00  0.00    +0.000 C 
ATOM      6  C   UNL     1      -9.254  -2.493 125.759  0.00  0.00    +0.000 C 
ATOM      7  C   UNL     1      -8.740  -1.138 125.356  0.00  0.00    +0.000 C 
ENDBRANCH   1   2
BRANCH   1   8
ATOM      8  C   UNL     1      -9.212   1.993 123.370  0.00  0.00    +0.000 C 
ATOM      9  C   UNL     1      -8.615   2.939 122.295  0.00  0.00    +0.000 C 
BRANCH   8  11
ATOM     10  C   UNL     1      -8.209   3.570 124.933  0.00  0.00    +0.000 C 
ATOM     11  N   UNL     1      -9.409   2.819 124.577  0.00  0.00    +0.000 NA
ATOM     12  H   UNL     1     -10.178   3.485 124.417  0.00  0.00    +0.000 HD
ENDBRANCH   8  11
ENDBRANCH   1   8
TORSDOF 3
ENDMDL
MODEL 7
REMARK VINA RESULT:      -4.7      9.708     11.217
REMARK  Name = Propylhexedrine
REMARK  5 active torsions:
REMARK  status: ('A' for Active; 'I' for Inactive)
REMARK    1  A    between atoms: C_1  and  N_2
REMARK    2  A    between atoms: N_2  and  C_3
REMARK    3  A    between atoms: C_3  and  C_4
REMARK    4  A    between atoms: C_3  and  C_5
REMARK    5  A    between atoms: C_5  and  C_6
REMARK                            x       y       z     vdW  Elec       q    Type
REMARK                         _______ _______ _______ _____ _____    ______ ____
ROOT
ATOM      1  C   UNL     1      -9.416  -0.708 122.899  0.00  0.00    +0.000 C 
ENDROOT
BRANCH   1   2
ATOM      2  C   UNL     1      -8.347  -1.848 122.894  0.00  0.00    +0.000 C 
ATOM      3  C   UNL     1      -6.909  -1.297 122.900  0.00  0.00    +0.000 C 
ATOM      4  C   UNL     1      -5.864  -2.378 123.215  0.00  0.00    +0.000 C 
ATOM      5  C   UNL     1      -6.174  -3.151 124.497  0.00  0.00    +0.000 C 
ATOM      6  C   UNL     1      -7.536  -3.817 124.390  0.00  0.00    +0.000 C 
ATOM      7  C   UNL     1      -8.548  -2.741 124.108  0.00  0.00    +0.000 C 
ENDBRANCH   1   2
BRANCH   1   8
ATOM      8  C   UNL     1      -9.044   0.582 123.712  0.00  0.00    +0.000 C 
ATOM      9  C   UNL     1      -9.519   0.599 125.189  0.00  0.00    +0.000 C 
BRANCH   8  11
ATOM     10  C   UNL     1      -8.654   2.698 122.569  0.00  0.00    +0.000 C 
ATOM     11  N   UNL     1      -9.656   1.764 123.074  0.00  0.00    +0.000 NA
ATOM     12  H   UNL     1     -10.250   1.463 122.289  0.00  0.00    +0.000 HD
ENDBRANCH   8  11
ENDBRANCH   1   8
TORSDOF 3
ENDMDL
MODEL 8
REMARK VINA RESULT:      -4.6      2.136      3.064
REMARK  Name = Propylhexedrine
REMARK  5 active torsions:
REMARK  status: ('A' for Active; 'I' for Inactive)
REMARK    1  A    between atoms: C_1  and  N_2
REMARK    2  A    between atoms: N_2  and  C_3
REMARK    3  A    between atoms: C_3  and  C_4
REMARK    4  A    between atoms: C_3  and  C_5
REMARK    5  A    between atoms: C_5  and  C_6
REMARK                            x       y       z     vdW  Elec       q    Type
REMARK                         _______ _______ _______ _____ _____    ______ ____
ROOT
ATOM      1  C   UNL     1      -9.057   7.280 130.434  0.00  0.00    +0.000 C 
ENDROOT
BRANCH   1   2
ATOM      2  C   UNL     1     -10.372   7.109 129.607  0.00  0.00    +0.000 C 
ATOM      3  C   UNL     1     -11.628   7.167 130.495  0.00  0.00    +0.000 C 
ATOM      4  C   UNL     1     -12.921   7.322 129.680  0.00  0.00    +0.000 C 
ATOM      5  C   UNL     1     -12.872   8.494 128.702  0.00  0.00    +0.000 C 
ATOM      6  C   UNL     1     -11.712   8.321 127.734  0.00  0.00    +0.000 C 
ATOM      7  C   UNL     1     -10.454   8.198 128.549  0.00  0.00    +0.000 C 
ENDBRANCH   1   2
BRANCH   1   8
ATOM      8  C   UNL     1      -8.283   5.960 130.781  0.00  0.00    +0.000 C 
ATOM      9  C   UNL     1      -7.103   6.121 131.775  0.00  0.00    +0.000 C 
BRANCH   8  11
ATOM     10  C   UNL     1      -8.116   3.999 129.344  0.00  0.00    +0.000 C 
ATOM     11  N   UNL     1      -7.705   5.385 129.551  0.00  0.00    +0.000 NA
ATOM     12  H   UNL     1      -8.004   5.941 128.737  0.00  0.00    +0.000 HD
ENDBRANCH   8  11
ENDBRANCH   1   8
TORSDOF 3
ENDMDL
MODEL 9
REMARK VINA RESULT:      -4.5     10.804     12.013
REMARK  Name = Propylhexedrine
REMARK  5 active torsions:
REMARK  status: ('A' for Active; 'I' for Inactive)
REMARK    1  A    between atoms: C_1  and  N_2
REMARK    2  A    between atoms: N_2  and  C_3
REMARK    3  A    between atoms: C_3  and  C_4
REMARK    4  A    between atoms: C_3  and  C_5
REMARK    5  A    between atoms: C_5  and  C_6
REMARK                            x       y       z     vdW  Elec       q    Type
REMARK                         _______ _______ _______ _____ _____    ______ ____
ROOT
ATOM      1  C   UNL     1      -7.446  -2.020 125.016  0.00  0.00    +0.000 C 
ENDROOT
BRANCH   1   2
ATOM      2  C   UNL     1      -7.418  -2.906 126.302  0.00  0.00    +0.000 C 
ATOM      3  C   UNL     1      -6.764  -2.183 127.493  0.00  0.00    +0.000 C 
ATOM      4  C   UNL     1      -7.011  -2.900 128.828  0.00  0.00    +0.000 C 
ATOM      5  C   UNL     1      -8.490  -3.181 129.088  0.00  0.00    +0.000 C 
ATOM      6  C   UNL     1      -9.064  -4.037 127.971  0.00  0.00    +0.000 C 
ATOM      7  C   UNL     1      -8.836  -3.307 126.676  0.00  0.00    +0.000 C 
ENDBRANCH   1   2
BRANCH   1   8
ATOM      8  C   UNL     1      -6.236  -2.193 124.032  0.00  0.00    +0.000 C 
ATOM      9  C   UNL     1      -6.520  -1.820 122.553  0.00  0.00    +0.000 C 
BRANCH   8  11
ATOM     10  C   UNL     1      -4.430  -3.757 123.550  0.00  0.00    +0.000 C 
ATOM     11  N   UNL     1      -5.803  -3.604 124.021  0.00  0.00    +0.000 NA
ATOM     12  H   UNL     1      -5.870  -3.993 124.972  0.00  0.00    +0.000 HD
ENDBRANCH   8  11
ENDBRANCH   1   8
TORSDOF 3
ENDMDL
