MODEL 1
REMARK VINA RESULT:      -3.6      0.000      0.000
REMARK  Name = Propiolactone
REMARK  0 active torsions:
REMARK  status: ('A' for Active; 'I' for Inactive)
REMARK                            x       y       z     vdW  Elec       q    Type
REMARK                         _______ _______ _______ _____ _____    ______ ____
ROOT
ATOM      1  O   UNL     1      -5.742   5.736 118.709  0.00  0.00    +0.000 OA
ATOM      2  C   UNL     1      -5.305   5.381 119.778  0.00  0.00    +0.000 C 
ATOM      3  C   UNL     1      -5.347   4.119 120.657  0.00  0.00    +0.000 C 
ATOM      4  C   UNL     1      -4.475   4.964 121.582  0.00  0.00    +0.000 C 
ATOM      5  O   UNL     1      -4.531   6.076 120.650  0.00  0.00    +0.000 OA
ENDROOT
TORSDOF 0
ENDMDL
MODEL 2
REMARK VINA RESULT:      -3.4      1.094      2.313
REMARK  Name = Propiolactone
REMARK  0 active torsions:
REMARK  status: ('A' for Active; 'I' for Inactive)
REMARK                            x       y       z     vdW  Elec       q    Type
REMARK                         _______ _______ _______ _____ _____    ______ ____
ROOT
ATOM      1  O   UNL     1      -4.565   6.067 120.391  0.00  0.00    +0.000 OA
ATOM      2  C   UNL     1      -5.439   5.479 119.801  0.00  0.00    +0.000 C 
ATOM      3  C   UNL     1      -6.384   4.293 120.061  0.00  0.00    +0.000 C 
ATOM      4  C   UNL     1      -6.886   4.629 118.660  0.00  0.00    +0.000 C 
ATOM      5  O   UNL     1      -5.932   5.719 118.558  0.00  0.00    +0.000 OA
ENDROOT
TORSDOF 0
ENDMDL
MODEL 3
REMARK VINA RESULT:      -3.2      9.217      9.513
REMARK  Name = Propiolactone
REMARK  0 active torsions:
REMARK  status: ('A' for Active; 'I' for Inactive)
REMARK                            x       y       z     vdW  Elec       q    Type
REMARK                         _______ _______ _______ _____ _____    ______ ____
ROOT
ATOM      1  O   UNL     1     -10.802   8.014 125.388  0.00  0.00    +0.000 OA
ATOM      2  C   UNL     1     -11.013   7.750 126.548  0.00  0.00    +0.000 C 
ATOM      3  C   UNL     1     -10.684   8.350 127.925  0.00  0.00    +0.000 C 
ATOM      4  C   UNL     1     -11.482   7.151 128.429  0.00  0.00    +0.000 C 
ATOM      5  O   UNL     1     -11.708   6.705 127.066  0.00  0.00    +0.000 OA
ENDROOT
TORSDOF 0
ENDMDL
MODEL 4
REMARK VINA RESULT:      -3.2      1.076      2.229
REMARK  Name = Propiolactone
REMARK  0 active torsions:
REMARK  status: ('A' for Active; 'I' for Inactive)
REMARK                            x       y       z     vdW  Elec       q    Type
REMARK                         _______ _______ _______ _____ _____    ______ ____
ROOT
ATOM      1  O   UNL     1      -4.486   4.707 122.288  0.00  0.00    +0.000 OA
ATOM      2  C   UNL     1      -4.912   4.959 121.186  0.00  0.00    +0.000 C 
ATOM      3  C   UNL     1      -5.851   4.305 120.157  0.00  0.00    +0.000 C 
ATOM      4  C   UNL     1      -5.530   5.559 119.349  0.00  0.00    +0.000 C 
ATOM      5  O   UNL     1      -4.668   6.046 120.411  0.00  0.00    +0.000 OA
ENDROOT
TORSDOF 0
ENDMDL
MODEL 5
REMARK VINA RESULT:      -2.9     10.381     10.778
REMARK  Name = Propiolactone
REMARK  0 active torsions:
REMARK  status: ('A' for Active; 'I' for Inactive)
REMARK                            x       y       z     vdW  Elec       q    Type
REMARK                         _______ _______ _______ _____ _____    ______ ____
ROOT
ATOM      1  O   UNL     1     -10.192   8.374 128.073  0.00  0.00    +0.000 OA
ATOM      2  C   UNL     1     -11.340   8.004 128.013  0.00  0.00    +0.000 C 
ATOM      3  C   UNL     1     -12.732   8.568 128.347  0.00  0.00    +0.000 C 
ATOM      4  C   UNL     1     -13.199   7.213 127.825  0.00  0.00    +0.000 C 
ATOM      5  O   UNL     1     -11.826   6.818 127.567  0.00  0.00    +0.000 OA
ENDROOT
TORSDOF 0
ENDMDL
MODEL 6
REMARK VINA RESULT:      -2.9     10.207     10.523
REMARK  Name = Propiolactone
REMARK  0 active torsions:
REMARK  status: ('A' for Active; 'I' for Inactive)
REMARK                            x       y       z     vdW  Elec       q    Type
REMARK                         _______ _______ _______ _____ _____    ______ ____
ROOT
ATOM      1  O   UNL     1      -9.903  -2.932 123.251  0.00  0.00    +0.000 OA
ATOM      2  C   UNL     1      -9.413  -3.149 124.335  0.00  0.00    +0.000 C 
ATOM      3  C   UNL     1      -8.178  -3.873 124.896  0.00  0.00    +0.000 C 
ATOM      4  C   UNL     1      -8.740  -3.397 126.233  0.00  0.00    +0.000 C 
ATOM      5  O   UNL     1      -9.858  -2.762 125.558  0.00  0.00    +0.000 OA
ENDROOT
TORSDOF 0
ENDMDL
MODEL 7
REMARK VINA RESULT:      -2.9     10.047     10.409
REMARK  Name = Propiolactone
REMARK  0 active torsions:
REMARK  status: ('A' for Active; 'I' for Inactive)
REMARK                            x       y       z     vdW  Elec       q    Type
REMARK                         _______ _______ _______ _____ _____    ______ ____
ROOT
ATOM      1  O   UNL     1     -13.013   6.721 128.776  0.00  0.00    +0.000 OA
ATOM      2  C   UNL     1     -12.230   7.132 127.952  0.00  0.00    +0.000 C 
ATOM      3  C   UNL     1     -11.142   8.215 127.863  0.00  0.00    +0.000 C 
ATOM      4  C   UNL     1     -10.983   7.673 126.446  0.00  0.00    +0.000 C 
ATOM      5  O   UNL     1     -12.038   6.702 126.679  0.00  0.00    +0.000 OA
ENDROOT
TORSDOF 0
ENDMDL
MODEL 8
REMARK VINA RESULT:      -2.9     11.615     11.821
REMARK  Name = Propiolactone
REMARK  0 active torsions:
REMARK  status: ('A' for Active; 'I' for Inactive)
REMARK                            x       y       z     vdW  Elec       q    Type
REMARK                         _______ _______ _______ _____ _____    ______ ____
ROOT
ATOM      1  O   UNL     1     -12.208   5.636 129.233  0.00  0.00    +0.000 OA
ATOM      2  C   UNL     1     -12.646   6.706 128.880  0.00  0.00    +0.000 C 
ATOM      3  C   UNL     1     -13.730   7.227 127.922  0.00  0.00    +0.000 C 
ATOM      4  C   UNL     1     -13.254   8.587 128.424  0.00  0.00    +0.000 C 
ATOM      5  O   UNL     1     -12.270   7.948 129.280  0.00  0.00    +0.000 OA
ENDROOT
TORSDOF 0
ENDMDL
MODEL 9
REMARK VINA RESULT:      -2.8     12.390     12.802
REMARK  Name = Propiolactone
REMARK  0 active torsions:
REMARK  status: ('A' for Active; 'I' for Inactive)
REMARK                            x       y       z     vdW  Elec       q    Type
REMARK                         _______ _______ _______ _____ _____    ______ ____
ROOT
ATOM      1  O   UNL     1     -11.630   5.378 129.596  0.00  0.00    +0.000 OA
ATOM      2  C   UNL     1     -12.124   6.283 130.227  0.00  0.00    +0.000 C 
ATOM      3  C   UNL     1     -12.742   7.661 129.939  0.00  0.00    +0.000 C 
ATOM      4  C   UNL     1     -12.931   7.684 131.453  0.00  0.00    +0.000 C 
ATOM      5  O   UNL     1     -12.319   6.372 131.568  0.00  0.00    +0.000 OA
ENDROOT
TORSDOF 0
ENDMDL
