MODEL 1
REMARK VINA RESULT:      -6.8      0.000      0.000
REMARK  Name = Propiomazine
REMARK  9 active torsions:
REMARK  status: ('A' for Active; 'I' for Inactive)
REMARK    1  A    between atoms: C_1  and  C_2
REMARK    2  A    between atoms: C_2  and  C_3
REMARK    3  A    between atoms: C_3  and  C_5
REMARK    4  A    between atoms: N_16  and  C_17
REMARK    5  A    between atoms: C_17  and  C_18
REMARK    6  A    between atoms: C_18  and  C_19
REMARK    7  A    between atoms: C_18  and  N_20
REMARK    8  A    between atoms: N_20  and  C_21
REMARK    9  A    between atoms: N_20  and  C_22
REMARK                            x       y       z     vdW  Elec       q    Type
REMARK                         _______ _______ _______ _____ _____    ______ ____
ROOT
ATOM      1  C   UNL     1      -6.759  -2.721 129.484  0.00  0.00    +0.000 A 
ATOM      2  C   UNL     1      -6.615  -1.746 128.495  0.00  0.00    +0.000 A 
ATOM      3  C   UNL     1      -7.444  -1.764 127.367  0.00  0.00    +0.000 A 
ATOM      4  C   UNL     1      -8.439  -2.760 127.262  0.00  0.00    +0.000 A 
ATOM      5  S   UNL     1      -9.495  -2.851 125.824  0.00  0.00    +0.000 S 
ATOM      6  C   UNL     1      -8.324  -2.275 124.602  0.00  0.00    +0.000 A 
ATOM      7  C   UNL     1      -8.472  -2.691 123.277  0.00  0.00    +0.000 A 
ATOM      8  C   UNL     1      -7.610  -2.214 122.289  0.00  0.00    +0.000 A 
ATOM      9  C   UNL     1      -6.581  -1.344 122.624  0.00  0.00    +0.000 A 
ATOM     10  C   UNL     1      -6.390  -0.987 123.953  0.00  0.00    +0.000 A 
ATOM     11  C   UNL     1      -7.289  -1.384 124.955  0.00  0.00    +0.000 A 
ATOM     12  N   UNL     1      -7.146  -0.916 126.270  0.00  0.00    +0.000 N 
ATOM     13  C   UNL     1      -8.582  -3.727 128.258  0.00  0.00    +0.000 A 
ATOM     14  C   UNL     1      -7.732  -3.716 129.362  0.00  0.00    +0.000 A 
ENDROOT
BRANCH   1  15
ATOM     15  C   UNL     1      -5.843  -2.759 130.642  0.00  0.00    +0.000 C 
ATOM     16  O   UNL     1      -5.886  -1.837 131.461  0.00  0.00    +0.000 OA
BRANCH  15  18
ATOM     17  C   UNL     1      -3.627  -3.631 129.876  0.00  0.00    +0.000 C 
ATOM     18  C   UNL     1      -4.855  -3.905 130.726  0.00  0.00    +0.000 C 
ENDBRANCH  15  18
ENDBRANCH   1  15
BRANCH  12  19
ATOM     19  C   UNL     1      -7.164   0.545 126.588  0.00  0.00    +0.000 C 
BRANCH  19  20
ATOM     20  C   UNL     1      -8.564   1.204 126.821  0.00  0.00    +0.000 C 
ATOM     21  C   UNL     1      -8.608   1.897 128.203  0.00  0.00    +0.000 C 
BRANCH  20  22
ATOM     22  N   UNL     1      -9.015   2.153 125.755  0.00  0.00    +0.000 NA
ATOM     23  C   UNL     1      -7.865   2.792 125.095  0.00  0.00    +0.000 C 
ATOM     24  C   UNL     1      -9.761   1.408 124.721  0.00  0.00    +0.000 C 
ENDBRANCH  20  22
ENDBRANCH  19  20
ENDBRANCH  12  19
TORSDOF 5
ENDMDL
MODEL 2
REMARK VINA RESULT:      -6.8      3.828      5.108
REMARK  Name = Propiomazine
REMARK  9 active torsions:
REMARK  status: ('A' for Active; 'I' for Inactive)
REMARK    1  A    between atoms: C_1  and  C_2
REMARK    2  A    between atoms: C_2  and  C_3
REMARK    3  A    between atoms: C_3  and  C_5
REMARK    4  A    between atoms: N_16  and  C_17
REMARK    5  A    between atoms: C_17  and  C_18
REMARK    6  A    between atoms: C_18  and  C_19
REMARK    7  A    between atoms: C_18  and  N_20
REMARK    8  A    between atoms: N_20  and  C_21
REMARK    9  A    between atoms: N_20  and  C_22
REMARK                            x       y       z     vdW  Elec       q    Type
REMARK                         _______ _______ _______ _____ _____    ______ ____
ROOT
ATOM      1  C   UNL     1      -7.403  -2.116 123.978  0.00  0.00    +0.000 A 
ATOM      2  C   UNL     1      -6.780  -0.867 124.035  0.00  0.00    +0.000 A 
ATOM      3  C   UNL     1      -7.486   0.286 123.671  0.00  0.00    +0.000 A 
ATOM      4  C   UNL     1      -8.837   0.168 123.277  0.00  0.00    +0.000 A 
ATOM      5  S   UNL     1      -9.770   1.602 122.764  0.00  0.00    +0.000 S 
ATOM      6  C   UNL     1      -8.438   2.525 122.008  0.00  0.00    +0.000 A 
ATOM      7  C   UNL     1      -8.738   3.428 120.986  0.00  0.00    +0.000 A 
ATOM      8  C   UNL     1      -7.729   4.205 120.416  0.00  0.00    +0.000 A 
ATOM      9  C   UNL     1      -6.415   4.064 120.843  0.00  0.00    +0.000 A 
ATOM     10  C   UNL     1      -6.107   3.114 121.809  0.00  0.00    +0.000 A 
ATOM     11  C   UNL     1      -7.109   2.378 122.459  0.00  0.00    +0.000 A 
ATOM     12  N   UNL     1      -6.788   1.510 123.514  0.00  0.00    +0.000 N 
ATOM     13  C   UNL     1      -9.455  -1.083 123.230  0.00  0.00    +0.000 A 
ATOM     14  C   UNL     1      -8.734  -2.225 123.566  0.00  0.00    +0.000 A 
ENDROOT
BRANCH   1  15
ATOM     15  C   UNL     1      -6.648  -3.347 124.287  0.00  0.00    +0.000 C 
ATOM     16  O   UNL     1      -7.277  -4.375 124.550  0.00  0.00    +0.000 OA
BRANCH  15  18
ATOM     17  C   UNL     1      -4.504  -4.420 123.571  0.00  0.00    +0.000 C 
ATOM     18  C   UNL     1      -5.136  -3.260 124.321  0.00  0.00    +0.000 C 
ENDBRANCH  15  18
ENDBRANCH   1  15
BRANCH  12  19
ATOM     19  C   UNL     1      -6.103   1.999 124.750  0.00  0.00    +0.000 C 
BRANCH  19  20
ATOM     20  C   UNL     1      -7.010   2.603 125.873  0.00  0.00    +0.000 C 
ATOM     21  C   UNL     1      -6.795   1.840 127.202  0.00  0.00    +0.000 C 
BRANCH  20  22
ATOM     22  N   UNL     1      -6.865   4.075 126.097  0.00  0.00    +0.000 NA
ATOM     23  C   UNL     1      -5.770   4.629 125.284  0.00  0.00    +0.000 C 
ATOM     24  C   UNL     1      -8.109   4.757 125.685  0.00  0.00    +0.000 C 
ENDBRANCH  20  22
ENDBRANCH  19  20
ENDBRANCH  12  19
TORSDOF 5
ENDMDL
MODEL 3
REMARK VINA RESULT:      -6.6      8.150     11.022
REMARK  Name = Propiomazine
REMARK  9 active torsions:
REMARK  status: ('A' for Active; 'I' for Inactive)
REMARK    1  A    between atoms: C_1  and  C_2
REMARK    2  A    between atoms: C_2  and  C_3
REMARK    3  A    between atoms: C_3  and  C_5
REMARK    4  A    between atoms: N_16  and  C_17
REMARK    5  A    between atoms: C_17  and  C_18
REMARK    6  A    between atoms: C_18  and  C_19
REMARK    7  A    between atoms: C_18  and  N_20
REMARK    8  A    between atoms: N_20  and  C_21
REMARK    9  A    between atoms: N_20  and  C_22
REMARK                            x       y       z     vdW  Elec       q    Type
REMARK                         _______ _______ _______ _____ _____    ______ ____
ROOT
ATOM      1  C   UNL     1      -8.622   6.554 131.355  0.00  0.00    +0.000 A 
ATOM      2  C   UNL     1      -7.328   6.713 130.856  0.00  0.00    +0.000 A 
ATOM      3  C   UNL     1      -6.225   6.324 131.628  0.00  0.00    +0.000 A 
ATOM      4  C   UNL     1      -6.446   5.746 132.897  0.00  0.00    +0.000 A 
ATOM      5  S   UNL     1      -5.074   5.271 133.937  0.00  0.00    +0.000 S 
ATOM      6  C   UNL     1      -3.921   6.549 133.450  0.00  0.00    +0.000 A 
ATOM      7  C   UNL     1      -2.939   6.952 134.357  0.00  0.00    +0.000 A 
ATOM      8  C   UNL     1      -1.989   7.905 133.987  0.00  0.00    +0.000 A 
ATOM      9  C   UNL     1      -2.032   8.477 132.723  0.00  0.00    +0.000 A 
ATOM     10  C   UNL     1      -3.053   8.128 131.847  0.00  0.00    +0.000 A 
ATOM     11  C   UNL     1      -3.972   7.115 132.159  0.00  0.00    +0.000 A 
ATOM     12  N   UNL     1      -4.921   6.694 131.214  0.00  0.00    +0.000 N 
ATOM     13  C   UNL     1      -7.743   5.583 133.386  0.00  0.00    +0.000 A 
ATOM     14  C   UNL     1      -8.830   6.000 132.622  0.00  0.00    +0.000 A 
ENDROOT
BRANCH   1  15
ATOM     15  C   UNL     1      -9.789   7.027 130.584  0.00  0.00    +0.000 C 
ATOM     16  O   UNL     1      -9.597   7.760 129.610  0.00  0.00    +0.000 OA
BRANCH  15  18
ATOM     17  C   UNL     1     -12.253   7.283 130.235  0.00  0.00    +0.000 C 
ATOM     18  C   UNL     1     -11.168   6.631 131.073  0.00  0.00    +0.000 C 
ENDBRANCH  15  18
ENDBRANCH   1  15
BRANCH  12  19
ATOM     19  C   UNL     1      -4.513   6.154 129.881  0.00  0.00    +0.000 C 
BRANCH  19  20
ATOM     20  C   UNL     1      -3.249   5.232 129.844  0.00  0.00    +0.000 C 
ATOM     21  C   UNL     1      -3.649   3.764 130.125  0.00  0.00    +0.000 C 
BRANCH  20  22
ATOM     22  N   UNL     1      -2.430   5.311 128.595  0.00  0.00    +0.000 NA
ATOM     23  C   UNL     1      -3.106   4.639 127.474  0.00  0.00    +0.000 C 
ATOM     24  C   UNL     1      -2.250   6.728 128.217  0.00  0.00    +0.000 C 
ENDBRANCH  20  22
ENDBRANCH  19  20
ENDBRANCH  12  19
TORSDOF 5
ENDMDL
MODEL 4
REMARK VINA RESULT:      -6.5      6.282     10.164
REMARK  Name = Propiomazine
REMARK  9 active torsions:
REMARK  status: ('A' for Active; 'I' for Inactive)
REMARK    1  A    between atoms: C_1  and  C_2
REMARK    2  A    between atoms: C_2  and  C_3
REMARK    3  A    between atoms: C_3  and  C_5
REMARK    4  A    between atoms: N_16  and  C_17
REMARK    5  A    between atoms: C_17  and  C_18
REMARK    6  A    between atoms: C_18  and  C_19
REMARK    7  A    between atoms: C_18  and  N_20
REMARK    8  A    between atoms: N_20  and  C_21
REMARK    9  A    between atoms: N_20  and  C_22
REMARK                            x       y       z     vdW  Elec       q    Type
REMARK                         _______ _______ _______ _____ _____    ______ ____
ROOT
ATOM      1  C   UNL     1     -11.812   7.281 129.758  0.00  0.00    +0.000 A 
ATOM      2  C   UNL     1     -10.567   6.740 129.428  0.00  0.00    +0.000 A 
ATOM      3  C   UNL     1      -9.817   6.064 130.398  0.00  0.00    +0.000 A 
ATOM      4  C   UNL     1     -10.350   5.914 131.697  0.00  0.00    +0.000 A 
ATOM      5  S   UNL     1      -9.416   5.095 132.981  0.00  0.00    +0.000 S 
ATOM      6  C   UNL     1      -7.777   5.595 132.470  0.00  0.00    +0.000 A 
ATOM      7  C   UNL     1      -6.770   5.689 133.434  0.00  0.00    +0.000 A 
ATOM      8  C   UNL     1      -5.467   6.020 133.060  0.00  0.00    +0.000 A 
ATOM      9  C   UNL     1      -5.170   6.284 131.730  0.00  0.00    +0.000 A 
ATOM     10  C   UNL     1      -6.186   6.260 130.783  0.00  0.00    +0.000 A 
ATOM     11  C   UNL     1      -7.487   5.851 131.114  0.00  0.00    +0.000 A 
ATOM     12  N   UNL     1      -8.470   5.719 130.121  0.00  0.00    +0.000 N 
ATOM     13  C   UNL     1     -11.598   6.450 132.017  0.00  0.00    +0.000 A 
ATOM     14  C   UNL     1     -12.322   7.146 131.052  0.00  0.00    +0.000 A 
ENDROOT
BRANCH   1  15
ATOM     15  C   UNL     1     -12.580   8.061 128.767  0.00  0.00    +0.000 C 
ATOM     16  O   UNL     1     -12.554   9.292 128.834  0.00  0.00    +0.000 OA
BRANCH  15  18
ATOM     17  C   UNL     1     -12.606   7.000 126.501  0.00  0.00    +0.000 C 
ATOM     18  C   UNL     1     -13.410   7.296 127.755  0.00  0.00    +0.000 C 
ENDBRANCH  15  18
ENDBRANCH   1  15
BRANCH  12  19
ATOM     19  C   UNL     1      -8.289   4.797 128.957  0.00  0.00    +0.000 C 
BRANCH  19  20
ATOM     20  C   UNL     1      -7.919   3.312 129.278  0.00  0.00    +0.000 C 
ATOM     21  C   UNL     1      -9.108   2.600 129.965  0.00  0.00    +0.000 C 
BRANCH  20  22
ATOM     22  N   UNL     1      -7.438   2.502 128.115  0.00  0.00    +0.000 NA
ATOM     23  C   UNL     1      -8.361   1.393 127.824  0.00  0.00    +0.000 C 
ATOM     24  C   UNL     1      -7.383   3.358 126.912  0.00  0.00    +0.000 C 
ENDBRANCH  20  22
ENDBRANCH  19  20
ENDBRANCH  12  19
TORSDOF 5
ENDMDL
MODEL 5
REMARK VINA RESULT:      -6.5      3.262      6.460
REMARK  Name = Propiomazine
REMARK  9 active torsions:
REMARK  status: ('A' for Active; 'I' for Inactive)
REMARK    1  A    between atoms: C_1  and  C_2
REMARK    2  A    between atoms: C_2  and  C_3
REMARK    3  A    between atoms: C_3  and  C_5
REMARK    4  A    between atoms: N_16  and  C_17
REMARK    5  A    between atoms: C_17  and  C_18
REMARK    6  A    between atoms: C_18  and  C_19
REMARK    7  A    between atoms: C_18  and  N_20
REMARK    8  A    between atoms: N_20  and  C_21
REMARK    9  A    between atoms: N_20  and  C_22
REMARK                            x       y       z     vdW  Elec       q    Type
REMARK                         _______ _______ _______ _____ _____    ______ ____
ROOT
ATOM      1  C   UNL     1      -6.682  -2.710 125.278  0.00  0.00    +0.000 A 
ATOM      2  C   UNL     1      -5.940  -2.172 126.331  0.00  0.00    +0.000 A 
ATOM      3  C   UNL     1      -6.442  -2.215 127.638  0.00  0.00    +0.000 A 
ATOM      4  C   UNL     1      -7.689  -2.833 127.874  0.00  0.00    +0.000 A 
ATOM      5  S   UNL     1      -8.393  -2.878 129.515  0.00  0.00    +0.000 S 
ATOM      6  C   UNL     1      -7.763  -1.315 130.112  0.00  0.00    +0.000 A 
ATOM      7  C   UNL     1      -8.473  -0.637 131.106  0.00  0.00    +0.000 A 
ATOM      8  C   UNL     1      -7.978   0.556 131.635  0.00  0.00    +0.000 A 
ATOM      9  C   UNL     1      -6.790   1.090 131.156  0.00  0.00    +0.000 A 
ATOM     10  C   UNL     1      -6.121   0.453 130.118  0.00  0.00    +0.000 A 
ATOM     11  C   UNL     1      -6.549  -0.789 129.623  0.00  0.00    +0.000 A 
ATOM     12  N   UNL     1      -5.794  -1.473 128.658  0.00  0.00    +0.000 N 
ATOM     13  C   UNL     1      -8.423  -3.376 126.817  0.00  0.00    +0.000 A 
ATOM     14  C   UNL     1      -7.926  -3.301 125.518  0.00  0.00    +0.000 A 
ENDROOT
BRANCH   1  15
ATOM     15  C   UNL     1      -6.199  -2.606 123.887  0.00  0.00    +0.000 C 
ATOM     16  O   UNL     1      -6.981  -2.212 123.018  0.00  0.00    +0.000 OA
BRANCH  15  18
ATOM     17  C   UNL     1      -4.639  -4.555 123.723  0.00  0.00    +0.000 C 
ATOM     18  C   UNL     1      -4.779  -3.048 123.596  0.00  0.00    +0.000 C 
ENDBRANCH  15  18
ENDBRANCH   1  15
BRANCH  12  19
ATOM     19  C   UNL     1      -4.373  -1.866 128.908  0.00  0.00    +0.000 C 
BRANCH  19  20
ATOM     20  C   UNL     1      -4.128  -3.269 129.555  0.00  0.00    +0.000 C 
ATOM     21  C   UNL     1      -2.931  -3.972 128.873  0.00  0.00    +0.000 C 
BRANCH  20  22
ATOM     22  N   UNL     1      -3.946  -3.271 131.040  0.00  0.00    +0.000 NA
ATOM     23  C   UNL     1      -3.524  -1.947 131.524  0.00  0.00    +0.000 C 
ATOM     24  C   UNL     1      -5.234  -3.588 131.691  0.00  0.00    +0.000 C 
ENDBRANCH  20  22
ENDBRANCH  19  20
ENDBRANCH  12  19
TORSDOF 5
ENDMDL
MODEL 6
REMARK VINA RESULT:      -6.4      3.397      5.810
REMARK  Name = Propiomazine
REMARK  9 active torsions:
REMARK  status: ('A' for Active; 'I' for Inactive)
REMARK    1  A    between atoms: C_1  and  C_2
REMARK    2  A    between atoms: C_2  and  C_3
REMARK    3  A    between atoms: C_3  and  C_5
REMARK    4  A    between atoms: N_16  and  C_17
REMARK    5  A    between atoms: C_17  and  C_18
REMARK    6  A    between atoms: C_18  and  C_19
REMARK    7  A    between atoms: C_18  and  N_20
REMARK    8  A    between atoms: N_20  and  C_21
REMARK    9  A    between atoms: N_20  and  C_22
REMARK                            x       y       z     vdW  Elec       q    Type
REMARK                         _______ _______ _______ _____ _____    ______ ____
ROOT
ATOM      1  C   UNL     1      -6.190  -1.540 124.348  0.00  0.00    +0.000 A 
ATOM      2  C   UNL     1      -5.779  -1.046 125.588  0.00  0.00    +0.000 A 
ATOM      3  C   UNL     1      -5.990   0.300 125.912  0.00  0.00    +0.000 A 
ATOM      4  C   UNL     1      -6.647   1.135 124.982  0.00  0.00    +0.000 A 
ATOM      5  S   UNL     1      -6.904   2.868 125.330  0.00  0.00    +0.000 S 
ATOM      6  C   UNL     1      -5.421   3.166 126.283  0.00  0.00    +0.000 A 
ATOM      7  C   UNL     1      -4.880   4.454 126.304  0.00  0.00    +0.000 A 
ATOM      8  C   UNL     1      -3.758   4.733 127.085  0.00  0.00    +0.000 A 
ATOM      9  C   UNL     1      -3.155   3.724 127.823  0.00  0.00    +0.000 A 
ATOM     10  C   UNL     1      -3.650   2.428 127.745  0.00  0.00    +0.000 A 
ATOM     11  C   UNL     1      -4.825   2.134 127.037  0.00  0.00    +0.000 A 
ATOM     12  N   UNL     1      -5.374   0.842 127.068  0.00  0.00    +0.000 N 
ATOM     13  C   UNL     1      -7.061   0.633 123.747  0.00  0.00    +0.000 A 
ATOM     14  C   UNL     1      -6.820  -0.700 123.425  0.00  0.00    +0.000 A 
ENDROOT
BRANCH   1  15
ATOM     15  C   UNL     1      -5.907  -2.937 123.963  0.00  0.00    +0.000 C 
ATOM     16  O   UNL     1      -6.762  -3.797 124.189  0.00  0.00    +0.000 OA
BRANCH  15  18
ATOM     17  C   UNL     1      -4.200  -4.714 123.528  0.00  0.00    +0.000 C 
ATOM     18  C   UNL     1      -4.549  -3.245 123.364  0.00  0.00    +0.000 C 
ENDBRANCH  15  18
ENDBRANCH   1  15
BRANCH  12  19
ATOM     19  C   UNL     1      -5.780   0.195 128.353  0.00  0.00    +0.000 C 
BRANCH  19  20
ATOM     20  C   UNL     1      -7.314   0.026 128.610  0.00  0.00    +0.000 C 
ATOM     21  C   UNL     1      -7.613  -1.392 129.151  0.00  0.00    +0.000 C 
BRANCH  20  22
ATOM     22  N   UNL     1      -7.936   1.057 129.498  0.00  0.00    +0.000 NA
ATOM     23  C   UNL     1      -6.920   1.719 130.332  0.00  0.00    +0.000 C 
ATOM     24  C   UNL     1      -8.574   2.098 128.667  0.00  0.00    +0.000 C 
ENDBRANCH  20  22
ENDBRANCH  19  20
ENDBRANCH  12  19
TORSDOF 5
ENDMDL
MODEL 7
REMARK VINA RESULT:      -6.3      3.221      6.898
REMARK  Name = Propiomazine
REMARK  9 active torsions:
REMARK  status: ('A' for Active; 'I' for Inactive)
REMARK    1  A    between atoms: C_1  and  C_2
REMARK    2  A    between atoms: C_2  and  C_3
REMARK    3  A    between atoms: C_3  and  C_5
REMARK    4  A    between atoms: N_16  and  C_17
REMARK    5  A    between atoms: C_17  and  C_18
REMARK    6  A    between atoms: C_18  and  C_19
REMARK    7  A    between atoms: C_18  and  N_20
REMARK    8  A    between atoms: N_20  and  C_21
REMARK    9  A    between atoms: N_20  and  C_22
REMARK                            x       y       z     vdW  Elec       q    Type
REMARK                         _______ _______ _______ _____ _____    ______ ____
ROOT
ATOM      1  C   UNL     1      -6.522   3.195 123.803  0.00  0.00    +0.000 A 
ATOM      2  C   UNL     1      -6.480   1.809 123.964  0.00  0.00    +0.000 A 
ATOM      3  C   UNL     1      -7.048   1.217 125.099  0.00  0.00    +0.000 A 
ATOM      4  C   UNL     1      -7.684   2.038 126.056  0.00  0.00    +0.000 A 
ATOM      5  S   UNL     1      -8.388   1.337 127.540  0.00  0.00    +0.000 S 
ATOM      6  C   UNL     1      -7.223   0.002 127.777  0.00  0.00    +0.000 A 
ATOM      7  C   UNL     1      -7.001  -0.479 129.070  0.00  0.00    +0.000 A 
ATOM      8  C   UNL     1      -6.143  -1.558 129.281  0.00  0.00    +0.000 A 
ATOM      9  C   UNL     1      -5.482  -2.143 128.209  0.00  0.00    +0.000 A 
ATOM     10  C   UNL     1      -5.647  -1.619 126.934  0.00  0.00    +0.000 A 
ATOM     11  C   UNL     1      -6.566  -0.589 126.678  0.00  0.00    +0.000 A 
ATOM     12  N   UNL     1      -6.805  -0.154 125.365  0.00  0.00    +0.000 N 
ATOM     13  C   UNL     1      -7.728   3.423 125.885  0.00  0.00    +0.000 A 
ATOM     14  C   UNL     1      -7.134   4.002 124.766  0.00  0.00    +0.000 A 
ENDROOT
BRANCH   1  15
ATOM     15  C   UNL     1      -5.862   3.839 122.649  0.00  0.00    +0.000 C 
ATOM     16  O   UNL     1      -5.263   4.902 122.828  0.00  0.00    +0.000 OA
BRANCH  15  18
ATOM     17  C   UNL     1      -6.254   4.215 120.207  0.00  0.00    +0.000 C 
ATOM     18  C   UNL     1      -6.011   3.181 121.292  0.00  0.00    +0.000 C 
ENDBRANCH  15  18
ENDBRANCH   1  15
BRANCH  12  19
ATOM     19  C   UNL     1      -7.294  -1.090 124.306  0.00  0.00    +0.000 C 
BRANCH  19  20
ATOM     20  C   UNL     1      -8.840  -1.313 124.214  0.00  0.00    +0.000 C 
ATOM     21  C   UNL     1      -9.373  -0.814 122.851  0.00  0.00    +0.000 C 
BRANCH  20  22
ATOM     22  N   UNL     1      -9.306  -2.712 124.466  0.00  0.00    +0.000 NA
ATOM     23  C   UNL     1      -9.764  -3.350 123.222  0.00  0.00    +0.000 C 
ATOM     24  C   UNL     1      -8.181  -3.516 124.987  0.00  0.00    +0.000 C 
ENDBRANCH  20  22
ENDBRANCH  19  20
ENDBRANCH  12  19
TORSDOF 5
ENDMDL
MODEL 8
REMARK VINA RESULT:      -6.3      2.805      5.498
REMARK  Name = Propiomazine
REMARK  9 active torsions:
REMARK  status: ('A' for Active; 'I' for Inactive)
REMARK    1  A    between atoms: C_1  and  C_2
REMARK    2  A    between atoms: C_2  and  C_3
REMARK    3  A    between atoms: C_3  and  C_5
REMARK    4  A    between atoms: N_16  and  C_17
REMARK    5  A    between atoms: C_17  and  C_18
REMARK    6  A    between atoms: C_18  and  C_19
REMARK    7  A    between atoms: C_18  and  N_20
REMARK    8  A    between atoms: N_20  and  C_21
REMARK    9  A    between atoms: N_20  and  C_22
REMARK                            x       y       z     vdW  Elec       q    Type
REMARK                         _______ _______ _______ _____ _____    ______ ____
ROOT
ATOM      1  C   UNL     1      -8.356  -2.757 126.297  0.00  0.00    +0.000 A 
ATOM      2  C   UNL     1      -7.806  -1.558 126.753  0.00  0.00    +0.000 A 
ATOM      3  C   UNL     1      -7.642  -1.338 128.126  0.00  0.00    +0.000 A 
ATOM      4  C   UNL     1      -8.013  -2.355 129.033  0.00  0.00    +0.000 A 
ATOM      5  S   UNL     1      -7.862  -2.109 130.796  0.00  0.00    +0.000 S 
ATOM      6  C   UNL     1      -8.205  -0.355 130.846  0.00  0.00    +0.000 A 
ATOM      7  C   UNL     1      -8.754   0.193 132.008  0.00  0.00    +0.000 A 
ATOM      8  C   UNL     1      -8.979   1.567 132.099  0.00  0.00    +0.000 A 
ATOM      9  C   UNL     1      -8.684   2.394 131.025  0.00  0.00    +0.000 A 
ATOM     10  C   UNL     1      -8.206   1.840 129.844  0.00  0.00    +0.000 A 
ATOM     11  C   UNL     1      -7.891   0.476 129.750  0.00  0.00    +0.000 A 
ATOM     12  N   UNL     1      -7.297  -0.043 128.588  0.00  0.00    +0.000 N 
ATOM     13  C   UNL     1      -8.556  -3.555 128.570  0.00  0.00    +0.000 A 
ATOM     14  C   UNL     1      -8.740  -3.750 127.204  0.00  0.00    +0.000 A 
ENDROOT
BRANCH   1  15
ATOM     15  C   UNL     1      -8.603  -2.973 124.857  0.00  0.00    +0.000 C 
ATOM     16  O   UNL     1      -9.768  -2.970 124.451  0.00  0.00    +0.000 OA
BRANCH  15  18
ATOM     17  C   UNL     1      -7.094  -2.045 123.090  0.00  0.00    +0.000 C 
ATOM     18  C   UNL     1      -7.407  -3.245 123.967  0.00  0.00    +0.000 C 
ENDBRANCH  15  18
ENDBRANCH   1  15
BRANCH  12  19
ATOM     19  C   UNL     1      -5.989   0.473 128.080  0.00  0.00    +0.000 C 
BRANCH  19  20
ATOM     20  C   UNL     1      -6.032   1.739 127.162  0.00  0.00    +0.000 C 
ATOM     21  C   UNL     1      -4.744   1.827 126.311  0.00  0.00    +0.000 C 
BRANCH  20  22
ATOM     22  N   UNL     1      -7.238   1.858 126.285  0.00  0.00    +0.000 NA
ATOM     23  C   UNL     1      -7.788   3.222 126.323  0.00  0.00    +0.000 C 
ATOM     24  C   UNL     1      -6.855   1.574 124.887  0.00  0.00    +0.000 C 
ENDBRANCH  20  22
ENDBRANCH  19  20
ENDBRANCH  12  19
TORSDOF 5
ENDMDL
MODEL 9
REMARK VINA RESULT:      -6.2      4.692      7.968
REMARK  Name = Propiomazine
REMARK  9 active torsions:
REMARK  status: ('A' for Active; 'I' for Inactive)
REMARK    1  A    between atoms: C_1  and  C_2
REMARK    2  A    between atoms: C_2  and  C_3
REMARK    3  A    between atoms: C_3  and  C_5
REMARK    4  A    between atoms: N_16  and  C_17
REMARK    5  A    between atoms: C_17  and  C_18
REMARK    6  A    between atoms: C_18  and  C_19
REMARK    7  A    between atoms: C_18  and  N_20
REMARK    8  A    between atoms: N_20  and  C_21
REMARK    9  A    between atoms: N_20  and  C_22
REMARK                            x       y       z     vdW  Elec       q    Type
REMARK                         _______ _______ _______ _____ _____    ______ ____
ROOT
ATOM      1  C   UNL     1      -6.607   2.654 123.120  0.00  0.00    +0.000 A 
ATOM      2  C   UNL     1      -6.065   3.368 124.191  0.00  0.00    +0.000 A 
ATOM      3  C   UNL     1      -5.911   2.751 125.439  0.00  0.00    +0.000 A 
ATOM      4  C   UNL     1      -6.283   1.397 125.586  0.00  0.00    +0.000 A 
ATOM      5  S   UNL     1      -6.144   0.576 127.166  0.00  0.00    +0.000 S 
ATOM      6  C   UNL     1      -6.496   1.977 128.221  0.00  0.00    +0.000 A 
ATOM      7  C   UNL     1      -7.055   1.749 129.481  0.00  0.00    +0.000 A 
ATOM      8  C   UNL     1      -7.287   2.816 130.350  0.00  0.00    +0.000 A 
ATOM      9  C   UNL     1      -6.989   4.113 129.955  0.00  0.00    +0.000 A 
ATOM     10  C   UNL     1      -6.501   4.346 128.676  0.00  0.00    +0.000 A 
ATOM     11  C   UNL     1      -6.179   3.289 127.811  0.00  0.00    +0.000 A 
ATOM     12  N   UNL     1      -5.576   3.539 126.569  0.00  0.00    +0.000 N 
ATOM     13  C   UNL     1      -6.817   0.687 124.509  0.00  0.00    +0.000 A 
ATOM     14  C   UNL     1      -6.993   1.320 123.281  0.00  0.00    +0.000 A 
ENDROOT
BRANCH   1  15
ATOM     15  C   UNL     1      -6.845   3.313 121.820  0.00  0.00    +0.000 C 
ATOM     16  O   UNL     1      -8.008   3.512 121.462  0.00  0.00    +0.000 OA
BRANCH  15  18
ATOM     17  C   UNL     1      -6.004   4.636 119.871  0.00  0.00    +0.000 C 
ATOM     18  C   UNL     1      -5.638   3.654 120.969  0.00  0.00    +0.000 C 
ENDBRANCH  15  18
ENDBRANCH   1  15
BRANCH  12  19
ATOM     19  C   UNL     1      -4.266   4.254 126.464  0.00  0.00    +0.000 C 
BRANCH  19  20
ATOM     20  C   UNL     1      -3.123   3.788 127.425  0.00  0.00    +0.000 C 
ATOM     21  C   UNL     1      -1.966   3.159 126.615  0.00  0.00    +0.000 C 
BRANCH  20  22
ATOM     22  N   UNL     1      -2.593   4.836 128.351  0.00  0.00    +0.000 NA
ATOM     23  C   UNL     1      -3.109   6.168 127.996  0.00  0.00    +0.000 C 
ATOM     24  C   UNL     1      -3.038   4.543 129.729  0.00  0.00    +0.000 C 
ENDBRANCH  20  22
ENDBRANCH  19  20
ENDBRANCH  12  19
TORSDOF 5
ENDMDL
