MODEL 1
REMARK VINA RESULT:      -7.2      0.000      0.000
REMARK  Name = Propiverine
REMARK  10 active torsions:
REMARK  status: ('A' for Active; 'I' for Inactive)
REMARK    1  A    between atoms: C_1  and  C_2
REMARK    2  A    between atoms: C_2  and  C_3
REMARK    3  A    between atoms: C_3  and  O_4
REMARK    4  A    between atoms: O_4  and  C_5
REMARK    5  A    between atoms: C_5  and  C_6
REMARK    6  A    between atoms: C_5  and  C_16
REMARK    7  A    between atoms: C_5  and  C_22
REMARK    8  A    between atoms: C_6  and  O_8
REMARK    9  A    between atoms: O_8  and  C_9
REMARK   10  A    between atoms: N_12  and  C_13
REMARK                            x       y       z     vdW  Elec       q    Type
REMARK                         _______ _______ _______ _____ _____    ______ ____
ROOT
ATOM      1  C   UNL     1      -8.220  -0.591 124.518  0.00  0.00    +0.000 C 
ENDROOT
BRANCH   1   2
ATOM      2  C   UNL     1      -7.732   0.276 125.718  0.00  0.00    +0.000 A 
ATOM      3  C   UNL     1      -6.404   0.745 125.863  0.00  0.00    +0.000 A 
ATOM      4  C   UNL     1      -5.976   1.369 127.027  0.00  0.00    +0.000 A 
ATOM      5  C   UNL     1      -6.884   1.592 128.050  0.00  0.00    +0.000 A 
ATOM      6  C   UNL     1      -8.212   1.188 127.910  0.00  0.00    +0.000 A 
ATOM      7  C   UNL     1      -8.635   0.537 126.755  0.00  0.00    +0.000 A 
ENDBRANCH   1   2
BRANCH   1   8
ATOM      8  C   UNL     1      -7.078  -1.507 124.094  0.00  0.00    +0.000 A 
ATOM      9  C   UNL     1      -6.324  -2.202 125.061  0.00  0.00    +0.000 A 
ATOM     10  C   UNL     1      -5.232  -2.975 124.683  0.00  0.00    +0.000 A 
ATOM     11  C   UNL     1      -4.932  -3.127 123.332  0.00  0.00    +0.000 A 
ATOM     12  C   UNL     1      -5.703  -2.489 122.362  0.00  0.00    +0.000 A 
ATOM     13  C   UNL     1      -6.768  -1.680 122.740  0.00  0.00    +0.000 A 
ENDBRANCH   1   8
BRANCH   1  14
ATOM     14  C   UNL     1      -8.747   0.247 123.370  0.00  0.00    +0.000 C 
ATOM     15  O   UNL     1      -9.830  -0.127 122.881  0.00  0.00    +0.000 OA
BRANCH  14  16
ATOM     16  O   UNL     1      -8.009   1.288 122.873  0.00  0.00    +0.000 OA
BRANCH  16  17
ATOM     17  C   UNL     1      -8.548   2.659 122.996  0.00  0.00    +0.000 C 
ATOM     18  C   UNL     1      -8.553   3.410 121.651  0.00  0.00    +0.000 C 
ATOM     19  C   UNL     1      -7.134   3.574 121.101  0.00  0.00    +0.000 C 
ATOM     20  N   UNL     1      -6.241   4.260 122.062  0.00  0.00    +0.000 NA
ATOM     21  C   UNL     1      -4.862   4.215 121.561  0.00  0.00    +0.000 C 
ATOM     22  C   UNL     1      -6.280   3.582 123.361  0.00  0.00    +0.000 C 
ATOM     23  C   UNL     1      -7.723   3.553 123.922  0.00  0.00    +0.000 C 
ENDBRANCH  16  17
ENDBRANCH  14  16
ENDBRANCH   1  14
BRANCH   1  24
ATOM     24  O   UNL     1      -9.396  -1.360 124.925  0.00  0.00    +0.000 OA
BRANCH  24  25
ATOM     25  C   UNL     1      -9.108  -2.750 125.117  0.00  0.00    +0.000 C 
BRANCH  25  27
ATOM     26  C   UNL     1      -8.723  -3.514 127.409  0.00  0.00    +0.000 C 
ATOM     27  C   UNL     1      -9.788  -3.255 126.360  0.00  0.00    +0.000 C 
ENDBRANCH  25  27
ENDBRANCH  24  25
ENDBRANCH   1  24
TORSDOF 8
ENDMDL
MODEL 2
REMARK VINA RESULT:      -6.9      1.635      4.395
REMARK  Name = Propiverine
REMARK  10 active torsions:
REMARK  status: ('A' for Active; 'I' for Inactive)
REMARK    1  A    between atoms: C_1  and  C_2
REMARK    2  A    between atoms: C_2  and  C_3
REMARK    3  A    between atoms: C_3  and  O_4
REMARK    4  A    between atoms: O_4  and  C_5
REMARK    5  A    between atoms: C_5  and  C_6
REMARK    6  A    between atoms: C_5  and  C_16
REMARK    7  A    between atoms: C_5  and  C_22
REMARK    8  A    between atoms: C_6  and  O_8
REMARK    9  A    between atoms: O_8  and  C_9
REMARK   10  A    between atoms: N_12  and  C_13
REMARK                            x       y       z     vdW  Elec       q    Type
REMARK                         _______ _______ _______ _____ _____    ______ ____
ROOT
ATOM      1  C   UNL     1      -6.958  -0.734 126.298  0.00  0.00    +0.000 C 
ENDROOT
BRANCH   1   2
ATOM      2  C   UNL     1      -6.380  -1.357 124.992  0.00  0.00    +0.000 A 
ATOM      3  C   UNL     1      -6.842  -1.035 123.693  0.00  0.00    +0.000 A 
ATOM      4  C   UNL     1      -6.414  -1.736 122.574  0.00  0.00    +0.000 A 
ATOM      5  C   UNL     1      -5.467  -2.737 122.722  0.00  0.00    +0.000 A 
ATOM      6  C   UNL     1      -4.955  -3.038 123.985  0.00  0.00    +0.000 A 
ATOM      7  C   UNL     1      -5.405  -2.355 125.111  0.00  0.00    +0.000 A 
ENDBRANCH   1   2
BRANCH   1   8
ATOM      8  C   UNL     1      -7.656  -1.836 127.087  0.00  0.00    +0.000 A 
ATOM      9  C   UNL     1      -7.345  -2.047 128.446  0.00  0.00    +0.000 A 
ATOM     10  C   UNL     1      -7.920  -3.103 129.145  0.00  0.00    +0.000 A 
ATOM     11  C   UNL     1      -8.870  -3.906 128.520  0.00  0.00    +0.000 A 
ATOM     12  C   UNL     1      -9.227  -3.673 127.192  0.00  0.00    +0.000 A 
ATOM     13  C   UNL     1      -8.621  -2.647 126.478  0.00  0.00    +0.000 A 
ENDBRANCH   1   8
BRANCH   1  14
ATOM     14  C   UNL     1      -7.866   0.449 126.028  0.00  0.00    +0.000 C 
ATOM     15  O   UNL     1      -8.646   0.754 126.950  0.00  0.00    +0.000 OA
BRANCH  14  16
ATOM     16  O   UNL     1      -7.861   1.062 124.803  0.00  0.00    +0.000 OA
BRANCH  16  17
ATOM     17  C   UNL     1      -8.651   2.299 124.629  0.00  0.00    +0.000 C 
ATOM     18  C   UNL     1      -8.998   2.571 123.153  0.00  0.00    +0.000 C 
ATOM     19  C   UNL     1      -7.734   2.768 122.312  0.00  0.00    +0.000 C 
ATOM     20  N   UNL     1      -6.879   3.855 122.840  0.00  0.00    +0.000 NA
ATOM     21  C   UNL     1      -5.604   3.867 122.113  0.00  0.00    +0.000 C 
ATOM     22  C   UNL     1      -6.596   3.631 124.261  0.00  0.00    +0.000 C 
ATOM     23  C   UNL     1      -7.909   3.559 125.077  0.00  0.00    +0.000 C 
ENDBRANCH  16  17
ENDBRANCH  14  16
ENDBRANCH   1  14
BRANCH   1  24
ATOM     24  O   UNL     1      -5.869  -0.137 127.071  0.00  0.00    +0.000 OA
BRANCH  24  25
ATOM     25  C   UNL     1      -5.151   0.861 126.333  0.00  0.00    +0.000 C 
BRANCH  25  27
ATOM     26  C   UNL     1      -3.669   2.797 126.533  0.00  0.00    +0.000 C 
ATOM     27  C   UNL     1      -4.731   1.980 127.246  0.00  0.00    +0.000 C 
ENDBRANCH  25  27
ENDBRANCH  24  25
ENDBRANCH   1  24
TORSDOF 8
ENDMDL
MODEL 3
REMARK VINA RESULT:      -6.6      1.903      4.281
REMARK  Name = Propiverine
REMARK  10 active torsions:
REMARK  status: ('A' for Active; 'I' for Inactive)
REMARK    1  A    between atoms: C_1  and  C_2
REMARK    2  A    between atoms: C_2  and  C_3
REMARK    3  A    between atoms: C_3  and  O_4
REMARK    4  A    between atoms: O_4  and  C_5
REMARK    5  A    between atoms: C_5  and  C_6
REMARK    6  A    between atoms: C_5  and  C_16
REMARK    7  A    between atoms: C_5  and  C_22
REMARK    8  A    between atoms: C_6  and  O_8
REMARK    9  A    between atoms: O_8  and  C_9
REMARK   10  A    between atoms: N_12  and  C_13
REMARK                            x       y       z     vdW  Elec       q    Type
REMARK                         _______ _______ _______ _____ _____    ______ ____
ROOT
ATOM      1  C   UNL     1      -7.114  -1.144 125.999  0.00  0.00    +0.000 C 
ENDROOT
BRANCH   1   2
ATOM      2  C   UNL     1      -8.096  -1.774 124.964  0.00  0.00    +0.000 A 
ATOM      3  C   UNL     1      -8.473  -3.138 124.965  0.00  0.00    +0.000 A 
ATOM      4  C   UNL     1      -9.215  -3.688 123.929  0.00  0.00    +0.000 A 
ATOM      5  C   UNL     1      -9.649  -2.871 122.897  0.00  0.00    +0.000 A 
ATOM      6  C   UNL     1      -9.337  -1.511 122.900  0.00  0.00    +0.000 A 
ATOM      7  C   UNL     1      -8.569  -0.965 123.924  0.00  0.00    +0.000 A 
ENDBRANCH   1   2
BRANCH   1   8
ATOM      8  C   UNL     1      -7.113  -2.015 127.249  0.00  0.00    +0.000 A 
ATOM      9  C   UNL     1      -8.284  -2.690 127.650  0.00  0.00    +0.000 A 
ATOM     10  C   UNL     1      -8.308  -3.419 128.833  0.00  0.00    +0.000 A 
ATOM     11  C   UNL     1      -7.144  -3.548 129.586  0.00  0.00    +0.000 A 
ATOM     12  C   UNL     1      -5.965  -2.930 129.173  0.00  0.00    +0.000 A 
ATOM     13  C   UNL     1      -5.950  -2.164 128.013  0.00  0.00    +0.000 A 
ENDBRANCH   1   8
BRANCH   1  14
ATOM     14  C   UNL     1      -7.437   0.306 126.302  0.00  0.00    +0.000 C 
ATOM     15  O   UNL     1      -8.243   0.497 127.232  0.00  0.00    +0.000 OA
BRANCH  14  16
ATOM     16  O   UNL     1      -6.925   1.309 125.523  0.00  0.00    +0.000 OA
BRANCH  16  17
ATOM     17  C   UNL     1      -7.632   2.606 125.485  0.00  0.00    +0.000 C 
ATOM     18  C   UNL     1      -8.611   2.705 124.300  0.00  0.00    +0.000 C 
ATOM     19  C   UNL     1      -7.875   2.599 122.961  0.00  0.00    +0.000 C 
ATOM     20  N   UNL     1      -6.812   3.619 122.828  0.00  0.00    +0.000 NA
ATOM     21  C   UNL     1      -6.024   3.346 121.620  0.00  0.00    +0.000 C 
ATOM     22  C   UNL     1      -5.913   3.567 123.984  0.00  0.00    +0.000 C 
ATOM     23  C   UNL     1      -6.695   3.800 125.299  0.00  0.00    +0.000 C 
ENDBRANCH  16  17
ENDBRANCH  14  16
ENDBRANCH   1  14
BRANCH   1  24
ATOM     24  O   UNL     1      -5.779  -1.062 125.407  0.00  0.00    +0.000 OA
BRANCH  24  25
ATOM     25  C   UNL     1      -5.617  -1.936 124.283  0.00  0.00    +0.000 C 
BRANCH  25  27
ATOM     26  C   UNL     1      -4.481  -3.928 123.431  0.00  0.00    +0.000 C 
ATOM     27  C   UNL     1      -4.861  -3.170 124.690  0.00  0.00    +0.000 C 
ENDBRANCH  25  27
ENDBRANCH  24  25
ENDBRANCH   1  24
TORSDOF 8
ENDMDL
MODEL 4
REMARK VINA RESULT:      -6.6      2.600      6.298
REMARK  Name = Propiverine
REMARK  10 active torsions:
REMARK  status: ('A' for Active; 'I' for Inactive)
REMARK    1  A    between atoms: C_1  and  C_2
REMARK    2  A    between atoms: C_2  and  C_3
REMARK    3  A    between atoms: C_3  and  O_4
REMARK    4  A    between atoms: O_4  and  C_5
REMARK    5  A    between atoms: C_5  and  C_6
REMARK    6  A    between atoms: C_5  and  C_16
REMARK    7  A    between atoms: C_5  and  C_22
REMARK    8  A    between atoms: C_6  and  O_8
REMARK    9  A    between atoms: O_8  and  C_9
REMARK   10  A    between atoms: N_12  and  C_13
REMARK                            x       y       z     vdW  Elec       q    Type
REMARK                         _______ _______ _______ _____ _____    ______ ____
ROOT
ATOM      1  C   UNL     1      -8.359  -1.278 125.045  0.00  0.00    +0.000 C 
ENDROOT
BRANCH   1   2
ATOM      2  C   UNL     1      -7.241  -2.019 124.250  0.00  0.00    +0.000 A 
ATOM      3  C   UNL     1      -6.549  -3.154 124.736  0.00  0.00    +0.000 A 
ATOM      4  C   UNL     1      -5.450  -3.677 124.068  0.00  0.00    +0.000 A 
ATOM      5  C   UNL     1      -5.056  -3.112 122.865  0.00  0.00    +0.000 A 
ATOM      6  C   UNL     1      -5.755  -2.026 122.338  0.00  0.00    +0.000 A 
ATOM      7  C   UNL     1      -6.839  -1.483 123.021  0.00  0.00    +0.000 A 
ENDBRANCH   1   2
BRANCH   1   8
ATOM      8  C   UNL     1      -7.791   0.041 125.555  0.00  0.00    +0.000 A 
ATOM      9  C   UNL     1      -8.613   0.950 126.251  0.00  0.00    +0.000 A 
ATOM     10  C   UNL     1      -8.118   2.188 126.645  0.00  0.00    +0.000 A 
ATOM     11  C   UNL     1      -6.779   2.497 126.423  0.00  0.00    +0.000 A 
ATOM     12  C   UNL     1      -5.941   1.584 125.785  0.00  0.00    +0.000 A 
ATOM     13  C   UNL     1      -6.444   0.363 125.350  0.00  0.00    +0.000 A 
ENDBRANCH   1   8
BRANCH   1  14
ATOM     14  C   UNL     1      -8.943  -2.126 126.157  0.00  0.00    +0.000 C 
ATOM     15  O   UNL     1      -9.828  -2.933 125.814  0.00  0.00    +0.000 OA
BRANCH  14  16
ATOM     16  O   UNL     1      -8.560  -1.928 127.457  0.00  0.00    +0.000 OA
BRANCH  16  17
ATOM     17  C   UNL     1      -7.532  -2.819 128.035  0.00  0.00    +0.000 C 
ATOM     18  C   UNL     1      -7.831  -3.186 129.501  0.00  0.00    +0.000 C 
ATOM     19  C   UNL     1      -7.844  -1.941 130.393  0.00  0.00    +0.000 C 
ATOM     20  N   UNL     1      -6.577  -1.182 130.308  0.00  0.00    +0.000 NA
ATOM     21  C   UNL     1      -6.722   0.089 131.028  0.00  0.00    +0.000 C 
ATOM     22  C   UNL     1      -6.259  -0.883 128.909  0.00  0.00    +0.000 C 
ATOM     23  C   UNL     1      -6.141  -2.187 128.082  0.00  0.00    +0.000 C 
ENDBRANCH  16  17
ENDBRANCH  14  16
ENDBRANCH   1  14
BRANCH   1  24
ATOM     24  O   UNL     1      -9.509  -1.058 124.168  0.00  0.00    +0.000 OA
BRANCH  24  25
ATOM     25  C   UNL     1      -9.170  -0.318 122.988  0.00  0.00    +0.000 C 
BRANCH  25  27
ATOM     26  C   UNL     1      -9.182   2.122 122.809  0.00  0.00    +0.000 C 
ATOM     27  C   UNL     1     -10.061   0.886 122.856  0.00  0.00    +0.000 C 
ENDBRANCH  25  27
ENDBRANCH  24  25
ENDBRANCH   1  24
TORSDOF 8
ENDMDL
MODEL 5
REMARK VINA RESULT:      -6.6      2.672      5.579
REMARK  Name = Propiverine
REMARK  10 active torsions:
REMARK  status: ('A' for Active; 'I' for Inactive)
REMARK    1  A    between atoms: C_1  and  C_2
REMARK    2  A    between atoms: C_2  and  C_3
REMARK    3  A    between atoms: C_3  and  O_4
REMARK    4  A    between atoms: O_4  and  C_5
REMARK    5  A    between atoms: C_5  and  C_6
REMARK    6  A    between atoms: C_5  and  C_16
REMARK    7  A    between atoms: C_5  and  C_22
REMARK    8  A    between atoms: C_6  and  O_8
REMARK    9  A    between atoms: O_8  and  C_9
REMARK   10  A    between atoms: N_12  and  C_13
REMARK                            x       y       z     vdW  Elec       q    Type
REMARK                         _______ _______ _______ _____ _____    ______ ____
ROOT
ATOM      1  C   UNL     1      -7.440   2.943 123.929  0.00  0.00    +0.000 C 
ENDROOT
BRANCH   1   2
ATOM      2  C   UNL     1      -6.929   1.489 124.165  0.00  0.00    +0.000 A 
ATOM      3  C   UNL     1      -6.858   0.504 123.152  0.00  0.00    +0.000 A 
ATOM      4  C   UNL     1      -6.556  -0.820 123.443  0.00  0.00    +0.000 A 
ATOM      5  C   UNL     1      -6.259  -1.176 124.749  0.00  0.00    +0.000 A 
ATOM      6  C   UNL     1      -6.269  -0.212 125.759  0.00  0.00    +0.000 A 
ATOM      7  C   UNL     1      -6.599   1.109 125.472  0.00  0.00    +0.000 A 
ENDBRANCH   1   2
BRANCH   1   8
ATOM      8  C   UNL     1      -6.806   3.471 122.647  0.00  0.00    +0.000 A 
ATOM      9  C   UNL     1      -5.480   3.951 122.652  0.00  0.00    +0.000 A 
ATOM     10  C   UNL     1      -4.928   4.507 121.503  0.00  0.00    +0.000 A 
ATOM     11  C   UNL     1      -5.663   4.516 120.321  0.00  0.00    +0.000 A 
ATOM     12  C   UNL     1      -6.955   3.995 120.289  0.00  0.00    +0.000 A 
ATOM     13  C   UNL     1      -7.526   3.478 121.447  0.00  0.00    +0.000 A 
ENDBRANCH   1   8
BRANCH   1  14
ATOM     14  C   UNL     1      -7.187   3.851 125.116  0.00  0.00    +0.000 C 
ATOM     15  O   UNL     1      -7.857   4.900 125.146  0.00  0.00    +0.000 OA
BRANCH  14  16
ATOM     16  O   UNL     1      -6.214   3.544 126.030  0.00  0.00    +0.000 OA
BRANCH  16  17
ATOM     17  C   UNL     1      -4.943   4.296 125.988  0.00  0.00    +0.000 C 
ATOM     18  C   UNL     1      -3.716   3.387 126.190  0.00  0.00    +0.000 C 
ATOM     19  C   UNL     1      -3.748   2.709 127.562  0.00  0.00    +0.000 C 
ATOM     20  N   UNL     1      -3.839   3.690 128.666  0.00  0.00    +0.000 NA
ATOM     21  C   UNL     1      -4.058   2.980 129.932  0.00  0.00    +0.000 C 
ATOM     22  C   UNL     1      -4.970   4.595 128.446  0.00  0.00    +0.000 C 
ATOM     23  C   UNL     1      -4.822   5.341 127.098  0.00  0.00    +0.000 C 
ENDBRANCH  16  17
ENDBRANCH  14  16
ENDBRANCH   1  14
BRANCH   1  24
ATOM     24  O   UNL     1      -8.899   2.931 123.834  0.00  0.00    +0.000 OA
BRANCH  24  25
ATOM     25  C   UNL     1      -9.495   1.888 124.616  0.00  0.00    +0.000 C 
BRANCH  25  27
ATOM     26  C   UNL     1     -10.227   0.747 122.580  0.00  0.00    +0.000 C 
ATOM     27  C   UNL     1     -10.693   1.324 123.903  0.00  0.00    +0.000 C 
ENDBRANCH  25  27
ENDBRANCH  24  25
ENDBRANCH   1  24
TORSDOF 8
ENDMDL
MODEL 6
REMARK VINA RESULT:      -6.5      2.213      4.745
REMARK  Name = Propiverine
REMARK  10 active torsions:
REMARK  status: ('A' for Active; 'I' for Inactive)
REMARK    1  A    between atoms: C_1  and  C_2
REMARK    2  A    between atoms: C_2  and  C_3
REMARK    3  A    between atoms: C_3  and  O_4
REMARK    4  A    between atoms: O_4  and  C_5
REMARK    5  A    between atoms: C_5  and  C_6
REMARK    6  A    between atoms: C_5  and  C_16
REMARK    7  A    between atoms: C_5  and  C_22
REMARK    8  A    between atoms: C_6  and  O_8
REMARK    9  A    between atoms: O_8  and  C_9
REMARK   10  A    between atoms: N_12  and  C_13
REMARK                            x       y       z     vdW  Elec       q    Type
REMARK                         _______ _______ _______ _____ _____    ______ ____
ROOT
ATOM      1  C   UNL     1      -7.552   0.007 125.023  0.00  0.00    +0.000 C 
ENDROOT
BRANCH   1   2
ATOM      2  C   UNL     1      -6.561  -1.015 124.388  0.00  0.00    +0.000 A 
ATOM      3  C   UNL     1      -6.542  -1.344 123.011  0.00  0.00    +0.000 A 
ATOM      4  C   UNL     1      -5.758  -2.379 122.521  0.00  0.00    +0.000 A 
ATOM      5  C   UNL     1      -4.928  -3.071 123.389  0.00  0.00    +0.000 A 
ATOM      6  C   UNL     1      -4.888  -2.731 124.742  0.00  0.00    +0.000 A 
ATOM      7  C   UNL     1      -5.695  -1.712 125.239  0.00  0.00    +0.000 A 
ENDBRANCH   1   2
BRANCH   1   8
ATOM      8  C   UNL     1      -7.892   1.059 123.974  0.00  0.00    +0.000 A 
ATOM      9  C   UNL     1      -6.894   1.929 123.486  0.00  0.00    +0.000 A 
ATOM     10  C   UNL     1      -7.218   2.941 122.590  0.00  0.00    +0.000 A 
ATOM     11  C   UNL     1      -8.521   3.046 122.111  0.00  0.00    +0.000 A 
ATOM     12  C   UNL     1      -9.505   2.158 122.544  0.00  0.00    +0.000 A 
ATOM     13  C   UNL     1      -9.194   1.172 123.474  0.00  0.00    +0.000 A 
ENDBRANCH   1   8
BRANCH   1  14
ATOM     14  C   UNL     1      -7.019   0.617 126.304  0.00  0.00    +0.000 C 
ATOM     15  O   UNL     1      -7.664   0.354 127.337  0.00  0.00    +0.000 OA
BRANCH  14  16
ATOM     16  O   UNL     1      -5.946   1.468 126.275  0.00  0.00    +0.000 OA
BRANCH  16  17
ATOM     17  C   UNL     1      -6.048   2.759 126.988  0.00  0.00    +0.000 C 
ATOM     18  C   UNL     1      -5.466   3.928 126.172  0.00  0.00    +0.000 C 
ATOM     19  C   UNL     1      -3.974   3.726 125.898  0.00  0.00    +0.000 C 
ATOM     20  N   UNL     1      -3.199   3.543 127.146  0.00  0.00    +0.000 NA
ATOM     21  C   UNL     1      -1.821   3.166 126.811  0.00  0.00    +0.000 C 
ATOM     22  C   UNL     1      -3.786   2.471 127.953  0.00  0.00    +0.000 C 
ATOM     23  C   UNL     1      -5.261   2.788 128.299  0.00  0.00    +0.000 C 
ENDBRANCH  16  17
ENDBRANCH  14  16
ENDBRANCH   1  14
BRANCH   1  24
ATOM     24  O   UNL     1      -8.750  -0.700 125.474  0.00  0.00    +0.000 OA
BRANCH  24  25
ATOM     25  C   UNL     1      -8.486  -2.061 125.834  0.00  0.00    +0.000 C 
BRANCH  25  27
ATOM     26  C   UNL     1      -9.405  -3.296 123.933  0.00  0.00    +0.000 C 
ATOM     27  C   UNL     1      -9.620  -2.945 125.394  0.00  0.00    +0.000 C 
ENDBRANCH  25  27
ENDBRANCH  24  25
ENDBRANCH   1  24
TORSDOF 8
ENDMDL
MODEL 7
REMARK VINA RESULT:      -6.5      2.698      5.967
REMARK  Name = Propiverine
REMARK  10 active torsions:
REMARK  status: ('A' for Active; 'I' for Inactive)
REMARK    1  A    between atoms: C_1  and  C_2
REMARK    2  A    between atoms: C_2  and  C_3
REMARK    3  A    between atoms: C_3  and  O_4
REMARK    4  A    between atoms: O_4  and  C_5
REMARK    5  A    between atoms: C_5  and  C_6
REMARK    6  A    between atoms: C_5  and  C_16
REMARK    7  A    between atoms: C_5  and  C_22
REMARK    8  A    between atoms: C_6  and  O_8
REMARK    9  A    between atoms: O_8  and  C_9
REMARK   10  A    between atoms: N_12  and  C_13
REMARK                            x       y       z     vdW  Elec       q    Type
REMARK                         _______ _______ _______ _____ _____    ______ ____
ROOT
ATOM      1  C   UNL     1      -8.038  -0.386 124.817  0.00  0.00    +0.000 C 
ENDROOT
BRANCH   1   2
ATOM      2  C   UNL     1      -6.834  -1.273 124.374  0.00  0.00    +0.000 A 
ATOM      3  C   UNL     1      -6.549  -1.599 123.026  0.00  0.00    +0.000 A 
ATOM      4  C   UNL     1      -5.570  -2.525 122.693  0.00  0.00    +0.000 A 
ATOM      5  C   UNL     1      -4.813  -3.103 123.700  0.00  0.00    +0.000 A 
ATOM      6  C   UNL     1      -5.038  -2.758 125.033  0.00  0.00    +0.000 A 
ATOM      7  C   UNL     1      -6.038  -1.851 125.370  0.00  0.00    +0.000 A 
ENDBRANCH   1   2
BRANCH   1   8
ATOM      8  C   UNL     1      -8.007   0.903 124.004  0.00  0.00    +0.000 A 
ATOM      9  C   UNL     1      -9.118   1.281 123.223  0.00  0.00    +0.000 A 
ATOM     10  C   UNL     1      -9.062   2.413 122.418  0.00  0.00    +0.000 A 
ATOM     11  C   UNL     1      -7.930   3.223 122.447  0.00  0.00    +0.000 A 
ATOM     12  C   UNL     1      -6.845   2.890 123.257  0.00  0.00    +0.000 A 
ATOM     13  C   UNL     1      -6.881   1.735 124.029  0.00  0.00    +0.000 A 
ENDBRANCH   1   8
BRANCH   1  14
ATOM     14  C   UNL     1      -8.055  -0.129 126.311  0.00  0.00    +0.000 C 
ATOM     15  O   UNL     1      -8.764   0.823 126.688  0.00  0.00    +0.000 OA
BRANCH  14  16
ATOM     16  O   UNL     1      -7.259  -0.863 127.150  0.00  0.00    +0.000 OA
BRANCH  16  17
ATOM     17  C   UNL     1      -7.481  -0.755 128.607  0.00  0.00    +0.000 C 
ATOM     18  C   UNL     1      -6.250  -0.200 129.349  0.00  0.00    +0.000 C 
ATOM     19  C   UNL     1      -5.040  -1.123 129.184  0.00  0.00    +0.000 C 
ATOM     20  N   UNL     1      -5.326  -2.502 129.638  0.00  0.00    +0.000 NA
ATOM     21  C   UNL     1      -4.202  -3.375 129.280  0.00  0.00    +0.000 C 
ATOM     22  C   UNL     1      -6.532  -3.012 128.979  0.00  0.00    +0.000 C 
ATOM     23  C   UNL     1      -7.748  -2.102 129.280  0.00  0.00    +0.000 C 
ENDBRANCH  16  17
ENDBRANCH  14  16
ENDBRANCH   1  14
BRANCH   1  24
ATOM     24  O   UNL     1      -9.284  -1.121 124.600  0.00  0.00    +0.000 OA
BRANCH  24  25
ATOM     25  C   UNL     1      -9.433  -2.231 125.494  0.00  0.00    +0.000 C 
BRANCH  25  27
ATOM     26  C   UNL     1      -9.720  -3.298 123.311  0.00  0.00    +0.000 C 
ATOM     27  C   UNL     1      -9.279  -3.526 124.745  0.00  0.00    +0.000 C 
ENDBRANCH  25  27
ENDBRANCH  24  25
ENDBRANCH   1  24
TORSDOF 8
ENDMDL
MODEL 8
REMARK VINA RESULT:      -6.5      1.405      4.251
REMARK  Name = Propiverine
REMARK  10 active torsions:
REMARK  status: ('A' for Active; 'I' for Inactive)
REMARK    1  A    between atoms: C_1  and  C_2
REMARK    2  A    between atoms: C_2  and  C_3
REMARK    3  A    between atoms: C_3  and  O_4
REMARK    4  A    between atoms: O_4  and  C_5
REMARK    5  A    between atoms: C_5  and  C_6
REMARK    6  A    between atoms: C_5  and  C_16
REMARK    7  A    between atoms: C_5  and  C_22
REMARK    8  A    between atoms: C_6  and  O_8
REMARK    9  A    between atoms: O_8  and  C_9
REMARK   10  A    between atoms: N_12  and  C_13
REMARK                            x       y       z     vdW  Elec       q    Type
REMARK                         _______ _______ _______ _____ _____    ______ ____
ROOT
ATOM      1  C   UNL     1      -7.570  -0.225 126.265  0.00  0.00    +0.000 C 
ENDROOT
BRANCH   1   2
ATOM      2  C   UNL     1      -7.906  -1.554 127.006  0.00  0.00    +0.000 A 
ATOM      3  C   UNL     1      -8.619  -2.626 126.416  0.00  0.00    +0.000 A 
ATOM      4  C   UNL     1      -9.040  -3.718 127.163  0.00  0.00    +0.000 A 
ATOM      5  C   UNL     1      -8.705  -3.791 128.506  0.00  0.00    +0.000 A 
ATOM      6  C   UNL     1      -7.956  -2.773 129.099  0.00  0.00    +0.000 A 
ATOM      7  C   UNL     1      -7.559  -1.664 128.357  0.00  0.00    +0.000 A 
ENDBRANCH   1   2
BRANCH   1   8
ATOM      8  C   UNL     1      -7.420   0.879 127.306  0.00  0.00    +0.000 A 
ATOM      9  C   UNL     1      -8.555   1.405 127.956  0.00  0.00    +0.000 A 
ATOM     10  C   UNL     1      -8.430   2.466 128.845  0.00  0.00    +0.000 A 
ATOM     11  C   UNL     1      -7.165   2.958 129.155  0.00  0.00    +0.000 A 
ATOM     12  C   UNL     1      -6.030   2.411 128.560  0.00  0.00    +0.000 A 
ATOM     13  C   UNL     1      -6.156   1.379 127.637  0.00  0.00    +0.000 A 
ENDBRANCH   1   8
BRANCH   1  14
ATOM     14  C   UNL     1      -8.588   0.121 125.196  0.00  0.00    +0.000 C 
ATOM     15  O   UNL     1      -9.712  -0.398 125.331  0.00  0.00    +0.000 OA
BRANCH  14  16
ATOM     16  O   UNL     1      -8.230   0.888 124.119  0.00  0.00    +0.000 OA
BRANCH  16  17
ATOM     17  C   UNL     1      -8.975   2.138 123.863  0.00  0.00    +0.000 C 
ATOM     18  C   UNL     1      -8.686   2.718 122.465  0.00  0.00    +0.000 C 
ATOM     19  C   UNL     1      -7.207   3.081 122.310  0.00  0.00    +0.000 C 
ATOM     20  N   UNL     1      -6.752   4.026 123.354  0.00  0.00    +0.000 NA
ATOM     21  C   UNL     1      -5.296   4.183 123.268  0.00  0.00    +0.000 C 
ATOM     22  C   UNL     1      -7.080   3.505 124.684  0.00  0.00    +0.000 C 
ATOM     23  C   UNL     1      -8.604   3.270 124.822  0.00  0.00    +0.000 C 
ENDBRANCH  16  17
ENDBRANCH  14  16
ENDBRANCH   1  14
BRANCH   1  24
ATOM     24  O   UNL     1      -6.338  -0.400 125.495  0.00  0.00    +0.000 OA
BRANCH  24  25
ATOM     25  C   UNL     1      -6.006  -1.779 125.292  0.00  0.00    +0.000 C 
BRANCH  25  27
ATOM     26  C   UNL     1      -4.959  -3.299 123.686  0.00  0.00    +0.000 C 
ATOM     27  C   UNL     1      -5.820  -2.058 123.826  0.00  0.00    +0.000 C 
ENDBRANCH  25  27
ENDBRANCH  24  25
ENDBRANCH   1  24
TORSDOF 8
ENDMDL
MODEL 9
REMARK VINA RESULT:      -6.5      2.293      4.213
REMARK  Name = Propiverine
REMARK  10 active torsions:
REMARK  status: ('A' for Active; 'I' for Inactive)
REMARK    1  A    between atoms: C_1  and  C_2
REMARK    2  A    between atoms: C_2  and  C_3
REMARK    3  A    between atoms: C_3  and  O_4
REMARK    4  A    between atoms: O_4  and  C_5
REMARK    5  A    between atoms: C_5  and  C_6
REMARK    6  A    between atoms: C_5  and  C_16
REMARK    7  A    between atoms: C_5  and  C_22
REMARK    8  A    between atoms: C_6  and  O_8
REMARK    9  A    between atoms: O_8  and  C_9
REMARK   10  A    between atoms: N_12  and  C_13
REMARK                            x       y       z     vdW  Elec       q    Type
REMARK                         _______ _______ _______ _____ _____    ______ ____
ROOT
ATOM      1  C   UNL     1      -6.685  -0.758 126.172  0.00  0.00    +0.000 C 
ENDROOT
BRANCH   1   2
ATOM      2  C   UNL     1      -7.514  -1.731 127.065  0.00  0.00    +0.000 A 
ATOM      3  C   UNL     1      -7.476  -1.727 128.480  0.00  0.00    +0.000 A 
ATOM      4  C   UNL     1      -8.100  -2.717 129.227  0.00  0.00    +0.000 A 
ATOM      5  C   UNL     1      -8.827  -3.701 128.576  0.00  0.00    +0.000 A 
ATOM      6  C   UNL     1      -8.924  -3.697 127.184  0.00  0.00    +0.000 A 
ATOM      7  C   UNL     1      -8.276  -2.721 126.433  0.00  0.00    +0.000 A 
ENDBRANCH   1   2
BRANCH   1   8
ATOM      8  C   UNL     1      -6.271  -1.504 124.909  0.00  0.00    +0.000 A 
ATOM      9  C   UNL     1      -5.380  -2.595 124.984  0.00  0.00    +0.000 A 
ATOM     10  C   UNL     1      -4.937  -3.224 123.826  0.00  0.00    +0.000 A 
ATOM     11  C   UNL     1      -5.440  -2.825 122.591  0.00  0.00    +0.000 A 
ATOM     12  C   UNL     1      -6.362  -1.784 122.507  0.00  0.00    +0.000 A 
ATOM     13  C   UNL     1      -6.773  -1.123 123.659  0.00  0.00    +0.000 A 
ENDBRANCH   1   8
BRANCH   1  14
ATOM     14  C   UNL     1      -5.503  -0.158 126.905  0.00  0.00    +0.000 C 
ATOM     15  O   UNL     1      -5.095  -0.801 127.892  0.00  0.00    +0.000 OA
BRANCH  14  16
ATOM     16  O   UNL     1      -4.998   1.059 126.531  0.00  0.00    +0.000 OA
BRANCH  16  17
ATOM     17  C   UNL     1      -4.686   2.049 127.583  0.00  0.00    +0.000 C 
ATOM     18  C   UNL     1      -5.933   2.827 128.044  0.00  0.00    +0.000 C 
ATOM     19  C   UNL     1      -6.544   3.630 126.893  0.00  0.00    +0.000 C 
ATOM     20  N   UNL     1      -5.567   4.556 126.279  0.00  0.00    +0.000 NA
ATOM     21  C   UNL     1      -6.151   5.150 125.071  0.00  0.00    +0.000 C 
ATOM     22  C   UNL     1      -4.354   3.829 125.893  0.00  0.00    +0.000 C 
ATOM     23  C   UNL     1      -3.715   3.136 127.121  0.00  0.00    +0.000 C 
ENDBRANCH  16  17
ENDBRANCH  14  16
ENDBRANCH   1  14
BRANCH   1  24
ATOM     24  O   UNL     1      -7.499   0.415 125.853  0.00  0.00    +0.000 OA
BRANCH  24  25
ATOM     25  C   UNL     1      -8.765   0.409 126.525  0.00  0.00    +0.000 C 
BRANCH  25  27
ATOM     26  C   UNL     1      -9.322   1.708 124.529  0.00  0.00    +0.000 C 
ATOM     27  C   UNL     1      -9.868   0.737 125.558  0.00  0.00    +0.000 C 
ENDBRANCH  25  27
ENDBRANCH  24  25
ENDBRANCH   1  24
TORSDOF 8
ENDMDL
