MODEL 1
REMARK VINA RESULT:      -3.1      0.000      0.000
REMARK  Name = Propyl alcohol
REMARK  3 active torsions:
REMARK  status: ('A' for Active; 'I' for Inactive)
REMARK    1  A    between atoms: C_1  and  C_2
REMARK    2  A    between atoms: C_2  and  C_3
REMARK    3  A    between atoms: C_3  and  O_4
REMARK                            x       y       z     vdW  Elec       q    Type
REMARK                         _______ _______ _______ _____ _____    ______ ____
ROOT
ATOM      1  C   UNL     1      -5.437   5.460 119.444  0.00  0.00    +0.000 C 
ENDROOT
BRANCH   1   3
ATOM      2  C   UNL     1      -5.344   3.443 120.938  0.00  0.00    +0.000 C 
ATOM      3  C   UNL     1      -6.238   4.349 120.109  0.00  0.00    +0.000 C 
ENDBRANCH   1   3
BRANCH   1   4
ATOM      4  O   UNL     1      -4.686   6.167 120.420  0.00  0.00    +0.000 OA
ATOM      5  H   UNL     1      -3.744   6.024 120.226  0.00  0.00    +0.000 HD
ENDBRANCH   1   4
TORSDOF 2
ENDMDL
MODEL 2
REMARK VINA RESULT:      -3.0      9.061      9.915
REMARK  Name = Propyl alcohol
REMARK  3 active torsions:
REMARK  status: ('A' for Active; 'I' for Inactive)
REMARK    1  A    between atoms: C_1  and  C_2
REMARK    2  A    between atoms: C_2  and  C_3
REMARK    3  A    between atoms: C_3  and  O_4
REMARK                            x       y       z     vdW  Elec       q    Type
REMARK                         _______ _______ _______ _____ _____    ______ ____
ROOT
ATOM      1  C   UNL     1      -3.931  -4.512 123.588  0.00  0.00    +0.000 C 
ENDROOT
BRANCH   1   3
ATOM      2  C   UNL     1      -5.522  -2.602 123.233  0.00  0.00    +0.000 C 
ATOM      3  C   UNL     1      -5.255  -3.884 124.001  0.00  0.00    +0.000 C 
ENDBRANCH   1   3
BRANCH   1   4
ATOM      4  O   UNL     1      -4.166  -5.751 122.934  0.00  0.00    +0.000 OA
ATOM      5  H   UNL     1      -5.018  -5.682 122.473  0.00  0.00    +0.000 HD
ENDBRANCH   1   4
TORSDOF 2
ENDMDL
MODEL 3
REMARK VINA RESULT:      -3.0     14.385     14.556
REMARK  Name = Propyl alcohol
REMARK  3 active torsions:
REMARK  status: ('A' for Active; 'I' for Inactive)
REMARK    1  A    between atoms: C_1  and  C_2
REMARK    2  A    between atoms: C_2  and  C_3
REMARK    3  A    between atoms: C_3  and  O_4
REMARK                            x       y       z     vdW  Elec       q    Type
REMARK                         _______ _______ _______ _____ _____    ______ ____
ROOT
ATOM      1  C   UNL     1     -13.854  12.317 130.026  0.00  0.00    +0.000 C 
ENDROOT
BRANCH   1   3
ATOM      2  C   UNL     1     -13.211  10.000 129.300  0.00  0.00    +0.000 C 
ATOM      3  C   UNL     1     -13.401  10.936 130.481  0.00  0.00    +0.000 C 
ENDBRANCH   1   3
BRANCH   1   4
ATOM      4  O   UNL     1     -13.507  13.287 131.004  0.00  0.00    +0.000 OA
ATOM      5  H   UNL     1     -14.090  14.054 130.876  0.00  0.00    +0.000 HD
ENDBRANCH   1   4
TORSDOF 2
ENDMDL
MODEL 4
REMARK VINA RESULT:      -2.7      9.891     10.145
REMARK  Name = Propyl alcohol
REMARK  3 active torsions:
REMARK  status: ('A' for Active; 'I' for Inactive)
REMARK    1  A    between atoms: C_1  and  C_2
REMARK    2  A    between atoms: C_2  and  C_3
REMARK    3  A    between atoms: C_3  and  O_4
REMARK                            x       y       z     vdW  Elec       q    Type
REMARK                         _______ _______ _______ _____ _____    ______ ____
ROOT
ATOM      1  C   UNL     1     -12.673   7.102 127.161  0.00  0.00    +0.000 C 
ENDROOT
BRANCH   1   3
ATOM      2  C   UNL     1     -10.656   8.378 127.941  0.00  0.00    +0.000 C 
ATOM      3  C   UNL     1     -12.172   8.290 127.970  0.00  0.00    +0.000 C 
ENDBRANCH   1   3
BRANCH   1   4
ATOM      4  O   UNL     1     -11.683   6.701 126.225  0.00  0.00    +0.000 OA
ATOM      5  H   UNL     1     -11.338   7.504 125.801  0.00  0.00    +0.000 HD
ENDBRANCH   1   4
TORSDOF 2
ENDMDL
MODEL 5
REMARK VINA RESULT:      -2.6     18.708     19.019
REMARK  Name = Propyl alcohol
REMARK  3 active torsions:
REMARK  status: ('A' for Active; 'I' for Inactive)
REMARK    1  A    between atoms: C_1  and  C_2
REMARK    2  A    between atoms: C_2  and  C_3
REMARK    3  A    between atoms: C_3  and  O_4
REMARK                            x       y       z     vdW  Elec       q    Type
REMARK                         _______ _______ _______ _____ _____    ______ ____
ROOT
ATOM      1  C   UNL     1     -10.490   8.890 137.745  0.00  0.00    +0.000 C 
ENDROOT
BRANCH   1   3
ATOM      2  C   UNL     1      -9.596  10.351 139.581  0.00  0.00    +0.000 C 
ATOM      3  C   UNL     1      -9.242   9.462 138.402  0.00  0.00    +0.000 C 
ENDBRANCH   1   3
BRANCH   1   4
ATOM      4  O   UNL     1     -10.264   8.705 136.355  0.00  0.00    +0.000 OA
ATOM      5  H   UNL     1      -9.995   9.562 135.985  0.00  0.00    +0.000 HD
ENDBRANCH   1   4
TORSDOF 2
ENDMDL
MODEL 6
REMARK VINA RESULT:      -2.5      2.217      2.750
REMARK  Name = Propyl alcohol
REMARK  3 active torsions:
REMARK  status: ('A' for Active; 'I' for Inactive)
REMARK    1  A    between atoms: C_1  and  C_2
REMARK    2  A    between atoms: C_2  and  C_3
REMARK    3  A    between atoms: C_3  and  O_4
REMARK                            x       y       z     vdW  Elec       q    Type
REMARK                         _______ _______ _______ _____ _____    ______ ____
ROOT
ATOM      1  C   UNL     1      -7.409   4.052 120.030  0.00  0.00    +0.000 C 
ENDROOT
BRANCH   1   3
ATOM      2  C   UNL     1      -5.362   5.426 119.549  0.00  0.00    +0.000 C 
ATOM      3  C   UNL     1      -5.942   4.285 120.366  0.00  0.00    +0.000 C 
ENDBRANCH   1   3
BRANCH   1   4
ATOM      4  O   UNL     1      -8.153   3.853 121.222  0.00  0.00    +0.000 OA
ATOM      5  H   UNL     1      -7.902   4.555 121.846  0.00  0.00    +0.000 HD
ENDBRANCH   1   4
TORSDOF 2
ENDMDL
MODEL 7
REMARK VINA RESULT:      -2.5     17.901     18.124
REMARK  Name = Propyl alcohol
REMARK  3 active torsions:
REMARK  status: ('A' for Active; 'I' for Inactive)
REMARK    1  A    between atoms: C_1  and  C_2
REMARK    2  A    between atoms: C_2  and  C_3
REMARK    3  A    between atoms: C_3  and  O_4
REMARK                            x       y       z     vdW  Elec       q    Type
REMARK                         _______ _______ _______ _____ _____    ______ ____
ROOT
ATOM      1  C   UNL     1     -10.109   8.825 137.708  0.00  0.00    +0.000 C 
ENDROOT
BRANCH   1   3
ATOM      2  C   UNL     1      -8.444   6.957 137.922  0.00  0.00    +0.000 C 
ATOM      3  C   UNL     1      -8.692   8.442 138.115  0.00  0.00    +0.000 C 
ENDBRANCH   1   3
BRANCH   1   4
ATOM      4  O   UNL     1     -10.257   8.707 136.301  0.00  0.00    +0.000 OA
ATOM      5  H   UNL     1     -10.723   7.873 136.124  0.00  0.00    +0.000 HD
ENDBRANCH   1   4
TORSDOF 2
ENDMDL
MODEL 8
REMARK VINA RESULT:      -2.5     10.627     10.858
REMARK  Name = Propyl alcohol
REMARK  3 active torsions:
REMARK  status: ('A' for Active; 'I' for Inactive)
REMARK    1  A    between atoms: C_1  and  C_2
REMARK    2  A    between atoms: C_2  and  C_3
REMARK    3  A    between atoms: C_3  and  O_4
REMARK                            x       y       z     vdW  Elec       q    Type
REMARK                         _______ _______ _______ _____ _____    ______ ____
ROOT
ATOM      1  C   UNL     1     -11.924   8.519 128.959  0.00  0.00    +0.000 C 
ENDROOT
BRANCH   1   3
ATOM      2  C   UNL     1     -10.963   7.774 126.762  0.00  0.00    +0.000 C 
ATOM      3  C   UNL     1     -10.687   8.488 128.073  0.00  0.00    +0.000 C 
ENDBRANCH   1   3
BRANCH   1   4
ATOM      4  O   UNL     1     -12.664   9.707 128.718  0.00  0.00    +0.000 OA
ATOM      5  H   UNL     1     -13.406   9.477 128.133  0.00  0.00    +0.000 HD
ENDBRANCH   1   4
TORSDOF 2
ENDMDL
MODEL 9
REMARK VINA RESULT:      -2.5      9.616     10.139
REMARK  Name = Propyl alcohol
REMARK  3 active torsions:
REMARK  status: ('A' for Active; 'I' for Inactive)
REMARK    1  A    between atoms: C_1  and  C_2
REMARK    2  A    between atoms: C_2  and  C_3
REMARK    3  A    between atoms: C_3  and  O_4
REMARK                            x       y       z     vdW  Elec       q    Type
REMARK                         _______ _______ _______ _____ _____    ______ ____
ROOT
ATOM      1  C   UNL     1      -8.875  -3.055 123.578  0.00  0.00    +0.000 C 
ENDROOT
BRANCH   1   3
ATOM      2  C   UNL     1      -8.836  -3.379 126.068  0.00  0.00    +0.000 C 
ATOM      3  C   UNL     1      -8.224  -3.791 124.741  0.00  0.00    +0.000 C 
ENDBRANCH   1   3
BRANCH   1   4
ATOM      4  O   UNL     1     -10.207  -3.513 123.399  0.00  0.00    +0.000 OA
ATOM      5  H   UNL     1     -10.759  -2.738 123.199  0.00  0.00    +0.000 HD
ENDBRANCH   1   4
TORSDOF 2
ENDMDL
