MODEL 1
REMARK VINA RESULT:      -5.8      0.000      0.000
REMARK  Name = Propylparaben
REMARK  6 active torsions:
REMARK  status: ('A' for Active; 'I' for Inactive)
REMARK    1  A    between atoms: C_1  and  C_2
REMARK    2  A    between atoms: C_2  and  C_3
REMARK    3  A    between atoms: C_3  and  O_4
REMARK    4  A    between atoms: O_4  and  C_5
REMARK    5  A    between atoms: C_5  and  C_7
REMARK    6  A    between atoms: C_10  and  O_11
REMARK                            x       y       z     vdW  Elec       q    Type
REMARK                         _______ _______ _______ _____ _____    ______ ____
ROOT
ATOM      1  C   UNL     1     -11.158   7.482 129.800  0.00  0.00    +0.000 A 
ATOM      2  C   UNL     1      -9.780   7.300 129.977  0.00  0.00    +0.000 A 
ATOM      3  C   UNL     1      -9.290   6.668 131.136  0.00  0.00    +0.000 A 
ATOM      4  C   UNL     1     -10.183   6.216 132.106  0.00  0.00    +0.000 A 
ATOM      5  C   UNL     1     -11.551   6.386 131.937  0.00  0.00    +0.000 A 
ATOM      6  C   UNL     1     -12.040   7.028 130.794  0.00  0.00    +0.000 A 
ENDROOT
BRANCH   1   7
ATOM      7  C   UNL     1     -11.719   8.223 128.636  0.00  0.00    +0.000 C 
ATOM      8  O   UNL     1     -11.016   8.596 127.703  0.00  0.00    +0.000 OA
BRANCH   7   9
ATOM      9  O   UNL     1     -13.053   8.466 128.767  0.00  0.00    +0.000 OA
BRANCH   9  10
ATOM     10  C   UNL     1     -13.398   9.870 128.738  0.00  0.00    +0.000 C 
BRANCH  10  12
ATOM     11  C   UNL     1     -13.716  11.938 130.167  0.00  0.00    +0.000 C 
ATOM     12  C   UNL     1     -13.331  10.464 130.149  0.00  0.00    +0.000 C 
ENDBRANCH  10  12
ENDBRANCH   9  10
ENDBRANCH   7   9
ENDBRANCH   1   7
BRANCH   4  13
ATOM     13  O   UNL     1      -9.769   5.604 133.253  0.00  0.00    +0.000 OA
ATOM     14  H   UNL     1      -9.022   6.091 133.639  0.00  0.00    +0.000 HD
ENDBRANCH   4  13
TORSDOF 5
ENDMDL
MODEL 2
REMARK VINA RESULT:      -5.7      2.335      5.072
REMARK  Name = Propylparaben
REMARK  6 active torsions:
REMARK  status: ('A' for Active; 'I' for Inactive)
REMARK    1  A    between atoms: C_1  and  C_2
REMARK    2  A    between atoms: C_2  and  C_3
REMARK    3  A    between atoms: C_3  and  O_4
REMARK    4  A    between atoms: O_4  and  C_5
REMARK    5  A    between atoms: C_5  and  C_7
REMARK    6  A    between atoms: C_10  and  O_11
REMARK                            x       y       z     vdW  Elec       q    Type
REMARK                         _______ _______ _______ _____ _____    ______ ____
ROOT
ATOM      1  C   UNL     1     -12.129   7.378 129.494  0.00  0.00    +0.000 A 
ATOM      2  C   UNL     1     -12.911   6.854 128.456  0.00  0.00    +0.000 A 
ATOM      3  C   UNL     1     -12.539   7.056 127.114  0.00  0.00    +0.000 A 
ATOM      4  C   UNL     1     -11.383   7.776 126.818  0.00  0.00    +0.000 A 
ATOM      5  C   UNL     1     -10.597   8.294 127.840  0.00  0.00    +0.000 A 
ATOM      6  C   UNL     1     -10.973   8.108 129.175  0.00  0.00    +0.000 A 
ENDROOT
BRANCH   1   7
ATOM      7  C   UNL     1     -12.529   7.268 130.924  0.00  0.00    +0.000 C 
ATOM      8  O   UNL     1     -13.138   8.162 131.500  0.00  0.00    +0.000 OA
BRANCH   7   9
ATOM      9  O   UNL     1     -12.098   6.108 131.496  0.00  0.00    +0.000 OA
BRANCH   9  10
ATOM     10  C   UNL     1     -10.899   6.259 132.292  0.00  0.00    +0.000 C 
BRANCH  10  12
ATOM     11  C   UNL     1      -8.527   6.484 131.431  0.00  0.00    +0.000 C 
ATOM     12  C   UNL     1      -9.720   5.553 131.616  0.00  0.00    +0.000 C 
ENDBRANCH  10  12
ENDBRANCH   9  10
ENDBRANCH   7   9
ENDBRANCH   1   7
BRANCH   4  13
ATOM     13  O   UNL     1     -10.975   8.012 125.538  0.00  0.00    +0.000 OA
ATOM     14  H   UNL     1     -10.409   7.285 125.230  0.00  0.00    +0.000 HD
ENDBRANCH   4  13
TORSDOF 5
ENDMDL
MODEL 3
REMARK VINA RESULT:      -5.4      2.168      3.144
REMARK  Name = Propylparaben
REMARK  6 active torsions:
REMARK  status: ('A' for Active; 'I' for Inactive)
REMARK    1  A    between atoms: C_1  and  C_2
REMARK    2  A    between atoms: C_2  and  C_3
REMARK    3  A    between atoms: C_3  and  O_4
REMARK    4  A    between atoms: O_4  and  C_5
REMARK    5  A    between atoms: C_5  and  C_7
REMARK    6  A    between atoms: C_10  and  O_11
REMARK                            x       y       z     vdW  Elec       q    Type
REMARK                         _______ _______ _______ _____ _____    ______ ____
ROOT
ATOM      1  C   UNL     1     -10.627   6.559 131.304  0.00  0.00    +0.000 A 
ATOM      2  C   UNL     1     -10.290   5.963 132.526  0.00  0.00    +0.000 A 
ATOM      3  C   UNL     1      -8.939   5.814 132.895  0.00  0.00    +0.000 A 
ATOM      4  C   UNL     1      -7.936   6.269 132.042  0.00  0.00    +0.000 A 
ATOM      5  C   UNL     1      -8.260   6.867 130.831  0.00  0.00    +0.000 A 
ATOM      6  C   UNL     1      -9.601   7.003 130.455  0.00  0.00    +0.000 A 
ENDROOT
BRANCH   1   7
ATOM      7  C   UNL     1     -12.036   6.659 130.830  0.00  0.00    +0.000 C 
ATOM      8  O   UNL     1     -12.952   6.975 131.579  0.00  0.00    +0.000 OA
BRANCH   7   9
ATOM      9  O   UNL     1     -12.168   6.315 129.518  0.00  0.00    +0.000 OA
BRANCH   9  10
ATOM     10  C   UNL     1     -13.083   7.159 128.782  0.00  0.00    +0.000 C 
BRANCH  10  12
ATOM     11  C   UNL     1     -11.200   8.196 127.441  0.00  0.00    +0.000 C 
ATOM     12  C   UNL     1     -12.388   8.457 128.360  0.00  0.00    +0.000 C 
ENDBRANCH  10  12
ENDBRANCH   9  10
ENDBRANCH   7   9
ENDBRANCH   1   7
BRANCH   4  13
ATOM     13  O   UNL     1      -6.610   6.145 132.340  0.00  0.00    +0.000 OA
ATOM     14  H   UNL     1      -6.302   5.251 132.119  0.00  0.00    +0.000 HD
ENDBRANCH   4  13
TORSDOF 5
ENDMDL
MODEL 4
REMARK VINA RESULT:      -5.4      9.970     11.950
REMARK  Name = Propylparaben
REMARK  6 active torsions:
REMARK  status: ('A' for Active; 'I' for Inactive)
REMARK    1  A    between atoms: C_1  and  C_2
REMARK    2  A    between atoms: C_2  and  C_3
REMARK    3  A    between atoms: C_3  and  O_4
REMARK    4  A    between atoms: O_4  and  C_5
REMARK    5  A    between atoms: C_5  and  C_7
REMARK    6  A    between atoms: C_10  and  O_11
REMARK                            x       y       z     vdW  Elec       q    Type
REMARK                         _______ _______ _______ _____ _____    ______ ____
ROOT
ATOM      1  C   UNL     1      -6.239   3.802 121.520  0.00  0.00    +0.000 A 
ATOM      2  C   UNL     1      -7.238   3.736 120.540  0.00  0.00    +0.000 A 
ATOM      3  C   UNL     1      -7.102   4.454 119.337  0.00  0.00    +0.000 A 
ATOM      4  C   UNL     1      -5.964   5.228 119.120  0.00  0.00    +0.000 A 
ATOM      5  C   UNL     1      -4.965   5.295 120.082  0.00  0.00    +0.000 A 
ATOM      6  C   UNL     1      -5.104   4.594 121.285  0.00  0.00    +0.000 A 
ENDROOT
BRANCH   1   7
ATOM      7  C   UNL     1      -6.378   3.132 122.843  0.00  0.00    +0.000 C 
ATOM      8  O   UNL     1      -5.971   3.648 123.878  0.00  0.00    +0.000 OA
BRANCH   7   9
ATOM      9  O   UNL     1      -6.949   1.899 122.744  0.00  0.00    +0.000 OA
BRANCH   9  10
ATOM     10  C   UNL     1      -8.019   1.672 123.691  0.00  0.00    +0.000 C 
BRANCH  10  12
ATOM     11  C   UNL     1     -10.081   0.676 122.609  0.00  0.00    +0.000 C 
ATOM     12  C   UNL     1      -9.375   1.956 123.039  0.00  0.00    +0.000 C 
ENDBRANCH  10  12
ENDBRANCH   9  10
ENDBRANCH   7   9
ENDBRANCH   1   7
BRANCH   4  13
ATOM     13  O   UNL     1      -5.778   5.953 117.979  0.00  0.00    +0.000 OA
ATOM     14  H   UNL     1      -6.483   5.754 117.340  0.00  0.00    +0.000 HD
ENDBRANCH   4  13
TORSDOF 5
ENDMDL
MODEL 5
REMARK VINA RESULT:      -5.3      1.810      2.353
REMARK  Name = Propylparaben
REMARK  6 active torsions:
REMARK  status: ('A' for Active; 'I' for Inactive)
REMARK    1  A    between atoms: C_1  and  C_2
REMARK    2  A    between atoms: C_2  and  C_3
REMARK    3  A    between atoms: C_3  and  O_4
REMARK    4  A    between atoms: O_4  and  C_5
REMARK    5  A    between atoms: C_5  and  C_7
REMARK    6  A    between atoms: C_10  and  O_11
REMARK                            x       y       z     vdW  Elec       q    Type
REMARK                         _______ _______ _______ _____ _____    ______ ____
ROOT
ATOM      1  C   UNL     1      -9.733   6.685 130.264  0.00  0.00    +0.000 A 
ATOM      2  C   UNL     1      -8.397   6.597 130.675  0.00  0.00    +0.000 A 
ATOM      3  C   UNL     1      -8.083   6.252 132.004  0.00  0.00    +0.000 A 
ATOM      4  C   UNL     1      -9.109   5.990 132.910  0.00  0.00    +0.000 A 
ATOM      5  C   UNL     1     -10.437   6.068 132.510  0.00  0.00    +0.000 A 
ATOM      6  C   UNL     1     -10.752   6.426 131.195  0.00  0.00    +0.000 A 
ENDROOT
BRANCH   1   7
ATOM      7  C   UNL     1     -10.116   7.133 128.896  0.00  0.00    +0.000 C 
ATOM      8  O   UNL     1      -9.878   6.457 127.901  0.00  0.00    +0.000 OA
BRANCH   7   9
ATOM      9  O   UNL     1     -10.696   8.366 128.895  0.00  0.00    +0.000 OA
BRANCH   9  10
ATOM     10  C   UNL     1     -11.772   8.505 127.939  0.00  0.00    +0.000 C 
BRANCH  10  12
ATOM     11  C   UNL     1     -13.768   6.963 128.174  0.00  0.00    +0.000 C 
ATOM     12  C   UNL     1     -13.123   8.270 128.620  0.00  0.00    +0.000 C 
ENDBRANCH  10  12
ENDBRANCH   9  10
ENDBRANCH   7   9
ENDBRANCH   1   7
BRANCH   4  13
ATOM     13  O   UNL     1      -8.869   5.659 134.211  0.00  0.00    +0.000 OA
ATOM     14  H   UNL     1      -9.643   5.877 134.757  0.00  0.00    +0.000 HD
ENDBRANCH   4  13
TORSDOF 5
ENDMDL
MODEL 6
REMARK VINA RESULT:      -5.3      1.789      5.139
REMARK  Name = Propylparaben
REMARK  6 active torsions:
REMARK  status: ('A' for Active; 'I' for Inactive)
REMARK    1  A    between atoms: C_1  and  C_2
REMARK    2  A    between atoms: C_2  and  C_3
REMARK    3  A    between atoms: C_3  and  O_4
REMARK    4  A    between atoms: O_4  and  C_5
REMARK    5  A    between atoms: C_5  and  C_7
REMARK    6  A    between atoms: C_10  and  O_11
REMARK                            x       y       z     vdW  Elec       q    Type
REMARK                         _______ _______ _______ _____ _____    ______ ____
ROOT
ATOM      1  C   UNL     1     -11.864   6.765 130.164  0.00  0.00    +0.000 A 
ATOM      2  C   UNL     1     -12.697   7.524 130.997  0.00  0.00    +0.000 A 
ATOM      3  C   UNL     1     -13.136   8.799 130.592  0.00  0.00    +0.000 A 
ATOM      4  C   UNL     1     -12.744   9.303 129.354  0.00  0.00    +0.000 A 
ATOM      5  C   UNL     1     -11.924   8.556 128.517  0.00  0.00    +0.000 A 
ATOM      6  C   UNL     1     -11.474   7.295 128.924  0.00  0.00    +0.000 A 
ENDROOT
BRANCH   1   7
ATOM      7  C   UNL     1     -11.303   5.452 130.586  0.00  0.00    +0.000 C 
ATOM      8  O   UNL     1     -11.445   4.438 129.912  0.00  0.00    +0.000 OA
BRANCH   7   9
ATOM      9  O   UNL     1     -10.680   5.517 131.795  0.00  0.00    +0.000 OA
BRANCH   9  10
ATOM     10  C   UNL     1      -9.324   5.011 131.783  0.00  0.00    +0.000 C 
BRANCH  10  12
ATOM     11  C   UNL     1      -7.897   6.926 130.938  0.00  0.00    +0.000 C 
ATOM     12  C   UNL     1      -8.338   6.122 132.156  0.00  0.00    +0.000 C 
ENDBRANCH  10  12
ENDBRANCH   9  10
ENDBRANCH   7   9
ENDBRANCH   1   7
BRANCH   4  13
ATOM     13  O   UNL     1     -13.129  10.534 128.909  0.00  0.00    +0.000 OA
ATOM     14  H   UNL     1     -12.373  11.144 128.921  0.00  0.00    +0.000 HD
ENDBRANCH   4  13
TORSDOF 5
ENDMDL
MODEL 7
REMARK VINA RESULT:      -5.2     11.185     12.791
REMARK  Name = Propylparaben
REMARK  6 active torsions:
REMARK  status: ('A' for Active; 'I' for Inactive)
REMARK    1  A    between atoms: C_1  and  C_2
REMARK    2  A    between atoms: C_2  and  C_3
REMARK    3  A    between atoms: C_3  and  O_4
REMARK    4  A    between atoms: O_4  and  C_5
REMARK    5  A    between atoms: C_5  and  C_7
REMARK    6  A    between atoms: C_10  and  O_11
REMARK                            x       y       z     vdW  Elec       q    Type
REMARK                         _______ _______ _______ _____ _____    ______ ____
ROOT
ATOM      1  C   UNL     1      -8.485  -2.638 126.496  0.00  0.00    +0.000 A 
ATOM      2  C   UNL     1      -8.935  -3.745 127.227  0.00  0.00    +0.000 A 
ATOM      3  C   UNL     1      -8.698  -3.827 128.612  0.00  0.00    +0.000 A 
ATOM      4  C   UNL     1      -8.019  -2.796 129.258  0.00  0.00    +0.000 A 
ATOM      5  C   UNL     1      -7.574  -1.690 128.544  0.00  0.00    +0.000 A 
ATOM      6  C   UNL     1      -7.795  -1.614 127.164  0.00  0.00    +0.000 A 
ENDROOT
BRANCH   1   7
ATOM      7  C   UNL     1      -8.633  -2.548 125.017  0.00  0.00    +0.000 C 
ATOM      8  O   UNL     1      -9.721  -2.665 124.464  0.00  0.00    +0.000 OA
BRANCH   7   9
ATOM      9  O   UNL     1      -7.438  -2.377 124.384  0.00  0.00    +0.000 OA
BRANCH   9  10
ATOM     10  C   UNL     1      -6.709  -3.608 124.169  0.00  0.00    +0.000 C 
BRANCH  10  12
ATOM     11  C   UNL     1      -4.397  -4.511 123.664  0.00  0.00    +0.000 C 
ATOM     12  C   UNL     1      -5.201  -3.352 124.240  0.00  0.00    +0.000 C 
ENDBRANCH  10  12
ENDBRANCH   9  10
ENDBRANCH   7   9
ENDBRANCH   1   7
BRANCH   4  13
ATOM     13  O   UNL     1      -7.752  -2.821 130.596  0.00  0.00    +0.000 OA
ATOM     14  H   UNL     1      -8.366  -3.424 131.046  0.00  0.00    +0.000 HD
ENDBRANCH   4  13
TORSDOF 5
ENDMDL
MODEL 8
REMARK VINA RESULT:      -5.1     10.838     12.794
REMARK  Name = Propylparaben
REMARK  6 active torsions:
REMARK  status: ('A' for Active; 'I' for Inactive)
REMARK    1  A    between atoms: C_1  and  C_2
REMARK    2  A    between atoms: C_2  and  C_3
REMARK    3  A    between atoms: C_3  and  O_4
REMARK    4  A    between atoms: O_4  and  C_5
REMARK    5  A    between atoms: C_5  and  C_7
REMARK    6  A    between atoms: C_10  and  O_11
REMARK                            x       y       z     vdW  Elec       q    Type
REMARK                         _______ _______ _______ _____ _____    ______ ____
ROOT
ATOM      1  C   UNL     1      -8.469  -0.423 123.403  0.00  0.00    +0.000 A 
ATOM      2  C   UNL     1      -9.618   0.294 123.043  0.00  0.00    +0.000 A 
ATOM      3  C   UNL     1      -9.557   1.688 122.861  0.00  0.00    +0.000 A 
ATOM      4  C   UNL     1      -8.347   2.356 123.035  0.00  0.00    +0.000 A 
ATOM      5  C   UNL     1      -7.201   1.654 123.386  0.00  0.00    +0.000 A 
ATOM      6  C   UNL     1      -7.261   0.270 123.582  0.00  0.00    +0.000 A 
ENDROOT
BRANCH   1   7
ATOM      7  C   UNL     1      -8.501  -1.884 123.693  0.00  0.00    +0.000 C 
ATOM      8  O   UNL     1      -9.404  -2.397 124.344  0.00  0.00    +0.000 OA
BRANCH   7   9
ATOM      9  O   UNL     1      -7.411  -2.536 123.201  0.00  0.00    +0.000 OA
BRANCH   9  10
ATOM     10  C   UNL     1      -6.701  -3.316 124.191  0.00  0.00    +0.000 C 
BRANCH  10  12
ATOM     11  C   UNL     1      -4.473  -4.417 123.696  0.00  0.00    +0.000 C 
ATOM     12  C   UNL     1      -5.189  -3.117 124.042  0.00  0.00    +0.000 C 
ENDBRANCH  10  12
ENDBRANCH   9  10
ENDBRANCH   7   9
ENDBRANCH   1   7
BRANCH   4  13
ATOM     13  O   UNL     1      -8.227   3.706 122.882  0.00  0.00    +0.000 OA
ATOM     14  H   UNL     1      -8.160   3.929 121.939  0.00  0.00    +0.000 HD
ENDBRANCH   4  13
TORSDOF 5
ENDMDL
MODEL 9
REMARK VINA RESULT:      -5.1      2.047      5.898
REMARK  Name = Propylparaben
REMARK  6 active torsions:
REMARK  status: ('A' for Active; 'I' for Inactive)
REMARK    1  A    between atoms: C_1  and  C_2
REMARK    2  A    between atoms: C_2  and  C_3
REMARK    3  A    between atoms: C_3  and  O_4
REMARK    4  A    between atoms: O_4  and  C_5
REMARK    5  A    between atoms: C_5  and  C_7
REMARK    6  A    between atoms: C_10  and  O_11
REMARK                            x       y       z     vdW  Elec       q    Type
REMARK                         _______ _______ _______ _____ _____    ______ ____
ROOT
ATOM      1  C   UNL     1     -10.505   6.766 131.071  0.00  0.00    +0.000 A 
ATOM      2  C   UNL     1      -9.778   7.267 129.983  0.00  0.00    +0.000 A 
ATOM      3  C   UNL     1     -10.415   8.052 129.003  0.00  0.00    +0.000 A 
ATOM      4  C   UNL     1     -11.774   8.336 129.123  0.00  0.00    +0.000 A 
ATOM      5  C   UNL     1     -12.502   7.850 130.201  0.00  0.00    +0.000 A 
ATOM      6  C   UNL     1     -11.875   7.057 131.168  0.00  0.00    +0.000 A 
ENDROOT
BRANCH   1   7
ATOM      7  C   UNL     1      -9.896   5.858 132.083  0.00  0.00    +0.000 C 
ATOM      8  O   UNL     1      -9.476   6.272 133.157  0.00  0.00    +0.000 OA
BRANCH   7   9
ATOM      9  O   UNL     1      -9.826   4.568 131.649  0.00  0.00    +0.000 OA
BRANCH   9  10
ATOM     10  C   UNL     1      -8.730   3.818 132.222  0.00  0.00    +0.000 C 
BRANCH  10  12
ATOM     11  C   UNL     1      -9.874   1.568 131.998  0.00  0.00    +0.000 C 
ATOM     12  C   UNL     1      -9.258   2.581 132.956  0.00  0.00    +0.000 C 
ENDBRANCH  10  12
ENDBRANCH   9  10
ENDBRANCH   7   9
ENDBRANCH   1   7
BRANCH   4  13
ATOM     13  O   UNL     1     -12.450   9.084 128.203  0.00  0.00    +0.000 OA
ATOM     14  H   UNL     1     -13.349   9.269 128.520  0.00  0.00    +0.000 HD
ENDBRANCH   4  13
TORSDOF 5
ENDMDL
