MODEL 1
REMARK VINA RESULT:      -6.2      0.000      0.000
REMARK  Name = Propofol
REMARK  7 active torsions:
REMARK  status: ('A' for Active; 'I' for Inactive)
REMARK    1  A    between atoms: C_1  and  C_2
REMARK    2  A    between atoms: C_2  and  C_3
REMARK    3  A    between atoms: C_2  and  C_4
REMARK    4  A    between atoms: C_8  and  C_9
REMARK    5  A    between atoms: C_9  and  C_10
REMARK    6  A    between atoms: C_9  and  C_11
REMARK    7  A    between atoms: C_12  and  O_13
REMARK                            x       y       z     vdW  Elec       q    Type
REMARK                         _______ _______ _______ _____ _____    ______ ____
ROOT
ATOM      1  C   UNL     1     -11.996   7.965 129.668  0.00  0.00    +0.000 A 
ATOM      2  C   UNL     1     -12.700   7.516 130.793  0.00  0.00    +0.000 A 
ATOM      3  C   UNL     1     -12.063   6.755 131.762  0.00  0.00    +0.000 A 
ATOM      4  C   UNL     1     -10.719   6.418 131.605  0.00  0.00    +0.000 A 
ATOM      5  C   UNL     1      -9.960   6.847 130.490  0.00  0.00    +0.000 A 
ATOM      6  C   UNL     1     -10.620   7.672 129.560  0.00  0.00    +0.000 A 
ENDROOT
BRANCH   1   8
ATOM      7  C   UNL     1     -13.640   7.769 127.787  0.00  0.00    +0.000 C 
ATOM      8  C   UNL     1     -12.662   8.709 128.516  0.00  0.00    +0.000 C 
ATOM      9  C   UNL     1     -13.383   9.985 128.931  0.00  0.00    +0.000 C 
ENDBRANCH   1   8
BRANCH   5  10
ATOM     10  C   UNL     1      -8.503   6.393 130.436  0.00  0.00    +0.000 C 
ATOM     11  C   UNL     1      -7.879   6.369 131.843  0.00  0.00    +0.000 C 
ATOM     12  C   UNL     1      -8.232   5.028 129.807  0.00  0.00    +0.000 C 
ENDBRANCH   5  10
BRANCH   6  13
ATOM     13  O   UNL     1     -10.023   8.322 128.516  0.00  0.00    +0.000 OA
ATOM     14  H   UNL     1      -9.725   9.206 128.756  0.00  0.00    +0.000 HD
ENDBRANCH   6  13
TORSDOF 3
ENDMDL
MODEL 2
REMARK VINA RESULT:      -6.0      0.546      4.696
REMARK  Name = Propofol
REMARK  7 active torsions:
REMARK  status: ('A' for Active; 'I' for Inactive)
REMARK    1  A    between atoms: C_1  and  C_2
REMARK    2  A    between atoms: C_2  and  C_3
REMARK    3  A    between atoms: C_2  and  C_4
REMARK    4  A    between atoms: C_8  and  C_9
REMARK    5  A    between atoms: C_9  and  C_10
REMARK    6  A    between atoms: C_9  and  C_11
REMARK    7  A    between atoms: C_12  and  O_13
REMARK                            x       y       z     vdW  Elec       q    Type
REMARK                         _______ _______ _______ _____ _____    ______ ____
ROOT
ATOM      1  C   UNL     1     -10.085   6.466 130.474  0.00  0.00    +0.000 A 
ATOM      2  C   UNL     1     -10.808   6.269 131.657  0.00  0.00    +0.000 A 
ATOM      3  C   UNL     1     -12.077   6.810 131.803  0.00  0.00    +0.000 A 
ATOM      4  C   UNL     1     -12.627   7.572 130.773  0.00  0.00    +0.000 A 
ATOM      5  C   UNL     1     -11.941   7.799 129.555  0.00  0.00    +0.000 A 
ATOM      6  C   UNL     1     -10.685   7.181 129.416  0.00  0.00    +0.000 A 
ENDROOT
BRANCH   1   8
ATOM      7  C   UNL     1      -7.705   6.850 131.159  0.00  0.00    +0.000 C 
ATOM      8  C   UNL     1      -8.646   5.993 130.293  0.00  0.00    +0.000 C 
ATOM      9  C   UNL     1      -8.431   4.516 130.600  0.00  0.00    +0.000 C 
ENDBRANCH   1   8
BRANCH   5  10
ATOM     10  C   UNL     1     -12.654   8.664 128.518  0.00  0.00    +0.000 C 
ATOM     11  C   UNL     1     -13.715   7.851 127.754  0.00  0.00    +0.000 C 
ATOM     12  C   UNL     1     -13.347   9.924 129.034  0.00  0.00    +0.000 C 
ENDBRANCH   5  10
BRANCH   6  13
ATOM     13  O   UNL     1      -9.947   7.139 128.266  0.00  0.00    +0.000 OA
ATOM     14  H   UNL     1      -9.649   8.012 127.988  0.00  0.00    +0.000 HD
ENDBRANCH   6  13
TORSDOF 3
ENDMDL
MODEL 3
REMARK VINA RESULT:      -5.8      1.992      3.027
REMARK  Name = Propofol
REMARK  7 active torsions:
REMARK  status: ('A' for Active; 'I' for Inactive)
REMARK    1  A    between atoms: C_1  and  C_2
REMARK    2  A    between atoms: C_2  and  C_3
REMARK    3  A    between atoms: C_2  and  C_4
REMARK    4  A    between atoms: C_8  and  C_9
REMARK    5  A    between atoms: C_9  and  C_10
REMARK    6  A    between atoms: C_9  and  C_11
REMARK    7  A    between atoms: C_12  and  O_13
REMARK                            x       y       z     vdW  Elec       q    Type
REMARK                         _______ _______ _______ _____ _____    ______ ____
ROOT
ATOM      1  C   UNL     1     -11.131   7.146 130.372  0.00  0.00    +0.000 A 
ATOM      2  C   UNL     1     -10.035   7.579 129.616  0.00  0.00    +0.000 A 
ATOM      3  C   UNL     1      -8.740   7.321 130.043  0.00  0.00    +0.000 A 
ATOM      4  C   UNL     1      -8.531   6.644 131.245  0.00  0.00    +0.000 A 
ATOM      5  C   UNL     1      -9.602   6.182 132.046  0.00  0.00    +0.000 A 
ATOM      6  C   UNL     1     -10.899   6.403 131.549  0.00  0.00    +0.000 A 
ENDROOT
BRANCH   1   8
ATOM      7  C   UNL     1     -12.701   9.010 129.789  0.00  0.00    +0.000 C 
ATOM      8  C   UNL     1     -12.573   7.493 130.017  0.00  0.00    +0.000 C 
ATOM      9  C   UNL     1     -13.115   6.741 128.808  0.00  0.00    +0.000 C 
ENDBRANCH   1   8
BRANCH   5  10
ATOM     10  C   UNL     1      -9.229   5.468 133.344  0.00  0.00    +0.000 C 
ATOM     11  C   UNL     1      -9.322   3.940 133.181  0.00  0.00    +0.000 C 
ATOM     12  C   UNL     1      -7.848   5.770 133.921  0.00  0.00    +0.000 C 
ENDBRANCH   5  10
BRANCH   6  13
ATOM     13  O   UNL     1     -12.049   5.890 132.084  0.00  0.00    +0.000 OA
ATOM     14  H   UNL     1     -12.720   6.566 132.228  0.00  0.00    +0.000 HD
ENDBRANCH   6  13
TORSDOF 3
ENDMDL
MODEL 4
REMARK VINA RESULT:      -5.7      9.385     11.977
REMARK  Name = Propofol
REMARK  7 active torsions:
REMARK  status: ('A' for Active; 'I' for Inactive)
REMARK    1  A    between atoms: C_1  and  C_2
REMARK    2  A    between atoms: C_2  and  C_3
REMARK    3  A    between atoms: C_2  and  C_4
REMARK    4  A    between atoms: C_8  and  C_9
REMARK    5  A    between atoms: C_9  and  C_10
REMARK    6  A    between atoms: C_9  and  C_11
REMARK    7  A    between atoms: C_12  and  O_13
REMARK                            x       y       z     vdW  Elec       q    Type
REMARK                         _______ _______ _______ _____ _____    ______ ____
ROOT
ATOM      1  C   UNL     1      -6.712  -2.711 124.746  0.00  0.00    +0.000 A 
ATOM      2  C   UNL     1      -7.917  -3.321 124.378  0.00  0.00    +0.000 A 
ATOM      3  C   UNL     1      -8.900  -3.563 125.328  0.00  0.00    +0.000 A 
ATOM      4  C   UNL     1      -8.675  -3.215 126.660  0.00  0.00    +0.000 A 
ATOM      5  C   UNL     1      -7.476  -2.593 127.084  0.00  0.00    +0.000 A 
ATOM      6  C   UNL     1      -6.531  -2.303 126.084  0.00  0.00    +0.000 A 
ENDROOT
BRANCH   1   8
ATOM      7  C   UNL     1      -4.743  -3.824 123.665  0.00  0.00    +0.000 C 
ATOM      8  C   UNL     1      -5.551  -2.518 123.775  0.00  0.00    +0.000 C 
ATOM      9  C   UNL     1      -5.969  -2.050 122.387  0.00  0.00    +0.000 C 
ENDBRANCH   1   8
BRANCH   5  10
ATOM     10  C   UNL     1      -7.357  -2.279 128.574  0.00  0.00    +0.000 C 
ATOM     11  C   UNL     1      -7.658  -0.795 128.853  0.00  0.00    +0.000 C 
ATOM     12  C   UNL     1      -8.235  -3.095 129.520  0.00  0.00    +0.000 C 
ENDBRANCH   5  10
BRANCH   6  13
ATOM     13  O   UNL     1      -5.395  -1.561 126.261  0.00  0.00    +0.000 OA
ATOM     14  H   UNL     1      -4.890  -1.464 125.447  0.00  0.00    +0.000 HD
ENDBRANCH   6  13
TORSDOF 3
ENDMDL
MODEL 5
REMARK VINA RESULT:      -5.7      9.433     12.013
REMARK  Name = Propofol
REMARK  7 active torsions:
REMARK  status: ('A' for Active; 'I' for Inactive)
REMARK    1  A    between atoms: C_1  and  C_2
REMARK    2  A    between atoms: C_2  and  C_3
REMARK    3  A    between atoms: C_2  and  C_4
REMARK    4  A    between atoms: C_8  and  C_9
REMARK    5  A    between atoms: C_9  and  C_10
REMARK    6  A    between atoms: C_9  and  C_11
REMARK    7  A    between atoms: C_12  and  O_13
REMARK                            x       y       z     vdW  Elec       q    Type
REMARK                         _______ _______ _______ _____ _____    ______ ____
ROOT
ATOM      1  C   UNL     1      -7.658  -2.646 126.974  0.00  0.00    +0.000 A 
ATOM      2  C   UNL     1      -8.894  -3.023 126.436  0.00  0.00    +0.000 A 
ATOM      3  C   UNL     1      -9.032  -3.229 125.071  0.00  0.00    +0.000 A 
ATOM      4  C   UNL     1      -7.937  -3.039 124.228  0.00  0.00    +0.000 A 
ATOM      5  C   UNL     1      -6.665  -2.662 124.720  0.00  0.00    +0.000 A 
ATOM      6  C   UNL     1      -6.545  -2.526 126.115  0.00  0.00    +0.000 A 
ENDROOT
BRANCH   1   8
ATOM      7  C   UNL     1      -7.801  -0.813 128.677  0.00  0.00    +0.000 C 
ATOM      8  C   UNL     1      -7.466  -2.297 128.446  0.00  0.00    +0.000 C 
ATOM      9  C   UNL     1      -8.274  -3.165 129.404  0.00  0.00    +0.000 C 
ENDBRANCH   1   8
BRANCH   5  10
ATOM     10  C   UNL     1      -5.557  -2.475 123.685  0.00  0.00    +0.000 C 
ATOM     11  C   UNL     1      -4.692  -3.743 123.565  0.00  0.00    +0.000 C 
ATOM     12  C   UNL     1      -5.996  -2.103 122.270  0.00  0.00    +0.000 C 
ENDBRANCH   5  10
BRANCH   6  13
ATOM     13  O   UNL     1      -5.372  -2.336 126.793  0.00  0.00    +0.000 OA
ATOM     14  H   UNL     1      -5.489  -1.800 127.585  0.00  0.00    +0.000 HD
ENDBRANCH   6  13
TORSDOF 3
ENDMDL
MODEL 6
REMARK VINA RESULT:      -5.4      2.238      5.099
REMARK  Name = Propofol
REMARK  7 active torsions:
REMARK  status: ('A' for Active; 'I' for Inactive)
REMARK    1  A    between atoms: C_1  and  C_2
REMARK    2  A    between atoms: C_2  and  C_3
REMARK    3  A    between atoms: C_2  and  C_4
REMARK    4  A    between atoms: C_8  and  C_9
REMARK    5  A    between atoms: C_9  and  C_10
REMARK    6  A    between atoms: C_9  and  C_11
REMARK    7  A    between atoms: C_12  and  O_13
REMARK                            x       y       z     vdW  Elec       q    Type
REMARK                         _______ _______ _______ _____ _____    ______ ____
ROOT
ATOM      1  C   UNL     1      -9.549   4.513 130.994  0.00  0.00    +0.000 A 
ATOM      2  C   UNL     1      -8.446   5.204 131.510  0.00  0.00    +0.000 A 
ATOM      3  C   UNL     1      -8.271   6.553 131.236  0.00  0.00    +0.000 A 
ATOM      4  C   UNL     1      -9.189   7.219 130.424  0.00  0.00    +0.000 A 
ATOM      5  C   UNL     1     -10.322   6.569 129.879  0.00  0.00    +0.000 A 
ATOM      6  C   UNL     1     -10.503   5.220 130.231  0.00  0.00    +0.000 A 
ENDROOT
BRANCH   1   8
ATOM      7  C   UNL     1      -8.852   2.255 130.159  0.00  0.00    +0.000 C 
ATOM      8  C   UNL     1      -9.739   3.010 131.165  0.00  0.00    +0.000 C 
ATOM      9  C   UNL     1      -9.468   2.503 132.576  0.00  0.00    +0.000 C 
ENDBRANCH   1   8
BRANCH   5  10
ATOM     10  C   UNL     1     -11.238   7.414 128.995  0.00  0.00    +0.000 C 
ATOM     11  C   UNL     1     -12.274   8.177 129.841  0.00  0.00    +0.000 C 
ATOM     12  C   UNL     1     -10.561   8.441 128.090  0.00  0.00    +0.000 C 
ENDBRANCH   5  10
BRANCH   6  13
ATOM     13  O   UNL     1     -11.612   4.470 129.949  0.00  0.00    +0.000 OA
ATOM     14  H   UNL     1     -11.758   4.373 129.002  0.00  0.00    +0.000 HD
ENDBRANCH   6  13
TORSDOF 3
ENDMDL
MODEL 7
REMARK VINA RESULT:      -5.2      9.717     11.338
REMARK  Name = Propofol
REMARK  7 active torsions:
REMARK  status: ('A' for Active; 'I' for Inactive)
REMARK    1  A    between atoms: C_1  and  C_2
REMARK    2  A    between atoms: C_2  and  C_3
REMARK    3  A    between atoms: C_2  and  C_4
REMARK    4  A    between atoms: C_8  and  C_9
REMARK    5  A    between atoms: C_9  and  C_10
REMARK    6  A    between atoms: C_9  and  C_11
REMARK    7  A    between atoms: C_12  and  O_13
REMARK                            x       y       z     vdW  Elec       q    Type
REMARK                         _______ _______ _______ _____ _____    ______ ____
ROOT
ATOM      1  C   UNL     1      -8.458  -2.493 126.117  0.00  0.00    +0.000 A 
ATOM      2  C   UNL     1      -8.450  -3.545 125.194  0.00  0.00    +0.000 A 
ATOM      3  C   UNL     1      -8.689  -3.302 123.849  0.00  0.00    +0.000 A 
ATOM      4  C   UNL     1      -8.960  -2.003 123.419  0.00  0.00    +0.000 A 
ATOM      5  C   UNL     1      -8.976  -0.903 124.309  0.00  0.00    +0.000 A 
ATOM      6  C   UNL     1      -8.665  -1.176 125.653  0.00  0.00    +0.000 A 
ENDROOT
BRANCH   1   8
ATOM      7  C   UNL     1      -8.996  -4.026 128.026  0.00  0.00    +0.000 C 
ATOM      8  C   UNL     1      -8.313  -2.707 127.620  0.00  0.00    +0.000 C 
ATOM      9  C   UNL     1      -6.872  -2.696 128.116  0.00  0.00    +0.000 C 
ENDBRANCH   1   8
BRANCH   5  10
ATOM     10  C   UNL     1      -9.301   0.462 123.705  0.00  0.00    +0.000 C 
ATOM     11  C   UNL     1      -8.015   1.227 123.343  0.00  0.00    +0.000 C 
ATOM     12  C   UNL     1     -10.187   0.470 122.461  0.00  0.00    +0.000 C 
ENDBRANCH   5  10
BRANCH   6  13
ATOM     13  O   UNL     1      -8.465  -0.236 126.625  0.00  0.00    +0.000 OA
ATOM     14  H   UNL     1      -7.972  -0.584 127.377  0.00  0.00    +0.000 HD
ENDBRANCH   6  13
TORSDOF 3
ENDMDL
MODEL 8
REMARK VINA RESULT:      -5.1     10.030     11.873
REMARK  Name = Propofol
REMARK  7 active torsions:
REMARK  status: ('A' for Active; 'I' for Inactive)
REMARK    1  A    between atoms: C_1  and  C_2
REMARK    2  A    between atoms: C_2  and  C_3
REMARK    3  A    between atoms: C_2  and  C_4
REMARK    4  A    between atoms: C_8  and  C_9
REMARK    5  A    between atoms: C_9  and  C_10
REMARK    6  A    between atoms: C_9  and  C_11
REMARK    7  A    between atoms: C_12  and  O_13
REMARK                            x       y       z     vdW  Elec       q    Type
REMARK                         _______ _______ _______ _____ _____    ______ ____
ROOT
ATOM      1  C   UNL     1      -7.403  -2.213 126.806  0.00  0.00    +0.000 A 
ATOM      2  C   UNL     1      -6.025  -2.350 126.597  0.00  0.00    +0.000 A 
ATOM      3  C   UNL     1      -5.518  -2.477 125.312  0.00  0.00    +0.000 A 
ATOM      4  C   UNL     1      -6.390  -2.489 124.223  0.00  0.00    +0.000 A 
ATOM      5  C   UNL     1      -7.790  -2.351 124.377  0.00  0.00    +0.000 A 
ATOM      6  C   UNL     1      -8.262  -2.159 125.688  0.00  0.00    +0.000 A 
ENDROOT
BRANCH   1   8
ATOM      7  C   UNL     1      -8.419  -3.608 128.623  0.00  0.00    +0.000 C 
ATOM      8  C   UNL     1      -8.032  -2.181 128.195  0.00  0.00    +0.000 C 
ATOM      9  C   UNL     1      -7.154  -1.541 129.263  0.00  0.00    +0.000 C 
ENDBRANCH   1   8
BRANCH   5  10
ATOM     10  C   UNL     1      -8.628  -2.396 123.101  0.00  0.00    +0.000 C 
ATOM     11  C   UNL     1      -9.736  -3.461 123.204  0.00  0.00    +0.000 C 
ATOM     12  C   UNL     1      -9.303  -1.093 122.677  0.00  0.00    +0.000 C 
ENDBRANCH   5  10
BRANCH   6  13
ATOM     13  O   UNL     1      -9.548  -1.840 126.027  0.00  0.00    +0.000 OA
ATOM     14  H   UNL     1     -10.171  -2.019 125.314  0.00  0.00    +0.000 HD
ENDBRANCH   6  13
TORSDOF 3
ENDMDL
MODEL 9
REMARK VINA RESULT:      -5.1      2.621      4.509
REMARK  Name = Propofol
REMARK  7 active torsions:
REMARK  status: ('A' for Active; 'I' for Inactive)
REMARK    1  A    between atoms: C_1  and  C_2
REMARK    2  A    between atoms: C_2  and  C_3
REMARK    3  A    between atoms: C_2  and  C_4
REMARK    4  A    between atoms: C_8  and  C_9
REMARK    5  A    between atoms: C_9  and  C_10
REMARK    6  A    between atoms: C_9  and  C_11
REMARK    7  A    between atoms: C_12  and  O_13
REMARK                            x       y       z     vdW  Elec       q    Type
REMARK                         _______ _______ _______ _____ _____    ______ ____
ROOT
ATOM      1  C   UNL     1      -9.377   6.352 131.434  0.00  0.00    +0.000 A 
ATOM      2  C   UNL     1      -8.191   6.781 130.824  0.00  0.00    +0.000 A 
ATOM      3  C   UNL     1      -6.974   6.629 131.472  0.00  0.00    +0.000 A 
ATOM      4  C   UNL     1      -6.934   6.065 132.747  0.00  0.00    +0.000 A 
ATOM      5  C   UNL     1      -8.101   5.612 133.407  0.00  0.00    +0.000 A 
ATOM      6  C   UNL     1      -9.309   5.721 132.694  0.00  0.00    +0.000 A 
ENDROOT
BRANCH   1   8
ATOM      7  C   UNL     1     -10.671   7.708 129.771  0.00  0.00    +0.000 C 
ATOM      8  C   UNL     1     -10.755   6.589 130.826  0.00  0.00    +0.000 C 
ATOM      9  C   UNL     1     -11.389   5.347 130.214  0.00  0.00    +0.000 C 
ENDBRANCH   1   8
BRANCH   5  10
ATOM     10  C   UNL     1      -7.915   5.028 134.806  0.00  0.00    +0.000 C 
ATOM     11  C   UNL     1      -6.780   3.987 134.824  0.00  0.00    +0.000 C 
ATOM     12  C   UNL     1      -7.625   6.019 135.931  0.00  0.00    +0.000 C 
ENDBRANCH   5  10
BRANCH   6  13
ATOM     13  O   UNL     1     -10.508   5.191 133.084  0.00  0.00    +0.000 OA
ATOM     14  H   UNL     1     -10.415   4.571 133.815  0.00  0.00    +0.000 HD
ENDBRANCH   6  13
TORSDOF 3
ENDMDL
