MODEL 1
REMARK VINA RESULT:      -5.6      0.000      0.000
REMARK  Name = Propylthiouracil
REMARK  3 active torsions:
REMARK  status: ('A' for Active; 'I' for Inactive)
REMARK    1  A    between atoms: C_1  and  C_2
REMARK    2  A    between atoms: C_2  and  C_3
REMARK    3  A    between atoms: C_3  and  C_4
REMARK                            x       y       z     vdW  Elec       q    Type
REMARK                         _______ _______ _______ _____ _____    ______ ____
ROOT
ATOM      1  C   UNL     1     -12.275   8.657 128.939  0.00  0.00    +0.000 A 
ATOM      2  C   UNL     1     -11.563   8.254 127.877  0.00  0.00    +0.000 A 
ATOM      3  C   UNL     1     -10.610   7.135 128.023  0.00  0.00    +0.000 A 
ATOM      4  O   UNL     1      -9.970   6.721 127.062  0.00  0.00    +0.000 OA
ATOM      5  N   UNL     1     -10.500   6.598 129.276  0.00  0.00    +0.000 N 
ATOM      6  C   UNL     1     -11.225   7.002 130.355  0.00  0.00    +0.000 A 
ATOM      7  S   UNL     1     -11.069   6.295 131.849  0.00  0.00    +0.000 S 
ATOM      8  N   UNL     1     -12.097   8.027 130.150  0.00  0.00    +0.000 N 
ATOM      9  H   UNL     1      -9.852   5.832 129.392  0.00  0.00    +0.000 HD
ATOM     10  H   UNL     1     -12.633   8.305 130.964  0.00  0.00    +0.000 HD
ENDROOT
BRANCH   1  11
ATOM     11  C   UNL     1     -13.277   9.781 128.833  0.00  0.00    +0.000 C 
BRANCH  11  13
ATOM     12  C   UNL     1     -13.830  12.038 129.817  0.00  0.00    +0.000 C 
ATOM     13  C   UNL     1     -13.415  10.612 130.110  0.00  0.00    +0.000 C 
ENDBRANCH  11  13
ENDBRANCH   1  11
TORSDOF 2
ENDMDL
MODEL 2
REMARK VINA RESULT:      -5.3      2.862      3.732
REMARK  Name = Propylthiouracil
REMARK  3 active torsions:
REMARK  status: ('A' for Active; 'I' for Inactive)
REMARK    1  A    between atoms: C_1  and  C_2
REMARK    2  A    between atoms: C_2  and  C_3
REMARK    3  A    between atoms: C_3  and  C_4
REMARK                            x       y       z     vdW  Elec       q    Type
REMARK                         _______ _______ _______ _____ _____    ______ ____
ROOT
ATOM      1  C   UNL     1     -11.115   7.473 129.095  0.00  0.00    +0.000 A 
ATOM      2  C   UNL     1     -12.101   7.865 129.915  0.00  0.00    +0.000 A 
ATOM      3  C   UNL     1     -12.455   7.027 131.078  0.00  0.00    +0.000 A 
ATOM      4  O   UNL     1     -13.329   7.376 131.865  0.00  0.00    +0.000 OA
ATOM      5  N   UNL     1     -11.749   5.864 131.219  0.00  0.00    +0.000 N 
ATOM      6  C   UNL     1     -10.745   5.466 130.391  0.00  0.00    +0.000 A 
ATOM      7  S   UNL     1      -9.903   4.054 130.626  0.00  0.00    +0.000 S 
ATOM      8  N   UNL     1     -10.457   6.291 129.348  0.00  0.00    +0.000 N 
ATOM      9  H   UNL     1     -11.981   5.280 132.010  0.00  0.00    +0.000 HD
ATOM     10  H   UNL     1      -9.699   5.980 128.750  0.00  0.00    +0.000 HD
ENDROOT
BRANCH   1  11
ATOM     11  C   UNL     1     -10.702   8.308 127.907  0.00  0.00    +0.000 C 
BRANCH  11  13
ATOM     12  C   UNL     1     -12.335   7.128 126.387  0.00  0.00    +0.000 C 
ATOM     13  C   UNL     1     -10.912   7.615 126.559  0.00  0.00    +0.000 C 
ENDBRANCH  11  13
ENDBRANCH   1  11
TORSDOF 2
ENDMDL
MODEL 3
REMARK VINA RESULT:      -5.2     11.538     13.524
REMARK  Name = Propylthiouracil
REMARK  3 active torsions:
REMARK  status: ('A' for Active; 'I' for Inactive)
REMARK    1  A    between atoms: C_1  and  C_2
REMARK    2  A    between atoms: C_2  and  C_3
REMARK    3  A    between atoms: C_3  and  C_4
REMARK                            x       y       z     vdW  Elec       q    Type
REMARK                         _______ _______ _______ _____ _____    ______ ____
ROOT
ATOM      1  C   UNL     1      -6.702  -2.387 124.175  0.00  0.00    +0.000 A 
ATOM      2  C   UNL     1      -7.767  -3.175 123.967  0.00  0.00    +0.000 A 
ATOM      3  C   UNL     1      -9.046  -2.570 123.543  0.00  0.00    +0.000 A 
ATOM      4  O   UNL     1     -10.028  -3.268 123.311  0.00  0.00    +0.000 OA
ATOM      5  N   UNL     1      -9.057  -1.208 123.420  0.00  0.00    +0.000 N 
ATOM      6  C   UNL     1      -7.976  -0.407 123.628  0.00  0.00    +0.000 A 
ATOM      7  S   UNL     1      -8.040   1.242 123.439  0.00  0.00    +0.000 S 
ATOM      8  N   UNL     1      -6.823  -1.028 124.001  0.00  0.00    +0.000 N 
ATOM      9  H   UNL     1      -9.924  -0.781 123.132  0.00  0.00    +0.000 HD
ATOM     10  H   UNL     1      -6.029  -0.412 124.140  0.00  0.00    +0.000 HD
ENDROOT
BRANCH   1  11
ATOM     11  C   UNL     1      -5.368  -2.961 124.587  0.00  0.00    +0.000 C 
BRANCH  11  13
ATOM     12  C   UNL     1      -4.243  -4.916 123.455  0.00  0.00    +0.000 C 
ATOM     13  C   UNL     1      -4.504  -3.427 123.413  0.00  0.00    +0.000 C 
ENDBRANCH  11  13
ENDBRANCH   1  11
TORSDOF 2
ENDMDL
MODEL 4
REMARK VINA RESULT:      -5.2     12.597     13.563
REMARK  Name = Propylthiouracil
REMARK  3 active torsions:
REMARK  status: ('A' for Active; 'I' for Inactive)
REMARK    1  A    between atoms: C_1  and  C_2
REMARK    2  A    between atoms: C_2  and  C_3
REMARK    3  A    between atoms: C_3  and  C_4
REMARK                            x       y       z     vdW  Elec       q    Type
REMARK                         _______ _______ _______ _____ _____    ______ ____
ROOT
ATOM      1  C   UNL     1      -6.755  -2.634 124.636  0.00  0.00    +0.000 A 
ATOM      2  C   UNL     1      -7.721  -2.724 123.712  0.00  0.00    +0.000 A 
ATOM      3  C   UNL     1      -9.100  -3.049 124.130  0.00  0.00    +0.000 A 
ATOM      4  O   UNL     1     -10.012  -3.104 123.311  0.00  0.00    +0.000 OA
ATOM      5  N   UNL     1      -9.287  -3.272 125.466  0.00  0.00    +0.000 N 
ATOM      6  C   UNL     1      -8.309  -3.179 126.407  0.00  0.00    +0.000 A 
ATOM      7  S   UNL     1      -8.598  -3.435 128.022  0.00  0.00    +0.000 S 
ATOM      8  N   UNL     1      -7.064  -2.859 125.959  0.00  0.00    +0.000 N 
ATOM      9  H   UNL     1     -10.224  -3.497 125.767  0.00  0.00    +0.000 HD
ATOM     10  H   UNL     1      -6.353  -2.785 126.678  0.00  0.00    +0.000 HD
ENDROOT
BRANCH   1  11
ATOM     11  C   UNL     1      -5.337  -2.281 124.260  0.00  0.00    +0.000 C 
BRANCH  11  13
ATOM     12  C   UNL     1      -4.451  -4.591 123.762  0.00  0.00    +0.000 C 
ATOM     13  C   UNL     1      -4.724  -3.209 123.209  0.00  0.00    +0.000 C 
ENDBRANCH  11  13
ENDBRANCH   1  11
TORSDOF 2
ENDMDL
MODEL 5
REMARK VINA RESULT:      -4.9     10.768     12.948
REMARK  Name = Propylthiouracil
REMARK  3 active torsions:
REMARK  status: ('A' for Active; 'I' for Inactive)
REMARK    1  A    between atoms: C_1  and  C_2
REMARK    2  A    between atoms: C_2  and  C_3
REMARK    3  A    between atoms: C_3  and  C_4
REMARK                            x       y       z     vdW  Elec       q    Type
REMARK                         _______ _______ _______ _____ _____    ______ ____
ROOT
ATOM      1  C   UNL     1      -7.075  -2.087 123.956  0.00  0.00    +0.000 A 
ATOM      2  C   UNL     1      -8.259  -2.122 123.329  0.00  0.00    +0.000 A 
ATOM      3  C   UNL     1      -9.020  -0.869 123.144  0.00  0.00    +0.000 A 
ATOM      4  O   UNL     1     -10.090  -0.863 122.544  0.00  0.00    +0.000 OA
ATOM      5  N   UNL     1      -8.457   0.261 123.669  0.00  0.00    +0.000 N 
ATOM      6  C   UNL     1      -7.253   0.299 124.302  0.00  0.00    +0.000 A 
ATOM      7  S   UNL     1      -6.603   1.706 124.898  0.00  0.00    +0.000 S 
ATOM      8  N   UNL     1      -6.594  -0.887 124.425  0.00  0.00    +0.000 N 
ATOM      9  H   UNL     1      -8.966   1.124 123.551  0.00  0.00    +0.000 HD
ATOM     10  H   UNL     1      -5.695  -0.833 124.892  0.00  0.00    +0.000 HD
ENDROOT
BRANCH   1  11
ATOM     11  C   UNL     1      -6.251  -3.337 124.148  0.00  0.00    +0.000 C 
BRANCH  11  13
ATOM     12  C   UNL     1      -4.172  -4.625 123.523  0.00  0.00    +0.000 C 
ATOM     13  C   UNL     1      -4.883  -3.291 123.462  0.00  0.00    +0.000 C 
ENDBRANCH  11  13
ENDBRANCH   1  11
TORSDOF 2
ENDMDL
MODEL 6
REMARK VINA RESULT:      -4.8      3.367      4.108
REMARK  Name = Propylthiouracil
REMARK  3 active torsions:
REMARK  status: ('A' for Active; 'I' for Inactive)
REMARK    1  A    between atoms: C_1  and  C_2
REMARK    2  A    between atoms: C_2  and  C_3
REMARK    3  A    between atoms: C_3  and  C_4
REMARK                            x       y       z     vdW  Elec       q    Type
REMARK                         _______ _______ _______ _____ _____    ______ ____
ROOT
ATOM      1  C   UNL     1     -10.603   6.322 131.719  0.00  0.00    +0.000 A 
ATOM      2  C   UNL     1      -9.675   6.910 130.950  0.00  0.00    +0.000 A 
ATOM      3  C   UNL     1      -8.244   6.671 131.228  0.00  0.00    +0.000 A 
ATOM      4  O   UNL     1      -7.373   7.168 130.521  0.00  0.00    +0.000 OA
ATOM      5  N   UNL     1      -7.964   5.869 132.299  0.00  0.00    +0.000 N 
ATOM      6  C   UNL     1      -8.904   5.267 133.078  0.00  0.00    +0.000 A 
ATOM      7  S   UNL     1      -8.506   4.279 134.352  0.00  0.00    +0.000 S 
ATOM      8  N   UNL     1     -10.204   5.514 132.760  0.00  0.00    +0.000 N 
ATOM      9  H   UNL     1      -6.990   5.697 132.501  0.00  0.00    +0.000 HD
ATOM     10  H   UNL     1     -10.887   5.048 133.347  0.00  0.00    +0.000 HD
ENDROOT
BRANCH   1  11
ATOM     11  C   UNL     1     -12.077   6.516 131.460  0.00  0.00    +0.000 C 
BRANCH  11  13
ATOM     12  C   UNL     1     -13.183   7.089 129.266  0.00  0.00    +0.000 C 
ATOM     13  C   UNL     1     -12.389   7.615 130.441  0.00  0.00    +0.000 C 
ENDBRANCH  11  13
ENDBRANCH   1  11
TORSDOF 2
ENDMDL
MODEL 7
REMARK VINA RESULT:      -4.8      2.272      4.072
REMARK  Name = Propylthiouracil
REMARK  3 active torsions:
REMARK  status: ('A' for Active; 'I' for Inactive)
REMARK    1  A    between atoms: C_1  and  C_2
REMARK    2  A    between atoms: C_2  and  C_3
REMARK    3  A    between atoms: C_3  and  C_4
REMARK                            x       y       z     vdW  Elec       q    Type
REMARK                         _______ _______ _______ _____ _____    ______ ____
ROOT
ATOM      1  C   UNL     1     -10.510   6.910 129.218  0.00  0.00    +0.000 A 
ATOM      2  C   UNL     1     -10.297   6.920 127.895  0.00  0.00    +0.000 A 
ATOM      3  C   UNL     1     -10.994   7.915 127.054  0.00  0.00    +0.000 A 
ATOM      4  O   UNL     1     -10.793   7.971 125.845  0.00  0.00    +0.000 OA
ATOM      5  N   UNL     1     -11.853   8.757 127.705  0.00  0.00    +0.000 N 
ATOM      6  C   UNL     1     -12.068   8.751 129.049  0.00  0.00    +0.000 A 
ATOM      7  S   UNL     1     -13.104   9.816 129.790  0.00  0.00    +0.000 S 
ATOM      8  N   UNL     1     -11.382   7.821 129.769  0.00  0.00    +0.000 N 
ATOM      9  H   UNL     1     -12.337   9.441 127.143  0.00  0.00    +0.000 HD
ATOM     10  H   UNL     1     -11.550   7.842 130.769  0.00  0.00    +0.000 HD
ENDROOT
BRANCH   1  11
ATOM     11  C   UNL     1      -9.803   5.929 130.121  0.00  0.00    +0.000 C 
BRANCH  11  13
ATOM     12  C   UNL     1      -7.635   6.870 131.006  0.00  0.00    +0.000 C 
ATOM     13  C   UNL     1      -9.089   6.579 131.308  0.00  0.00    +0.000 C 
ENDBRANCH  11  13
ENDBRANCH   1  11
TORSDOF 2
ENDMDL
MODEL 8
REMARK VINA RESULT:      -4.7      8.234      9.891
REMARK  Name = Propylthiouracil
REMARK  3 active torsions:
REMARK  status: ('A' for Active; 'I' for Inactive)
REMARK    1  A    between atoms: C_1  and  C_2
REMARK    2  A    between atoms: C_2  and  C_3
REMARK    3  A    between atoms: C_3  and  C_4
REMARK                            x       y       z     vdW  Elec       q    Type
REMARK                         _______ _______ _______ _____ _____    ______ ____
ROOT
ATOM      1  C   UNL     1      -6.065   3.830 122.693  0.00  0.00    +0.000 A 
ATOM      2  C   UNL     1      -5.665   4.558 123.745  0.00  0.00    +0.000 A 
ATOM      3  C   UNL     1      -6.440   4.506 125.002  0.00  0.00    +0.000 A 
ATOM      4  O   UNL     1      -6.079   5.134 125.992  0.00  0.00    +0.000 OA
ATOM      5  N   UNL     1      -7.557   3.718 124.988  0.00  0.00    +0.000 N 
ATOM      6  C   UNL     1      -7.963   2.975 123.922  0.00  0.00    +0.000 A 
ATOM      7  S   UNL     1      -9.317   2.014 123.969  0.00  0.00    +0.000 S 
ATOM      8  N   UNL     1      -7.197   3.054 122.800  0.00  0.00    +0.000 N 
ATOM      9  H   UNL     1      -8.098   3.673 125.839  0.00  0.00    +0.000 HD
ATOM     10  H   UNL     1      -7.512   2.485 122.022  0.00  0.00    +0.000 HD
ENDROOT
BRANCH   1  11
ATOM     11  C   UNL     1      -5.293   3.833 121.396  0.00  0.00    +0.000 C 
BRANCH  11  13
ATOM     12  C   UNL     1      -5.455   5.426 119.446  0.00  0.00    +0.000 C 
ATOM     13  C   UNL     1      -6.114   4.282 120.186  0.00  0.00    +0.000 C 
ENDBRANCH  11  13
ENDBRANCH   1  11
TORSDOF 2
ENDMDL
MODEL 9
REMARK VINA RESULT:      -4.7      2.854      3.699
REMARK  Name = Propylthiouracil
REMARK  3 active torsions:
REMARK  status: ('A' for Active; 'I' for Inactive)
REMARK    1  A    between atoms: C_1  and  C_2
REMARK    2  A    between atoms: C_2  and  C_3
REMARK    3  A    between atoms: C_3  and  C_4
REMARK                            x       y       z     vdW  Elec       q    Type
REMARK                         _______ _______ _______ _____ _____    ______ ____
ROOT
ATOM      1  C   UNL     1     -11.384   6.060 131.495  0.00  0.00    +0.000 A 
ATOM      2  C   UNL     1     -11.267   5.177 130.493  0.00  0.00    +0.000 A 
ATOM      3  C   UNL     1     -10.217   4.140 130.555  0.00  0.00    +0.000 A 
ATOM      4  O   UNL     1     -10.108   3.298 129.670  0.00  0.00    +0.000 OA
ATOM      5  N   UNL     1      -9.397   4.180 131.649  0.00  0.00    +0.000 N 
ATOM      6  C   UNL     1      -9.515   5.073 132.669  0.00  0.00    +0.000 A 
ATOM      7  S   UNL     1      -8.506   5.057 133.988  0.00  0.00    +0.000 S 
ATOM      8  N   UNL     1     -10.514   5.991 132.559  0.00  0.00    +0.000 N 
ATOM      9  H   UNL     1      -8.673   3.478 131.705  0.00  0.00    +0.000 HD
ATOM     10  H   UNL     1     -10.590   6.639 133.335  0.00  0.00    +0.000 HD
ENDROOT
BRANCH   1  11
ATOM     11  C   UNL     1     -12.456   7.122 131.487  0.00  0.00    +0.000 C 
BRANCH  11  13
ATOM     12  C   UNL     1     -12.665   8.894 129.702  0.00  0.00    +0.000 C 
ATOM     13  C   UNL     1     -12.979   7.465 130.090  0.00  0.00    +0.000 C 
ENDBRANCH  11  13
ENDBRANCH   1  11
TORSDOF 2
ENDMDL
