MODEL 1
REMARK VINA RESULT:      -6.8      0.000      0.000
REMARK  Name = Propranolol
REMARK  9 active torsions:
REMARK  status: ('A' for Active; 'I' for Inactive)
REMARK    1  A    between atoms: C_1  and  C_2
REMARK    2  A    between atoms: C_2  and  C_3
REMARK    3  A    between atoms: C_2  and  N_4
REMARK    4  A    between atoms: N_4  and  C_5
REMARK    5  A    between atoms: C_5  and  C_6
REMARK    6  A    between atoms: C_6  and  O_7
REMARK    7  A    between atoms: C_6  and  C_8
REMARK    8  A    between atoms: C_8  and  O_9
REMARK    9  A    between atoms: O_9  and  C_10
REMARK                            x       y       z     vdW  Elec       q    Type
REMARK                         _______ _______ _______ _____ _____    ______ ____
ROOT
ATOM      1  O   UNL     1      -8.903   3.072 122.922  0.00  0.00    +0.000 OA
ENDROOT
BRANCH   1   2
ATOM      2  C   UNL     1      -7.751   3.499 122.302  0.00  0.00    +0.000 A 
ATOM      3  C   UNL     1      -6.517   3.482 122.958  0.00  0.00    +0.000 A 
ATOM      4  C   UNL     1      -5.361   3.870 122.284  0.00  0.00    +0.000 A 
ATOM      5  C   UNL     1      -5.430   4.256 120.948  0.00  0.00    +0.000 A 
ATOM      6  C   UNL     1      -6.648   4.238 120.256  0.00  0.00    +0.000 A 
ATOM      7  C   UNL     1      -7.833   3.852 120.934  0.00  0.00    +0.000 A 
ATOM      8  C   UNL     1      -9.041   3.840 120.204  0.00  0.00    +0.000 A 
ATOM      9  C   UNL     1      -9.079   4.187 118.852  0.00  0.00    +0.000 A 
ATOM     10  C   UNL     1      -7.909   4.558 118.197  0.00  0.00    +0.000 A 
ATOM     11  C   UNL     1      -6.704   4.584 118.896  0.00  0.00    +0.000 A 
ENDBRANCH   1   2
BRANCH   1  12
ATOM     12  C   UNL     1      -8.977   1.660 123.143  0.00  0.00    +0.000 C 
BRANCH  12  13
ATOM     13  C   UNL     1      -9.592   1.408 124.532  0.00  0.00    +0.000 C 
BRANCH  13  14
ATOM     14  O   UNL     1      -9.168   2.399 125.478  0.00  0.00    +0.000 OA
ATOM     15  H   UNL     1      -9.321   2.045 126.369  0.00  0.00    +0.000 HD
ENDBRANCH  13  14
BRANCH  13  16
ATOM     16  C   UNL     1      -9.171   0.017 125.029  0.00  0.00    +0.000 C 
BRANCH  16  17
ATOM     17  N   UNL     1      -9.584  -1.037 124.096  0.00  0.00    +0.000 NA
ATOM     18  H   UNL     1     -10.497  -1.396 124.390  0.00  0.00    +0.000 HD
BRANCH  17  20
ATOM     19  C   UNL     1      -9.340  -3.450 123.830  0.00  0.00    +0.000 C 
ATOM     20  C   UNL     1      -8.603  -2.120 123.991  0.00  0.00    +0.000 C 
ATOM     21  C   UNL     1      -7.676  -1.912 122.789  0.00  0.00    +0.000 C 
ENDBRANCH  17  20
ENDBRANCH  16  17
ENDBRANCH  13  16
ENDBRANCH  12  13
ENDBRANCH   1  12
TORSDOF 7
ENDMDL
MODEL 2
REMARK VINA RESULT:      -6.7      2.408      7.596
REMARK  Name = Propranolol
REMARK  9 active torsions:
REMARK  status: ('A' for Active; 'I' for Inactive)
REMARK    1  A    between atoms: C_1  and  C_2
REMARK    2  A    between atoms: C_2  and  C_3
REMARK    3  A    between atoms: C_2  and  N_4
REMARK    4  A    between atoms: N_4  and  C_5
REMARK    5  A    between atoms: C_5  and  C_6
REMARK    6  A    between atoms: C_6  and  O_7
REMARK    7  A    between atoms: C_6  and  C_8
REMARK    8  A    between atoms: C_8  and  O_9
REMARK    9  A    between atoms: O_9  and  C_10
REMARK                            x       y       z     vdW  Elec       q    Type
REMARK                         _______ _______ _______ _____ _____    ______ ____
ROOT
ATOM      1  O   UNL     1      -8.154   0.633 124.479  0.00  0.00    +0.000 OA
ENDROOT
BRANCH   1   2
ATOM      2  C   UNL     1      -8.557  -0.681 124.418  0.00  0.00    +0.000 A 
ATOM      3  C   UNL     1      -8.953  -1.270 123.213  0.00  0.00    +0.000 A 
ATOM      4  C   UNL     1      -9.305  -2.617 123.176  0.00  0.00    +0.000 A 
ATOM      5  C   UNL     1      -9.243  -3.386 124.335  0.00  0.00    +0.000 A 
ATOM      6  C   UNL     1      -8.806  -2.829 125.545  0.00  0.00    +0.000 A 
ATOM      7  C   UNL     1      -8.453  -1.456 125.597  0.00  0.00    +0.000 A 
ATOM      8  C   UNL     1      -8.012  -0.932 126.830  0.00  0.00    +0.000 A 
ATOM      9  C   UNL     1      -7.913  -1.731 127.970  0.00  0.00    +0.000 A 
ATOM     10  C   UNL     1      -8.258  -3.078 127.904  0.00  0.00    +0.000 A 
ATOM     11  C   UNL     1      -8.702  -3.621 126.700  0.00  0.00    +0.000 A 
ENDBRANCH   1   2
BRANCH   1  12
ATOM     12  C   UNL     1      -8.188   1.330 123.229  0.00  0.00    +0.000 C 
BRANCH  12  13
ATOM     13  C   UNL     1      -7.433   2.663 123.385  0.00  0.00    +0.000 C 
BRANCH  13  14
ATOM     14  O   UNL     1      -8.333   3.779 123.358  0.00  0.00    +0.000 OA
ATOM     15  H   UNL     1      -8.291   4.174 122.472  0.00  0.00    +0.000 HD
ENDBRANCH  13  14
BRANCH  13  16
ATOM     16  C   UNL     1      -6.412   2.804 122.246  0.00  0.00    +0.000 C 
BRANCH  16  17
ATOM     17  N   UNL     1      -6.432   4.153 121.669  0.00  0.00    +0.000 NA
ATOM     18  H   UNL     1      -7.312   4.607 121.927  0.00  0.00    +0.000 HD
BRANCH  17  20
ATOM     19  C   UNL     1      -7.613   4.285 119.538  0.00  0.00    +0.000 C 
ATOM     20  C   UNL     1      -6.248   4.152 120.216  0.00  0.00    +0.000 C 
ATOM     21  C   UNL     1      -5.353   5.313 119.771  0.00  0.00    +0.000 C 
ENDBRANCH  17  20
ENDBRANCH  16  17
ENDBRANCH  13  16
ENDBRANCH  12  13
ENDBRANCH   1  12
TORSDOF 7
ENDMDL
MODEL 3
REMARK VINA RESULT:      -6.6      2.335      6.326
REMARK  Name = Propranolol
REMARK  9 active torsions:
REMARK  status: ('A' for Active; 'I' for Inactive)
REMARK    1  A    between atoms: C_1  and  C_2
REMARK    2  A    between atoms: C_2  and  C_3
REMARK    3  A    between atoms: C_2  and  N_4
REMARK    4  A    between atoms: N_4  and  C_5
REMARK    5  A    between atoms: C_5  and  C_6
REMARK    6  A    between atoms: C_6  and  O_7
REMARK    7  A    between atoms: C_6  and  C_8
REMARK    8  A    between atoms: C_8  and  O_9
REMARK    9  A    between atoms: O_9  and  C_10
REMARK                            x       y       z     vdW  Elec       q    Type
REMARK                         _______ _______ _______ _____ _____    ______ ____
ROOT
ATOM      1  O   UNL     1      -7.014   1.224 124.033  0.00  0.00    +0.000 OA
ENDROOT
BRANCH   1   2
ATOM      2  C   UNL     1      -6.698   0.041 124.659  0.00  0.00    +0.000 A 
ATOM      3  C   UNL     1      -5.726  -0.020 125.662  0.00  0.00    +0.000 A 
ATOM      4  C   UNL     1      -5.468  -1.224 126.314  0.00  0.00    +0.000 A 
ATOM      5  C   UNL     1      -6.192  -2.365 125.982  0.00  0.00    +0.000 A 
ATOM      6  C   UNL     1      -7.203  -2.319 125.012  0.00  0.00    +0.000 A 
ATOM      7  C   UNL     1      -7.469  -1.101 124.335  0.00  0.00    +0.000 A 
ATOM      8  C   UNL     1      -8.498  -1.090 123.369  0.00  0.00    +0.000 A 
ATOM      9  C   UNL     1      -9.243  -2.236 123.085  0.00  0.00    +0.000 A 
ATOM     10  C   UNL     1      -8.975  -3.423 123.759  0.00  0.00    +0.000 A 
ATOM     11  C   UNL     1      -7.961  -3.462 124.714  0.00  0.00    +0.000 A 
ENDBRANCH   1   2
BRANCH   1  12
ATOM     12  C   UNL     1      -7.618   2.209 124.878  0.00  0.00    +0.000 C 
BRANCH  12  13
ATOM     13  C   UNL     1      -8.867   2.768 124.174  0.00  0.00    +0.000 C 
BRANCH  13  14
ATOM     14  O   UNL     1     -10.063   2.138 124.653  0.00  0.00    +0.000 OA
ATOM     15  H   UNL     1     -10.503   2.756 125.258  0.00  0.00    +0.000 HD
ENDBRANCH  13  14
BRANCH  13  16
ATOM     16  C   UNL     1      -8.741   2.540 122.660  0.00  0.00    +0.000 C 
BRANCH  16  17
ATOM     17  N   UNL     1      -8.209   3.724 121.979  0.00  0.00    +0.000 NA
ATOM     18  H   UNL     1      -8.911   4.063 121.314  0.00  0.00    +0.000 HD
BRANCH  17  20
ATOM     19  C   UNL     1      -6.934   4.159 119.943  0.00  0.00    +0.000 C 
ATOM     20  C   UNL     1      -6.932   3.468 121.308  0.00  0.00    +0.000 C 
ATOM     21  C   UNL     1      -5.757   3.997 122.136  0.00  0.00    +0.000 C 
ENDBRANCH  17  20
ENDBRANCH  16  17
ENDBRANCH  13  16
ENDBRANCH  12  13
ENDBRANCH   1  12
TORSDOF 7
ENDMDL
MODEL 4
REMARK VINA RESULT:      -6.6      3.029      7.385
REMARK  Name = Propranolol
REMARK  9 active torsions:
REMARK  status: ('A' for Active; 'I' for Inactive)
REMARK    1  A    between atoms: C_1  and  C_2
REMARK    2  A    between atoms: C_2  and  C_3
REMARK    3  A    between atoms: C_2  and  N_4
REMARK    4  A    between atoms: N_4  and  C_5
REMARK    5  A    between atoms: C_5  and  C_6
REMARK    6  A    between atoms: C_6  and  O_7
REMARK    7  A    between atoms: C_6  and  C_8
REMARK    8  A    between atoms: C_8  and  O_9
REMARK    9  A    between atoms: O_9  and  C_10
REMARK                            x       y       z     vdW  Elec       q    Type
REMARK                         _______ _______ _______ _____ _____    ______ ____
ROOT
ATOM      1  O   UNL     1      -8.135   0.520 124.491  0.00  0.00    +0.000 OA
ENDROOT
BRANCH   1   2
ATOM      2  C   UNL     1      -8.551  -0.791 124.456  0.00  0.00    +0.000 A 
ATOM      3  C   UNL     1      -8.948  -1.401 123.262  0.00  0.00    +0.000 A 
ATOM      4  C   UNL     1      -9.313  -2.745 123.252  0.00  0.00    +0.000 A 
ATOM      5  C   UNL     1      -9.264  -3.489 124.428  0.00  0.00    +0.000 A 
ATOM      6  C   UNL     1      -8.826  -2.912 125.627  0.00  0.00    +0.000 A 
ATOM      7  C   UNL     1      -8.460  -1.541 125.652  0.00  0.00    +0.000 A 
ATOM      8  C   UNL     1      -8.019  -0.995 126.876  0.00  0.00    +0.000 A 
ATOM      9  C   UNL     1      -7.933  -1.771 128.033  0.00  0.00    +0.000 A 
ATOM     10  C   UNL     1      -8.291  -3.116 127.994  0.00  0.00    +0.000 A 
ATOM     11  C   UNL     1      -8.734  -3.679 126.799  0.00  0.00    +0.000 A 
ENDBRANCH   1   2
BRANCH   1  12
ATOM     12  C   UNL     1      -8.203   1.206 123.236  0.00  0.00    +0.000 C 
BRANCH  12  13
ATOM     13  C   UNL     1      -8.941   2.541 123.440  0.00  0.00    +0.000 C 
BRANCH  13  14
ATOM     14  O   UNL     1      -8.704   3.441 122.348  0.00  0.00    +0.000 OA
ATOM     15  H   UNL     1      -9.523   3.503 121.831  0.00  0.00    +0.000 HD
ENDBRANCH  13  14
BRANCH  13  16
ATOM     16  C   UNL     1      -8.463   3.190 124.748  0.00  0.00    +0.000 C 
BRANCH  16  17
ATOM     17  N   UNL     1      -7.788   4.468 124.500  0.00  0.00    +0.000 NA
ATOM     18  H   UNL     1      -7.959   4.747 123.530  0.00  0.00    +0.000 HD
BRANCH  17  20
ATOM     19  C   UNL     1      -6.058   3.199 125.662  0.00  0.00    +0.000 C 
ATOM     20  C   UNL     1      -6.352   4.417 124.785  0.00  0.00    +0.000 C 
ATOM     21  C   UNL     1      -5.536   4.313 123.493  0.00  0.00    +0.000 C 
ENDBRANCH  17  20
ENDBRANCH  16  17
ENDBRANCH  13  16
ENDBRANCH  12  13
ENDBRANCH   1  12
TORSDOF 7
ENDMDL
MODEL 5
REMARK VINA RESULT:      -6.5      1.705      2.531
REMARK  Name = Propranolol
REMARK  9 active torsions:
REMARK  status: ('A' for Active; 'I' for Inactive)
REMARK    1  A    between atoms: C_1  and  C_2
REMARK    2  A    between atoms: C_2  and  C_3
REMARK    3  A    between atoms: C_2  and  N_4
REMARK    4  A    between atoms: N_4  and  C_5
REMARK    5  A    between atoms: C_5  and  C_6
REMARK    6  A    between atoms: C_6  and  O_7
REMARK    7  A    between atoms: C_6  and  C_8
REMARK    8  A    between atoms: C_8  and  O_9
REMARK    9  A    between atoms: O_9  and  C_10
REMARK                            x       y       z     vdW  Elec       q    Type
REMARK                         _______ _______ _______ _____ _____    ______ ____
ROOT
ATOM      1  O   UNL     1      -9.026   2.371 122.787  0.00  0.00    +0.000 OA
ENDROOT
BRANCH   1   2
ATOM      2  C   UNL     1      -7.840   2.932 123.199  0.00  0.00    +0.000 A 
ATOM      3  C   UNL     1      -7.399   2.825 124.522  0.00  0.00    +0.000 A 
ATOM      4  C   UNL     1      -6.168   3.359 124.894  0.00  0.00    +0.000 A 
ATOM      5  C   UNL     1      -5.364   3.984 123.944  0.00  0.00    +0.000 A 
ATOM      6  C   UNL     1      -5.763   4.064 122.603  0.00  0.00    +0.000 A 
ATOM      7  C   UNL     1      -7.019   3.531 122.214  0.00  0.00    +0.000 A 
ATOM      8  C   UNL     1      -7.386   3.625 120.855  0.00  0.00    +0.000 A 
ATOM      9  C   UNL     1      -6.544   4.214 119.910  0.00  0.00    +0.000 A 
ATOM     10  C   UNL     1      -5.312   4.729 120.305  0.00  0.00    +0.000 A 
ATOM     11  C   UNL     1      -4.927   4.654 121.642  0.00  0.00    +0.000 A 
ENDBRANCH   1   2
BRANCH   1  12
ATOM     12  C   UNL     1      -9.594   1.428 123.703  0.00  0.00    +0.000 C 
BRANCH  12  13
ATOM     13  C   UNL     1      -9.206   0.007 123.256  0.00  0.00    +0.000 C 
BRANCH  13  14
ATOM     14  O   UNL     1     -10.281  -0.632 122.554  0.00  0.00    +0.000 OA
ATOM     15  H   UNL     1     -10.672   0.021 121.951  0.00  0.00    +0.000 HD
ENDBRANCH  13  14
BRANCH  13  16
ATOM     16  C   UNL     1      -8.834  -0.829 124.490  0.00  0.00    +0.000 C 
BRANCH  16  17
ATOM     17  N   UNL     1      -7.897  -1.905 124.149  0.00  0.00    +0.000 NA
ATOM     18  H   UNL     1      -7.847  -2.557 124.937  0.00  0.00    +0.000 HD
BRANCH  17  20
ATOM     19  C   UNL     1      -5.956  -0.698 125.005  0.00  0.00    +0.000 C 
ATOM     20  C   UNL     1      -6.565  -1.407 123.795  0.00  0.00    +0.000 C 
ATOM     21  C   UNL     1      -5.643  -2.553 123.369  0.00  0.00    +0.000 C 
ENDBRANCH  17  20
ENDBRANCH  16  17
ENDBRANCH  13  16
ENDBRANCH  12  13
ENDBRANCH   1  12
TORSDOF 7
ENDMDL
MODEL 6
REMARK VINA RESULT:      -6.5      9.161     10.783
REMARK  Name = Propranolol
REMARK  9 active torsions:
REMARK  status: ('A' for Active; 'I' for Inactive)
REMARK    1  A    between atoms: C_1  and  C_2
REMARK    2  A    between atoms: C_2  and  C_3
REMARK    3  A    between atoms: C_2  and  N_4
REMARK    4  A    between atoms: N_4  and  C_5
REMARK    5  A    between atoms: C_5  and  C_6
REMARK    6  A    between atoms: C_6  and  O_7
REMARK    7  A    between atoms: C_6  and  C_8
REMARK    8  A    between atoms: C_8  and  O_9
REMARK    9  A    between atoms: O_9  and  C_10
REMARK                            x       y       z     vdW  Elec       q    Type
REMARK                         _______ _______ _______ _____ _____    ______ ____
ROOT
ATOM      1  O   UNL     1      -8.210   6.612 130.169  0.00  0.00    +0.000 OA
ENDROOT
BRANCH   1   2
ATOM      2  C   UNL     1      -9.507   6.666 130.624  0.00  0.00    +0.000 A 
ATOM      3  C   UNL     1      -9.856   6.205 131.897  0.00  0.00    +0.000 A 
ATOM      4  C   UNL     1     -11.169   6.323 132.348  0.00  0.00    +0.000 A 
ATOM      5  C   UNL     1     -12.133   6.919 131.539  0.00  0.00    +0.000 A 
ATOM      6  C   UNL     1     -11.797   7.430 130.277  0.00  0.00    +0.000 A 
ATOM      7  C   UNL     1     -10.465   7.308 129.804  0.00  0.00    +0.000 A 
ATOM      8  C   UNL     1     -10.163   7.839 128.532  0.00  0.00    +0.000 A 
ATOM      9  C   UNL     1     -11.134   8.474 127.757  0.00  0.00    +0.000 A 
ATOM     10  C   UNL     1     -12.436   8.592 128.235  0.00  0.00    +0.000 A 
ATOM     11  C   UNL     1     -12.763   8.072 129.486  0.00  0.00    +0.000 A 
ENDBRANCH   1   2
BRANCH   1  12
ATOM     12  C   UNL     1      -7.568   5.344 130.336  0.00  0.00    +0.000 C 
BRANCH  12  13
ATOM     13  C   UNL     1      -6.044   5.561 130.369  0.00  0.00    +0.000 C 
BRANCH  13  14
ATOM     14  O   UNL     1      -5.382   4.507 131.083  0.00  0.00    +0.000 OA
ATOM     15  H   UNL     1      -5.998   3.761 131.151  0.00  0.00    +0.000 HD
ENDBRANCH  13  14
BRANCH  13  16
ATOM     16  C   UNL     1      -5.737   6.905 131.045  0.00  0.00    +0.000 C 
BRANCH  16  17
ATOM     17  N   UNL     1      -5.439   7.949 130.059  0.00  0.00    +0.000 NA
ATOM     18  H   UNL     1      -5.822   7.663 129.153  0.00  0.00    +0.000 HD
BRANCH  17  20
ATOM     19  C   UNL     1      -3.317   7.842 131.260  0.00  0.00    +0.000 C 
ATOM     20  C   UNL     1      -4.006   8.239 129.954  0.00  0.00    +0.000 C 
ATOM     21  C   UNL     1      -3.369   7.464 128.796  0.00  0.00    +0.000 C 
ENDBRANCH  17  20
ENDBRANCH  16  17
ENDBRANCH  13  16
ENDBRANCH  12  13
ENDBRANCH   1  12
TORSDOF 7
ENDMDL
MODEL 7
REMARK VINA RESULT:      -6.4      8.638      9.953
REMARK  Name = Propranolol
REMARK  9 active torsions:
REMARK  status: ('A' for Active; 'I' for Inactive)
REMARK    1  A    between atoms: C_1  and  C_2
REMARK    2  A    between atoms: C_2  and  C_3
REMARK    3  A    between atoms: C_2  and  N_4
REMARK    4  A    between atoms: N_4  and  C_5
REMARK    5  A    between atoms: C_5  and  C_6
REMARK    6  A    between atoms: C_6  and  O_7
REMARK    7  A    between atoms: C_6  and  C_8
REMARK    8  A    between atoms: C_8  and  O_9
REMARK    9  A    between atoms: O_9  and  C_10
REMARK                            x       y       z     vdW  Elec       q    Type
REMARK                         _______ _______ _______ _____ _____    ______ ____
ROOT
ATOM      1  O   UNL     1      -8.278   6.676 130.159  0.00  0.00    +0.000 OA
ENDROOT
BRANCH   1   2
ATOM      2  C   UNL     1      -9.581   6.720 130.600  0.00  0.00    +0.000 A 
ATOM      3  C   UNL     1      -9.931   6.310 131.890  0.00  0.00    +0.000 A 
ATOM      4  C   UNL     1     -11.251   6.417 132.324  0.00  0.00    +0.000 A 
ATOM      5  C   UNL     1     -12.220   6.952 131.480  0.00  0.00    +0.000 A 
ATOM      6  C   UNL     1     -11.885   7.412 130.199  0.00  0.00    +0.000 A 
ATOM      7  C   UNL     1     -10.546   7.300 129.743  0.00  0.00    +0.000 A 
ATOM      8  C   UNL     1     -10.244   7.778 128.450  0.00  0.00    +0.000 A 
ATOM      9  C   UNL     1     -11.223   8.354 127.638  0.00  0.00    +0.000 A 
ATOM     10  C   UNL     1     -12.531   8.461 128.099  0.00  0.00    +0.000 A 
ATOM     11  C   UNL     1     -12.858   7.993 129.370  0.00  0.00    +0.000 A 
ENDBRANCH   1   2
BRANCH   1  12
ATOM     12  C   UNL     1      -7.292   6.757 131.193  0.00  0.00    +0.000 C 
BRANCH  12  13
ATOM     13  C   UNL     1      -6.258   5.637 130.979  0.00  0.00    +0.000 C 
BRANCH  13  14
ATOM     14  O   UNL     1      -5.936   5.480 129.590  0.00  0.00    +0.000 OA
ATOM     15  H   UNL     1      -6.709   5.094 129.148  0.00  0.00    +0.000 HD
ENDBRANCH  13  14
BRANCH  13  16
ATOM     16  C   UNL     1      -6.820   4.315 131.524  0.00  0.00    +0.000 C 
BRANCH  16  17
ATOM     17  N   UNL     1      -7.630   3.619 130.518  0.00  0.00    +0.000 NA
ATOM     18  H   UNL     1      -8.074   4.316 129.914  0.00  0.00    +0.000 HD
BRANCH  17  20
ATOM     19  C   UNL     1      -8.637   2.920 132.629  0.00  0.00    +0.000 C 
ATOM     20  C   UNL     1      -8.629   2.727 131.111  0.00  0.00    +0.000 C 
ATOM     21  C   UNL     1     -10.028   3.021 130.562  0.00  0.00    +0.000 C 
ENDBRANCH  17  20
ENDBRANCH  16  17
ENDBRANCH  13  16
ENDBRANCH  12  13
ENDBRANCH   1  12
TORSDOF 7
ENDMDL
MODEL 8
REMARK VINA RESULT:      -6.3      4.118      7.145
REMARK  Name = Propranolol
REMARK  9 active torsions:
REMARK  status: ('A' for Active; 'I' for Inactive)
REMARK    1  A    between atoms: C_1  and  C_2
REMARK    2  A    between atoms: C_2  and  C_3
REMARK    3  A    between atoms: C_2  and  N_4
REMARK    4  A    between atoms: N_4  and  C_5
REMARK    5  A    between atoms: C_5  and  C_6
REMARK    6  A    between atoms: C_6  and  O_7
REMARK    7  A    between atoms: C_6  and  C_8
REMARK    8  A    between atoms: C_8  and  O_9
REMARK    9  A    between atoms: O_9  and  C_10
REMARK                            x       y       z     vdW  Elec       q    Type
REMARK                         _______ _______ _______ _____ _____    ______ ____
ROOT
ATOM      1  O   UNL     1      -5.500  -1.406 126.484  0.00  0.00    +0.000 OA
ENDROOT
BRANCH   1   2
ATOM      2  C   UNL     1      -6.662  -2.130 126.625  0.00  0.00    +0.000 A 
ATOM      3  C   UNL     1      -7.136  -2.515 127.883  0.00  0.00    +0.000 A 
ATOM      4  C   UNL     1      -8.343  -3.202 127.994  0.00  0.00    +0.000 A 
ATOM      5  C   UNL     1      -9.090  -3.488 126.855  0.00  0.00    +0.000 A 
ATOM      6  C   UNL     1      -8.658  -3.073 125.588  0.00  0.00    +0.000 A 
ATOM      7  C   UNL     1      -7.425  -2.380 125.461  0.00  0.00    +0.000 A 
ATOM      8  C   UNL     1      -7.025  -1.973 124.171  0.00  0.00    +0.000 A 
ATOM      9  C   UNL     1      -7.811  -2.230 123.047  0.00  0.00    +0.000 A 
ATOM     10  C   UNL     1      -9.020  -2.906 123.186  0.00  0.00    +0.000 A 
ATOM     11  C   UNL     1      -9.437  -3.324 124.448  0.00  0.00    +0.000 A 
ENDBRANCH   1   2
BRANCH   1  12
ATOM     12  C   UNL     1      -5.486  -0.154 127.179  0.00  0.00    +0.000 C 
BRANCH  12  13
ATOM     13  C   UNL     1      -5.077   0.955 126.193  0.00  0.00    +0.000 C 
BRANCH  13  14
ATOM     14  O   UNL     1      -3.971   1.719 126.695  0.00  0.00    +0.000 OA
ATOM     15  H   UNL     1      -4.290   2.245 127.446  0.00  0.00    +0.000 HD
ENDBRANCH  13  14
BRANCH  13  16
ATOM     16  C   UNL     1      -6.273   1.887 125.952  0.00  0.00    +0.000 C 
BRANCH  16  17
ATOM     17  N   UNL     1      -7.531   1.275 126.394  0.00  0.00    +0.000 NA
ATOM     18  H   UNL     1      -7.383   0.269 126.510  0.00  0.00    +0.000 HD
BRANCH  17  20
ATOM     19  C   UNL     1      -8.126   1.513 124.039  0.00  0.00    +0.000 C 
ATOM     20  C   UNL     1      -8.643   1.539 125.478  0.00  0.00    +0.000 C 
ATOM     21  C   UNL     1      -9.748   0.489 125.633  0.00  0.00    +0.000 C 
ENDBRANCH  17  20
ENDBRANCH  16  17
ENDBRANCH  13  16
ENDBRANCH  12  13
ENDBRANCH   1  12
TORSDOF 7
ENDMDL
MODEL 9
REMARK VINA RESULT:      -6.2      3.992      8.109
REMARK  Name = Propranolol
REMARK  9 active torsions:
REMARK  status: ('A' for Active; 'I' for Inactive)
REMARK    1  A    between atoms: C_1  and  C_2
REMARK    2  A    between atoms: C_2  and  C_3
REMARK    3  A    between atoms: C_2  and  N_4
REMARK    4  A    between atoms: N_4  and  C_5
REMARK    5  A    between atoms: C_5  and  C_6
REMARK    6  A    between atoms: C_6  and  O_7
REMARK    7  A    between atoms: C_6  and  C_8
REMARK    8  A    between atoms: C_8  and  O_9
REMARK    9  A    between atoms: O_9  and  C_10
REMARK                            x       y       z     vdW  Elec       q    Type
REMARK                         _______ _______ _______ _____ _____    ______ ____
ROOT
ATOM      1  O   UNL     1      -7.854  -0.293 126.250  0.00  0.00    +0.000 OA
ENDROOT
BRANCH   1   2
ATOM      2  C   UNL     1      -8.206  -1.472 126.865  0.00  0.00    +0.000 A 
ATOM      3  C   UNL     1      -8.893  -2.478 126.179  0.00  0.00    +0.000 A 
ATOM      4  C   UNL     1      -9.188  -3.682 126.814  0.00  0.00    +0.000 A 
ATOM      5  C   UNL     1      -8.781  -3.894 128.129  0.00  0.00    +0.000 A 
ATOM      6  C   UNL     1      -8.051  -2.919 128.822  0.00  0.00    +0.000 A 
ATOM      7  C   UNL     1      -7.753  -1.685 128.188  0.00  0.00    +0.000 A 
ATOM      8  C   UNL     1      -7.012  -0.729 128.915  0.00  0.00    +0.000 A 
ATOM      9  C   UNL     1      -6.573  -0.981 130.216  0.00  0.00    +0.000 A 
ATOM     10  C   UNL     1      -6.869  -2.197 130.825  0.00  0.00    +0.000 A 
ATOM     11  C   UNL     1      -7.604  -3.157 130.132  0.00  0.00    +0.000 A 
ENDBRANCH   1   2
BRANCH   1  12
ATOM     12  C   UNL     1      -8.923   0.646 126.095  0.00  0.00    +0.000 C 
BRANCH  12  13
ATOM     13  C   UNL     1      -8.713   1.423 124.783  0.00  0.00    +0.000 C 
BRANCH  13  14
ATOM     14  O   UNL     1      -9.847   2.245 124.475  0.00  0.00    +0.000 OA
ATOM     15  H   UNL     1     -10.275   1.877 123.685  0.00  0.00    +0.000 HD
ENDBRANCH  13  14
BRANCH  13  16
ATOM     16  C   UNL     1      -8.478   0.429 123.636  0.00  0.00    +0.000 C 
BRANCH  16  17
ATOM     17  N   UNL     1      -7.060   0.077 123.509  0.00  0.00    +0.000 NA
ATOM     18  H   UNL     1      -6.590   0.801 122.957  0.00  0.00    +0.000 HD
BRANCH  17  20
ATOM     19  C   UNL     1      -5.975  -2.082 123.851  0.00  0.00    +0.000 C 
ATOM     20  C   UNL     1      -6.853  -1.248 122.917  0.00  0.00    +0.000 C 
ATOM     21  C   UNL     1      -8.187  -1.971 122.704  0.00  0.00    +0.000 C 
ENDBRANCH  17  20
ENDBRANCH  16  17
ENDBRANCH  13  16
ENDBRANCH  12  13
ENDBRANCH   1  12
TORSDOF 7
ENDMDL
