MODEL 1
REMARK VINA RESULT:      -6.0      0.000      0.000
REMARK  Name = Propoxycaine
REMARK  14 active torsions:
REMARK  status: ('A' for Active; 'I' for Inactive)
REMARK    1  A    between atoms: C_1  and  C_2
REMARK    2  A    between atoms: C_2  and  C_3
REMARK    3  A    between atoms: C_3  and  O_4
REMARK    4  A    between atoms: O_4  and  C_5
REMARK    5  A    between atoms: C_7  and  N_8
REMARK    6  A    between atoms: C_11  and  C_12
REMARK    7  A    between atoms: C_12  and  O_14
REMARK    8  A    between atoms: O_14  and  C_15
REMARK    9  A    between atoms: C_15  and  C_16
REMARK   10  A    between atoms: C_16  and  N_17
REMARK   11  A    between atoms: N_17  and  C_18
REMARK   12  A    between atoms: N_17  and  C_20
REMARK   13  A    between atoms: C_18  and  C_19
REMARK   14  A    between atoms: C_20  and  C_21
REMARK                            x       y       z     vdW  Elec       q    Type
REMARK                         _______ _______ _______ _____ _____    ______ ____
ROOT
ATOM      1  C   UNL     1      -6.447   3.479 122.949  0.00  0.00    +0.000 A 
ATOM      2  C   UNL     1      -5.651   4.075 121.966  0.00  0.00    +0.000 A 
ATOM      3  C   UNL     1      -6.149   4.323 120.683  0.00  0.00    +0.000 A 
ATOM      4  C   UNL     1      -7.470   3.985 120.388  0.00  0.00    +0.000 A 
ATOM      5  C   UNL     1      -8.288   3.418 121.368  0.00  0.00    +0.000 A 
ATOM      6  C   UNL     1      -7.784   3.179 122.659  0.00  0.00    +0.000 A 
ENDROOT
BRANCH   3   7
ATOM      7  N   UNL     1      -5.345   4.913 119.728  0.00  0.00    +0.000 N 
ATOM      8  H   UNL     1      -4.833   5.759 119.939  0.00  0.00    +0.000 HD
ATOM      9  H   UNL     1      -5.165   4.452 118.847  0.00  0.00    +0.000 HD
ENDBRANCH   3   7
BRANCH   6  10
ATOM     10  C   UNL     1      -8.721   2.623 123.667  0.00  0.00    +0.000 C 
ATOM     11  O   UNL     1      -9.039   3.235 124.671  0.00  0.00    +0.000 OA
BRANCH  10  12
ATOM     12  O   UNL     1      -9.145   1.365 123.327  0.00  0.00    +0.000 OA
BRANCH  12  13
ATOM     13  C   UNL     1      -8.474   0.368 124.086  0.00  0.00    +0.000 C 
BRANCH  13  14
ATOM     14  C   UNL     1      -7.272  -0.301 123.398  0.00  0.00    +0.000 C 
BRANCH  14  15
ATOM     15  N   UNL     1      -7.511  -1.718 122.995  0.00  0.00    +0.000 NA
BRANCH  15  16
ATOM     16  C   UNL     1      -6.809  -2.705 123.849  0.00  0.00    +0.000 C 
ATOM     17  C   UNL     1      -5.328  -2.942 123.582  0.00  0.00    +0.000 C 
ENDBRANCH  15  16
BRANCH  15  18
ATOM     18  C   UNL     1      -8.972  -1.990 123.010  0.00  0.00    +0.000 C 
ATOM     19  C   UNL     1      -9.343  -3.313 123.687  0.00  0.00    +0.000 C 
ENDBRANCH  15  18
ENDBRANCH  14  15
ENDBRANCH  13  14
ENDBRANCH  12  13
ENDBRANCH  10  12
ENDBRANCH   6  10
BRANCH   1  20
ATOM     20  O   UNL     1      -5.896   3.033 124.122  0.00  0.00    +0.000 OA
BRANCH  20  21
ATOM     21  C   UNL     1      -5.222   4.011 124.911  0.00  0.00    +0.000 C 
BRANCH  21  23
ATOM     22  C   UNL     1      -3.137   3.651 126.266  0.00  0.00    +0.000 C 
ATOM     23  C   UNL     1      -4.603   3.292 126.109  0.00  0.00    +0.000 C 
ENDBRANCH  21  23
ENDBRANCH  20  21
ENDBRANCH   1  20
TORSDOF 11
ENDMDL
MODEL 2
REMARK VINA RESULT:      -5.8      2.533      6.540
REMARK  Name = Propoxycaine
REMARK  14 active torsions:
REMARK  status: ('A' for Active; 'I' for Inactive)
REMARK    1  A    between atoms: C_1  and  C_2
REMARK    2  A    between atoms: C_2  and  C_3
REMARK    3  A    between atoms: C_3  and  O_4
REMARK    4  A    between atoms: O_4  and  C_5
REMARK    5  A    between atoms: C_7  and  N_8
REMARK    6  A    between atoms: C_11  and  C_12
REMARK    7  A    between atoms: C_12  and  O_14
REMARK    8  A    between atoms: O_14  and  C_15
REMARK    9  A    between atoms: C_15  and  C_16
REMARK   10  A    between atoms: C_16  and  N_17
REMARK   11  A    between atoms: N_17  and  C_18
REMARK   12  A    between atoms: N_17  and  C_20
REMARK   13  A    between atoms: C_18  and  C_19
REMARK   14  A    between atoms: C_20  and  C_21
REMARK                            x       y       z     vdW  Elec       q    Type
REMARK                         _______ _______ _______ _____ _____    ______ ____
ROOT
ATOM      1  C   UNL     1      -7.634  -2.495 124.714  0.00  0.00    +0.000 A 
ATOM      2  C   UNL     1      -6.555  -3.382 124.674  0.00  0.00    +0.000 A 
ATOM      3  C   UNL     1      -5.568  -3.279 123.689  0.00  0.00    +0.000 A 
ATOM      4  C   UNL     1      -5.656  -2.259 122.742  0.00  0.00    +0.000 A 
ATOM      5  C   UNL     1      -6.711  -1.345 122.786  0.00  0.00    +0.000 A 
ATOM      6  C   UNL     1      -7.696  -1.449 123.785  0.00  0.00    +0.000 A 
ENDROOT
BRANCH   3   7
ATOM      7  N   UNL     1      -4.510  -4.167 123.669  0.00  0.00    +0.000 N 
ATOM      8  H   UNL     1      -3.695  -4.007 124.246  0.00  0.00    +0.000 HD
ATOM      9  H   UNL     1      -4.580  -5.042 123.170  0.00  0.00    +0.000 HD
ENDBRANCH   3   7
BRANCH   6  10
ATOM     10  C   UNL     1      -8.760  -0.414 123.806  0.00  0.00    +0.000 C 
ATOM     11  O   UNL     1      -9.693  -0.420 123.022  0.00  0.00    +0.000 OA
BRANCH  10  12
ATOM     12  O   UNL     1      -8.541   0.521 124.784  0.00  0.00    +0.000 OA
BRANCH  12  13
ATOM     13  C   UNL     1      -8.646   1.842 124.271  0.00  0.00    +0.000 C 
BRANCH  13  14
ATOM     14  C   UNL     1      -7.349   2.446 123.708  0.00  0.00    +0.000 C 
BRANCH  14  15
ATOM     15  N   UNL     1      -7.391   2.727 122.242  0.00  0.00    +0.000 NA
BRANCH  15  16
ATOM     16  C   UNL     1      -8.727   3.143 121.755  0.00  0.00    +0.000 C 
ATOM     17  C   UNL     1      -8.795   3.886 120.427  0.00  0.00    +0.000 C 
ENDBRANCH  15  16
BRANCH  15  18
ATOM     18  C   UNL     1      -6.388   3.774 121.917  0.00  0.00    +0.000 C 
ATOM     19  C   UNL     1      -5.319   3.311 120.922  0.00  0.00    +0.000 C 
ENDBRANCH  15  18
ENDBRANCH  14  15
ENDBRANCH  13  14
ENDBRANCH  12  13
ENDBRANCH  10  12
ENDBRANCH   6  10
BRANCH   1  20
ATOM     20  O   UNL     1      -8.708  -2.733 125.531  0.00  0.00    +0.000 OA
BRANCH  20  21
ATOM     21  C   UNL     1      -8.549  -2.368 126.900  0.00  0.00    +0.000 C 
BRANCH  21  23
ATOM     22  C   UNL     1      -8.369  -3.377 129.194  0.00  0.00    +0.000 C 
ATOM     23  C   UNL     1      -8.717  -3.634 127.739  0.00  0.00    +0.000 C 
ENDBRANCH  21  23
ENDBRANCH  20  21
ENDBRANCH   1  20
TORSDOF 11
ENDMDL
MODEL 3
REMARK VINA RESULT:      -5.6      1.737      3.179
REMARK  Name = Propoxycaine
REMARK  14 active torsions:
REMARK  status: ('A' for Active; 'I' for Inactive)
REMARK    1  A    between atoms: C_1  and  C_2
REMARK    2  A    between atoms: C_2  and  C_3
REMARK    3  A    between atoms: C_3  and  O_4
REMARK    4  A    between atoms: O_4  and  C_5
REMARK    5  A    between atoms: C_7  and  N_8
REMARK    6  A    between atoms: C_11  and  C_12
REMARK    7  A    between atoms: C_12  and  O_14
REMARK    8  A    between atoms: O_14  and  C_15
REMARK    9  A    between atoms: C_15  and  C_16
REMARK   10  A    between atoms: C_16  and  N_17
REMARK   11  A    between atoms: N_17  and  C_18
REMARK   12  A    between atoms: N_17  and  C_20
REMARK   13  A    between atoms: C_18  and  C_19
REMARK   14  A    between atoms: C_20  and  C_21
REMARK                            x       y       z     vdW  Elec       q    Type
REMARK                         _______ _______ _______ _____ _____    ______ ____
ROOT
ATOM      1  C   UNL     1      -7.922   3.245 121.901  0.00  0.00    +0.000 A 
ATOM      2  C   UNL     1      -7.952   3.760 120.602  0.00  0.00    +0.000 A 
ATOM      3  C   UNL     1      -6.808   4.309 120.014  0.00  0.00    +0.000 A 
ATOM      4  C   UNL     1      -5.613   4.324 120.734  0.00  0.00    +0.000 A 
ATOM      5  C   UNL     1      -5.559   3.786 122.021  0.00  0.00    +0.000 A 
ATOM      6  C   UNL     1      -6.710   3.227 122.604  0.00  0.00    +0.000 A 
ENDROOT
BRANCH   3   7
ATOM      7  N   UNL     1      -6.861   4.812 118.729  0.00  0.00    +0.000 N 
ATOM      8  H   UNL     1      -6.136   4.588 118.061  0.00  0.00    +0.000 HD
ATOM      9  H   UNL     1      -7.675   5.312 118.403  0.00  0.00    +0.000 HD
ENDBRANCH   3   7
BRANCH   6  10
ATOM     10  C   UNL     1      -6.570   2.625 123.953  0.00  0.00    +0.000 C 
ATOM     11  O   UNL     1      -6.378   3.297 124.952  0.00  0.00    +0.000 OA
BRANCH  10  12
ATOM     12  O   UNL     1      -6.666   1.258 123.913  0.00  0.00    +0.000 OA
BRANCH  12  13
ATOM     13  C   UNL     1      -6.343   0.679 125.170  0.00  0.00    +0.000 C 
BRANCH  13  14
ATOM     14  C   UNL     1      -7.242  -0.486 125.620  0.00  0.00    +0.000 C 
BRANCH  14  15
ATOM     15  N   UNL     1      -7.350  -1.594 124.626  0.00  0.00    +0.000 NA
BRANCH  15  16
ATOM     16  C   UNL     1      -6.224  -2.555 124.683  0.00  0.00    +0.000 C 
ATOM     17  C   UNL     1      -5.410  -2.767 123.413  0.00  0.00    +0.000 C 
ENDBRANCH  15  16
BRANCH  15  18
ATOM     18  C   UNL     1      -8.635  -2.310 124.832  0.00  0.00    +0.000 C 
ATOM     19  C   UNL     1      -9.182  -2.967 123.560  0.00  0.00    +0.000 C 
ENDBRANCH  15  18
ENDBRANCH  14  15
ENDBRANCH  13  14
ENDBRANCH  12  13
ENDBRANCH  10  12
ENDBRANCH   6  10
BRANCH   1  20
ATOM     20  O   UNL     1      -9.082   2.919 122.554  0.00  0.00    +0.000 OA
BRANCH  20  21
ATOM     21  C   UNL     1      -9.817   1.821 122.018  0.00  0.00    +0.000 C 
BRANCH  21  23
ATOM     22  C   UNL     1     -10.139   1.423 124.477  0.00  0.00    +0.000 C 
ATOM     23  C   UNL     1      -9.949   0.771 123.120  0.00  0.00    +0.000 C 
ENDBRANCH  21  23
ENDBRANCH  20  21
ENDBRANCH   1  20
TORSDOF 11
ENDMDL
MODEL 4
REMARK VINA RESULT:      -5.4      4.064      6.068
REMARK  Name = Propoxycaine
REMARK  14 active torsions:
REMARK  status: ('A' for Active; 'I' for Inactive)
REMARK    1  A    between atoms: C_1  and  C_2
REMARK    2  A    between atoms: C_2  and  C_3
REMARK    3  A    between atoms: C_3  and  O_4
REMARK    4  A    between atoms: O_4  and  C_5
REMARK    5  A    between atoms: C_7  and  N_8
REMARK    6  A    between atoms: C_11  and  C_12
REMARK    7  A    between atoms: C_12  and  O_14
REMARK    8  A    between atoms: O_14  and  C_15
REMARK    9  A    between atoms: C_15  and  C_16
REMARK   10  A    between atoms: C_16  and  N_17
REMARK   11  A    between atoms: N_17  and  C_18
REMARK   12  A    between atoms: N_17  and  C_20
REMARK   13  A    between atoms: C_18  and  C_19
REMARK   14  A    between atoms: C_20  and  C_21
REMARK                            x       y       z     vdW  Elec       q    Type
REMARK                         _______ _______ _______ _____ _____    ______ ____
ROOT
ATOM      1  C   UNL     1      -7.863  -0.828 124.076  0.00  0.00    +0.000 A 
ATOM      2  C   UNL     1      -7.529   0.446 123.610  0.00  0.00    +0.000 A 
ATOM      3  C   UNL     1      -8.042   1.597 124.216  0.00  0.00    +0.000 A 
ATOM      4  C   UNL     1      -8.889   1.467 125.316  0.00  0.00    +0.000 A 
ATOM      5  C   UNL     1      -9.209   0.201 125.814  0.00  0.00    +0.000 A 
ATOM      6  C   UNL     1      -8.682  -0.952 125.206  0.00  0.00    +0.000 A 
ENDROOT
BRANCH   3   7
ATOM      7  N   UNL     1      -7.698   2.847 123.738  0.00  0.00    +0.000 N 
ATOM      8  H   UNL     1      -6.943   3.368 124.163  0.00  0.00    +0.000 HD
ATOM      9  H   UNL     1      -8.114   3.209 122.892  0.00  0.00    +0.000 HD
ENDBRANCH   3   7
BRANCH   6  10
ATOM     10  C   UNL     1      -9.019  -2.262 125.817  0.00  0.00    +0.000 C 
ATOM     11  O   UNL     1     -10.021  -2.886 125.512  0.00  0.00    +0.000 OA
BRANCH  10  12
ATOM     12  O   UNL     1      -8.089  -2.644 126.748  0.00  0.00    +0.000 OA
BRANCH  12  13
ATOM     13  C   UNL     1      -8.656  -3.506 127.725  0.00  0.00    +0.000 C 
BRANCH  13  14
ATOM     14  C   UNL     1      -8.038  -3.423 129.131  0.00  0.00    +0.000 C 
BRANCH  14  15
ATOM     15  N   UNL     1      -7.057  -2.310 129.302  0.00  0.00    +0.000 NA
BRANCH  15  16
ATOM     16  C   UNL     1      -7.607  -1.139 130.024  0.00  0.00    +0.000 C 
ATOM     17  C   UNL     1      -7.738   0.168 129.252  0.00  0.00    +0.000 C 
ENDBRANCH  15  16
BRANCH  15  18
ATOM     18  C   UNL     1      -5.857  -2.823 130.014  0.00  0.00    +0.000 C 
ATOM     19  C   UNL     1      -5.939  -4.314 130.358  0.00  0.00    +0.000 C 
ENDBRANCH  15  18
ENDBRANCH  14  15
ENDBRANCH  13  14
ENDBRANCH  12  13
ENDBRANCH  10  12
ENDBRANCH   6  10
BRANCH   1  20
ATOM     20  O   UNL     1      -7.546  -1.947 123.350  0.00  0.00    +0.000 OA
BRANCH  20  21
ATOM     21  C   UNL     1      -6.165  -2.126 123.045  0.00  0.00    +0.000 C 
BRANCH  21  23
ATOM     22  C   UNL     1      -4.502  -3.928 123.593  0.00  0.00    +0.000 C 
ATOM     23  C   UNL     1      -5.557  -2.990 124.149  0.00  0.00    +0.000 C 
ENDBRANCH  21  23
ENDBRANCH  20  21
ENDBRANCH   1  20
TORSDOF 11
ENDMDL
MODEL 5
REMARK VINA RESULT:      -5.3      3.827      6.598
REMARK  Name = Propoxycaine
REMARK  14 active torsions:
REMARK  status: ('A' for Active; 'I' for Inactive)
REMARK    1  A    between atoms: C_1  and  C_2
REMARK    2  A    between atoms: C_2  and  C_3
REMARK    3  A    between atoms: C_3  and  O_4
REMARK    4  A    between atoms: O_4  and  C_5
REMARK    5  A    between atoms: C_7  and  N_8
REMARK    6  A    between atoms: C_11  and  C_12
REMARK    7  A    between atoms: C_12  and  O_14
REMARK    8  A    between atoms: O_14  and  C_15
REMARK    9  A    between atoms: C_15  and  C_16
REMARK   10  A    between atoms: C_16  and  N_17
REMARK   11  A    between atoms: N_17  and  C_18
REMARK   12  A    between atoms: N_17  and  C_20
REMARK   13  A    between atoms: C_18  and  C_19
REMARK   14  A    between atoms: C_20  and  C_21
REMARK                            x       y       z     vdW  Elec       q    Type
REMARK                         _______ _______ _______ _____ _____    ______ ____
ROOT
ATOM      1  C   UNL     1      -7.782  -2.564 124.489  0.00  0.00    +0.000 A 
ATOM      2  C   UNL     1      -6.667  -3.396 124.627  0.00  0.00    +0.000 A 
ATOM      3  C   UNL     1      -5.592  -3.321 123.738  0.00  0.00    +0.000 A 
ATOM      4  C   UNL     1      -5.627  -2.385 122.705  0.00  0.00    +0.000 A 
ATOM      5  C   UNL     1      -6.719  -1.525 122.570  0.00  0.00    +0.000 A 
ATOM      6  C   UNL     1      -7.794  -1.599 123.473  0.00  0.00    +0.000 A 
ENDROOT
BRANCH   3   7
ATOM      7  N   UNL     1      -4.500  -4.154 123.895  0.00  0.00    +0.000 N 
ATOM      8  H   UNL     1      -3.925  -4.399 123.101  0.00  0.00    +0.000 HD
ATOM      9  H   UNL     1      -4.194  -4.436 124.815  0.00  0.00    +0.000 HD
ENDBRANCH   3   7
BRANCH   6  10
ATOM     10  C   UNL     1      -8.897  -0.621 123.305  0.00  0.00    +0.000 C 
ATOM     11  O   UNL     1      -9.922  -0.889 122.702  0.00  0.00    +0.000 OA
BRANCH  10  12
ATOM     12  O   UNL     1      -8.602   0.585 123.886  0.00  0.00    +0.000 OA
BRANCH  12  13
ATOM     13  C   UNL     1      -9.492   0.879 124.954  0.00  0.00    +0.000 C 
BRANCH  13  14
ATOM     14  C   UNL     1      -8.906   0.744 126.370  0.00  0.00    +0.000 C 
BRANCH  14  15
ATOM     15  N   UNL     1      -8.711   2.044 127.076  0.00  0.00    +0.000 NA
BRANCH  15  16
ATOM     16  C   UNL     1      -8.623   1.912 128.549  0.00  0.00    +0.000 C 
ATOM     17  C   UNL     1      -7.866   0.714 129.108  0.00  0.00    +0.000 C 
ENDBRANCH  15  16
BRANCH  15  18
ATOM     18  C   UNL     1      -7.485   2.703 126.555  0.00  0.00    +0.000 C 
ATOM     19  C   UNL     1      -7.208   4.070 127.190  0.00  0.00    +0.000 C 
ENDBRANCH  15  18
ENDBRANCH  14  15
ENDBRANCH  13  14
ENDBRANCH  12  13
ENDBRANCH  10  12
ENDBRANCH   6  10
BRANCH   1  20
ATOM     20  O   UNL     1      -8.922  -2.791 125.214  0.00  0.00    +0.000 OA
BRANCH  20  21
ATOM     21  C   UNL     1      -8.776  -3.609 126.373  0.00  0.00    +0.000 C 
BRANCH  21  23
ATOM     22  C   UNL     1      -8.442  -3.442 128.857  0.00  0.00    +0.000 C 
ATOM     23  C   UNL     1      -8.390  -2.697 127.537  0.00  0.00    +0.000 C 
ENDBRANCH  21  23
ENDBRANCH  20  21
ENDBRANCH   1  20
TORSDOF 11
ENDMDL
MODEL 6
REMARK VINA RESULT:      -5.3      3.635      6.905
REMARK  Name = Propoxycaine
REMARK  14 active torsions:
REMARK  status: ('A' for Active; 'I' for Inactive)
REMARK    1  A    between atoms: C_1  and  C_2
REMARK    2  A    between atoms: C_2  and  C_3
REMARK    3  A    between atoms: C_3  and  O_4
REMARK    4  A    between atoms: O_4  and  C_5
REMARK    5  A    between atoms: C_7  and  N_8
REMARK    6  A    between atoms: C_11  and  C_12
REMARK    7  A    between atoms: C_12  and  O_14
REMARK    8  A    between atoms: O_14  and  C_15
REMARK    9  A    between atoms: C_15  and  C_16
REMARK   10  A    between atoms: C_16  and  N_17
REMARK   11  A    between atoms: N_17  and  C_18
REMARK   12  A    between atoms: N_17  and  C_20
REMARK   13  A    between atoms: C_18  and  C_19
REMARK   14  A    between atoms: C_20  and  C_21
REMARK                            x       y       z     vdW  Elec       q    Type
REMARK                         _______ _______ _______ _____ _____    ______ ____
ROOT
ATOM      1  C   UNL     1      -8.095  -2.608 126.272  0.00  0.00    +0.000 A 
ATOM      2  C   UNL     1      -9.128  -3.103 125.471  0.00  0.00    +0.000 A 
ATOM      3  C   UNL     1      -9.016  -3.128 124.078  0.00  0.00    +0.000 A 
ATOM      4  C   UNL     1      -7.842  -2.668 123.481  0.00  0.00    +0.000 A 
ATOM      5  C   UNL     1      -6.788  -2.199 124.268  0.00  0.00    +0.000 A 
ATOM      6  C   UNL     1      -6.904  -2.184 125.670  0.00  0.00    +0.000 A 
ENDROOT
BRANCH   3   7
ATOM      7  N   UNL     1     -10.049  -3.622 123.306  0.00  0.00    +0.000 N 
ATOM      8  H   UNL     1     -10.854  -4.052 123.741  0.00  0.00    +0.000 HD
ATOM      9  H   UNL     1     -10.072  -3.460 122.309  0.00  0.00    +0.000 HD
ENDBRANCH   3   7
BRANCH   6  10
ATOM     10  C   UNL     1      -5.727  -1.723 126.448  0.00  0.00    +0.000 C 
ATOM     11  O   UNL     1      -5.255  -2.374 127.365  0.00  0.00    +0.000 OA
BRANCH  10  12
ATOM     12  O   UNL     1      -5.279  -0.502 126.018  0.00  0.00    +0.000 OA
BRANCH  12  13
ATOM     13  C   UNL     1      -6.060   0.557 126.555  0.00  0.00    +0.000 C 
BRANCH  13  14
ATOM     14  C   UNL     1      -6.328   1.738 125.607  0.00  0.00    +0.000 C 
BRANCH  14  15
ATOM     15  N   UNL     1      -7.763   2.144 125.528  0.00  0.00    +0.000 NA
BRANCH  15  16
ATOM     16  C   UNL     1      -7.976   3.440 124.843  0.00  0.00    +0.000 C 
ATOM     17  C   UNL     1      -7.805   4.711 125.666  0.00  0.00    +0.000 C 
ENDBRANCH  15  16
BRANCH  15  18
ATOM     18  C   UNL     1      -8.535   1.077 124.840  0.00  0.00    +0.000 C 
ATOM     19  C   UNL     1      -9.754   0.594 125.633  0.00  0.00    +0.000 C 
ENDBRANCH  15  18
ENDBRANCH  14  15
ENDBRANCH  13  14
ENDBRANCH  12  13
ENDBRANCH  10  12
ENDBRANCH   6  10
BRANCH   1  20
ATOM     20  O   UNL     1      -8.294  -2.374 127.608  0.00  0.00    +0.000 OA
BRANCH  20  21
ATOM     21  C   UNL     1      -8.458  -3.528 128.430  0.00  0.00    +0.000 C 
BRANCH  21  23
ATOM     22  C   UNL     1      -7.773  -1.710 130.023  0.00  0.00    +0.000 C 
ATOM     23  C   UNL     1      -7.862  -3.208 129.800  0.00  0.00    +0.000 C 
ENDBRANCH  21  23
ENDBRANCH  20  21
ENDBRANCH   1  20
TORSDOF 11
ENDMDL
MODEL 7
REMARK VINA RESULT:      -5.3      2.321      5.142
REMARK  Name = Propoxycaine
REMARK  14 active torsions:
REMARK  status: ('A' for Active; 'I' for Inactive)
REMARK    1  A    between atoms: C_1  and  C_2
REMARK    2  A    between atoms: C_2  and  C_3
REMARK    3  A    between atoms: C_3  and  O_4
REMARK    4  A    between atoms: O_4  and  C_5
REMARK    5  A    between atoms: C_7  and  N_8
REMARK    6  A    between atoms: C_11  and  C_12
REMARK    7  A    between atoms: C_12  and  O_14
REMARK    8  A    between atoms: O_14  and  C_15
REMARK    9  A    between atoms: C_15  and  C_16
REMARK   10  A    between atoms: C_16  and  N_17
REMARK   11  A    between atoms: N_17  and  C_18
REMARK   12  A    between atoms: N_17  and  C_20
REMARK   13  A    between atoms: C_18  and  C_19
REMARK   14  A    between atoms: C_20  and  C_21
REMARK                            x       y       z     vdW  Elec       q    Type
REMARK                         _______ _______ _______ _____ _____    ______ ____
ROOT
ATOM      1  C   UNL     1      -7.635   3.494 122.146  0.00  0.00    +0.000 A 
ATOM      2  C   UNL     1      -7.881   3.649 120.779  0.00  0.00    +0.000 A 
ATOM      3  C   UNL     1      -6.899   4.150 119.918  0.00  0.00    +0.000 A 
ATOM      4  C   UNL     1      -5.647   4.483 120.435  0.00  0.00    +0.000 A 
ATOM      5  C   UNL     1      -5.375   4.306 121.793  0.00  0.00    +0.000 A 
ATOM      6  C   UNL     1      -6.364   3.793 122.652  0.00  0.00    +0.000 A 
ENDROOT
BRANCH   3   7
ATOM      7  N   UNL     1      -7.164   4.294 118.570  0.00  0.00    +0.000 N 
ATOM      8  H   UNL     1      -6.468   4.044 117.881  0.00  0.00    +0.000 HD
ATOM      9  H   UNL     1      -8.090   4.540 118.250  0.00  0.00    +0.000 HD
ENDBRANCH   3   7
BRANCH   6  10
ATOM     10  C   UNL     1      -5.991   3.580 124.073  0.00  0.00    +0.000 C 
ATOM     11  O   UNL     1      -5.719   4.502 124.822  0.00  0.00    +0.000 OA
BRANCH  10  12
ATOM     12  O   UNL     1      -5.981   2.250 124.402  0.00  0.00    +0.000 OA
BRANCH  12  13
ATOM     13  C   UNL     1      -6.019   2.064 125.811  0.00  0.00    +0.000 C 
BRANCH  13  14
ATOM     14  C   UNL     1      -4.743   1.485 126.444  0.00  0.00    +0.000 C 
BRANCH  14  15
ATOM     15  N   UNL     1      -3.995   2.451 127.302  0.00  0.00    +0.000 NA
BRANCH  15  16
ATOM     16  C   UNL     1      -3.045   3.302 126.549  0.00  0.00    +0.000 C 
ATOM     17  C   UNL     1      -1.563   2.961 126.643  0.00  0.00    +0.000 C 
ENDBRANCH  15  16
BRANCH  15  18
ATOM     18  C   UNL     1      -4.966   3.306 128.034  0.00  0.00    +0.000 C 
ATOM     19  C   UNL     1      -4.303   4.375 128.909  0.00  0.00    +0.000 C 
ENDBRANCH  15  18
ENDBRANCH  14  15
ENDBRANCH  13  14
ENDBRANCH  12  13
ENDBRANCH  10  12
ENDBRANCH   6  10
BRANCH   1  20
ATOM     20  O   UNL     1      -8.658   3.222 123.017  0.00  0.00    +0.000 OA
BRANCH  20  21
ATOM     21  C   UNL     1      -9.405   2.036 122.756  0.00  0.00    +0.000 C 
BRANCH  21  23
ATOM     22  C   UNL     1      -8.483  -0.126 123.642  0.00  0.00    +0.000 C 
ATOM     23  C   UNL     1      -9.271   1.127 123.976  0.00  0.00    +0.000 C 
ENDBRANCH  21  23
ENDBRANCH  20  21
ENDBRANCH   1  20
TORSDOF 11
ENDMDL
MODEL 8
REMARK VINA RESULT:      -5.3      2.953      6.595
REMARK  Name = Propoxycaine
REMARK  14 active torsions:
REMARK  status: ('A' for Active; 'I' for Inactive)
REMARK    1  A    between atoms: C_1  and  C_2
REMARK    2  A    between atoms: C_2  and  C_3
REMARK    3  A    between atoms: C_3  and  O_4
REMARK    4  A    between atoms: O_4  and  C_5
REMARK    5  A    between atoms: C_7  and  N_8
REMARK    6  A    between atoms: C_11  and  C_12
REMARK    7  A    between atoms: C_12  and  O_14
REMARK    8  A    between atoms: O_14  and  C_15
REMARK    9  A    between atoms: C_15  and  C_16
REMARK   10  A    between atoms: C_16  and  N_17
REMARK   11  A    between atoms: N_17  and  C_18
REMARK   12  A    between atoms: N_17  and  C_20
REMARK   13  A    between atoms: C_18  and  C_19
REMARK   14  A    between atoms: C_20  and  C_21
REMARK                            x       y       z     vdW  Elec       q    Type
REMARK                         _______ _______ _______ _____ _____    ______ ____
ROOT
ATOM      1  C   UNL     1      -7.511   3.298 122.744  0.00  0.00    +0.000 A 
ATOM      2  C   UNL     1      -7.770   3.480 121.382  0.00  0.00    +0.000 A 
ATOM      3  C   UNL     1      -6.807   4.027 120.529  0.00  0.00    +0.000 A 
ATOM      4  C   UNL     1      -5.561   4.380 121.046  0.00  0.00    +0.000 A 
ATOM      5  C   UNL     1      -5.275   4.177 122.398  0.00  0.00    +0.000 A 
ATOM      6  C   UNL     1      -6.245   3.617 123.249  0.00  0.00    +0.000 A 
ENDROOT
BRANCH   3   7
ATOM      7  N   UNL     1      -7.084   4.197 119.186  0.00  0.00    +0.000 N 
ATOM      8  H   UNL     1      -6.399   3.949 118.486  0.00  0.00    +0.000 HD
ATOM      9  H   UNL     1      -8.010   4.462 118.879  0.00  0.00    +0.000 HD
ENDBRANCH   3   7
BRANCH   6  10
ATOM     10  C   UNL     1      -5.858   3.379 124.662  0.00  0.00    +0.000 C 
ATOM     11  O   UNL     1      -5.758   2.259 125.132  0.00  0.00    +0.000 OA
BRANCH  10  12
ATOM     12  O   UNL     1      -5.657   4.553 125.340  0.00  0.00    +0.000 OA
BRANCH  12  13
ATOM     13  C   UNL     1      -4.692   4.399 126.371  0.00  0.00    +0.000 C 
BRANCH  13  14
ATOM     14  C   UNL     1      -5.211   4.585 127.807  0.00  0.00    +0.000 C 
BRANCH  14  15
ATOM     15  N   UNL     1      -4.767   5.853 128.457  0.00  0.00    +0.000 NA
BRANCH  15  16
ATOM     16  C   UNL     1      -4.601   5.741 129.925  0.00  0.00    +0.000 C 
ATOM     17  C   UNL     1      -5.427   6.674 130.803  0.00  0.00    +0.000 C 
ENDBRANCH  15  16
BRANCH  15  18
ATOM     18  C   UNL     1      -3.491   6.297 127.838  0.00  0.00    +0.000 C 
ATOM     19  C   UNL     1      -2.304   6.288 128.807  0.00  0.00    +0.000 C 
ENDBRANCH  15  18
ENDBRANCH  14  15
ENDBRANCH  13  14
ENDBRANCH  12  13
ENDBRANCH  10  12
ENDBRANCH   6  10
BRANCH   1  20
ATOM     20  O   UNL     1      -8.522   2.978 123.613  0.00  0.00    +0.000 OA
BRANCH  20  21
ATOM     21  C   UNL     1      -9.394   1.928 123.201  0.00  0.00    +0.000 C 
BRANCH  21  23
ATOM     22  C   UNL     1      -9.117   1.158 125.576  0.00  0.00    +0.000 C 
ATOM     23  C   UNL     1     -10.102   1.400 124.448  0.00  0.00    +0.000 C 
ENDBRANCH  21  23
ENDBRANCH  20  21
ENDBRANCH   1  20
TORSDOF 11
ENDMDL
MODEL 9
REMARK VINA RESULT:      -5.3      3.703      7.231
REMARK  Name = Propoxycaine
REMARK  14 active torsions:
REMARK  status: ('A' for Active; 'I' for Inactive)
REMARK    1  A    between atoms: C_1  and  C_2
REMARK    2  A    between atoms: C_2  and  C_3
REMARK    3  A    between atoms: C_3  and  O_4
REMARK    4  A    between atoms: O_4  and  C_5
REMARK    5  A    between atoms: C_7  and  N_8
REMARK    6  A    between atoms: C_11  and  C_12
REMARK    7  A    between atoms: C_12  and  O_14
REMARK    8  A    between atoms: O_14  and  C_15
REMARK    9  A    between atoms: C_15  and  C_16
REMARK   10  A    between atoms: C_16  and  N_17
REMARK   11  A    between atoms: N_17  and  C_18
REMARK   12  A    between atoms: N_17  and  C_20
REMARK   13  A    between atoms: C_18  and  C_19
REMARK   14  A    between atoms: C_20  and  C_21
REMARK                            x       y       z     vdW  Elec       q    Type
REMARK                         _______ _______ _______ _____ _____    ______ ____
ROOT
ATOM      1  C   UNL     1      -8.111  -2.608 126.386  0.00  0.00    +0.000 A 
ATOM      2  C   UNL     1      -9.136  -3.050 125.544  0.00  0.00    +0.000 A 
ATOM      3  C   UNL     1      -8.966  -3.092 124.157  0.00  0.00    +0.000 A 
ATOM      4  C   UNL     1      -7.744  -2.701 123.608  0.00  0.00    +0.000 A 
ATOM      5  C   UNL     1      -6.700  -2.286 124.438  0.00  0.00    +0.000 A 
ATOM      6  C   UNL     1      -6.874  -2.255 125.833  0.00  0.00    +0.000 A 
ENDROOT
BRANCH   3   7
ATOM      7  N   UNL     1      -9.992  -3.533 123.343  0.00  0.00    +0.000 N 
ATOM      8  H   UNL     1     -10.282  -2.988 122.543  0.00  0.00    +0.000 HD
ATOM      9  H   UNL     1     -10.389  -4.453 123.467  0.00  0.00    +0.000 HD
ENDBRANCH   3   7
BRANCH   6  10
ATOM     10  C   UNL     1      -5.708  -1.855 126.659  0.00  0.00    +0.000 C 
ATOM     11  O   UNL     1      -5.212  -2.594 127.492  0.00  0.00    +0.000 OA
BRANCH  10  12
ATOM     12  O   UNL     1      -5.296  -0.579 126.374  0.00  0.00    +0.000 OA
BRANCH  12  13
ATOM     13  C   UNL     1      -5.580   0.309 127.447  0.00  0.00    +0.000 C 
BRANCH  13  14
ATOM     14  C   UNL     1      -5.978   1.739 127.045  0.00  0.00    +0.000 C 
BRANCH  14  15
ATOM     15  N   UNL     1      -5.307   2.234 125.807  0.00  0.00    +0.000 NA
BRANCH  15  16
ATOM     16  C   UNL     1      -6.252   2.625 124.734  0.00  0.00    +0.000 C 
ATOM     17  C   UNL     1      -6.995   1.512 124.007  0.00  0.00    +0.000 C 
ENDBRANCH  15  16
BRANCH  15  18
ATOM     18  C   UNL     1      -4.433   3.386 126.152  0.00  0.00    +0.000 C 
ATOM     19  C   UNL     1      -3.029   2.975 126.609  0.00  0.00    +0.000 C 
ENDBRANCH  15  18
ENDBRANCH  14  15
ENDBRANCH  13  14
ENDBRANCH  12  13
ENDBRANCH  10  12
ENDBRANCH   6  10
BRANCH   1  20
ATOM     20  O   UNL     1      -8.353  -2.353 127.711  0.00  0.00    +0.000 OA
BRANCH  20  21
ATOM     21  C   UNL     1      -8.542  -3.495 128.544  0.00  0.00    +0.000 C 
BRANCH  21  23
ATOM     22  C   UNL     1      -7.695  -1.755 130.146  0.00  0.00    +0.000 C 
ATOM     23  C   UNL     1      -7.796  -3.240 129.853  0.00  0.00    +0.000 C 
ENDBRANCH  21  23
ENDBRANCH  20  21
ENDBRANCH   1  20
TORSDOF 11
ENDMDL
