MODEL 1
REMARK VINA RESULT:      -7.5      0.000      0.000
REMARK  Name = Propantheline
REMARK  12 active torsions:
REMARK  status: ('A' for Active; 'I' for Inactive)
REMARK    1  A    between atoms: C_1  and  C_2
REMARK    2  A    between atoms: C_2  and  C_3
REMARK    3  A    between atoms: C_2  and  N_4
REMARK    4  A    between atoms: N_4  and  C_5
REMARK    5  A    between atoms: N_4  and  C_6
REMARK    6  A    between atoms: N_4  and  C_25
REMARK    7  A    between atoms: C_6  and  C_7
REMARK    8  A    between atoms: C_7  and  O_8
REMARK    9  A    between atoms: O_8  and  C_9
REMARK   10  A    between atoms: C_9  and  C_11
REMARK   11  A    between atoms: C_25  and  C_26
REMARK   12  A    between atoms: C_25  and  C_27
REMARK                            x       y       z     vdW  Elec       q    Type
REMARK                         _______ _______ _______ _____ _____    ______ ____
ROOT
ATOM      1  C   UNL     1      -7.005   2.751 124.319  0.00  0.00    +0.000 C 
ATOM      2  C   UNL     1      -6.055   3.034 125.473  0.00  0.00    +0.000 A 
ATOM      3  C   UNL     1      -6.302   2.570 126.779  0.00  0.00    +0.000 A 
ATOM      4  C   UNL     1      -5.432   2.853 127.832  0.00  0.00    +0.000 A 
ATOM      5  C   UNL     1      -4.264   3.561 127.587  0.00  0.00    +0.000 A 
ATOM      6  C   UNL     1      -3.978   3.992 126.295  0.00  0.00    +0.000 A 
ATOM      7  C   UNL     1      -4.871   3.738 125.247  0.00  0.00    +0.000 A 
ATOM      8  O   UNL     1      -4.484   4.220 124.024  0.00  0.00    +0.000 OA
ATOM      9  C   UNL     1      -5.318   4.047 122.951  0.00  0.00    +0.000 A 
ATOM     10  C   UNL     1      -4.890   4.631 121.755  0.00  0.00    +0.000 A 
ATOM     11  C   UNL     1      -5.671   4.531 120.605  0.00  0.00    +0.000 A 
ATOM     12  C   UNL     1      -6.876   3.838 120.645  0.00  0.00    +0.000 A 
ATOM     13  C   UNL     1      -7.290   3.238 121.832  0.00  0.00    +0.000 A 
ATOM     14  C   UNL     1      -6.523   3.350 123.009  0.00  0.00    +0.000 A 
ENDROOT
BRANCH   1  15
ATOM     15  C   UNL     1      -8.438   3.206 124.613  0.00  0.00    +0.000 C 
ATOM     16  O   UNL     1      -8.769   4.272 125.111  0.00  0.00    +0.000 OA
BRANCH  15  17
ATOM     17  O   UNL     1      -9.375   2.267 124.219  0.00  0.00    +0.000 OA
BRANCH  17  18
ATOM     18  C   UNL     1      -9.310   1.169 125.114  0.00  0.00    +0.000 C 
BRANCH  18  19
ATOM     19  C   UNL     1      -9.167  -0.198 124.463  0.00  0.00    +0.000 C 
BRANCH  19  20
ATOM     20  N   UNL     1      -8.264  -1.234 125.293  0.00  0.00    +0.000 N 
ATOM     21  C   UNL     1      -8.071  -0.685 126.711  0.00  0.00    +0.000 C 
BRANCH  20  23
ATOM     22  C   UNL     1      -6.759  -0.784 123.166  0.00  0.00    +0.000 C 
ATOM     23  C   UNL     1      -6.861  -1.464 124.537  0.00  0.00    +0.000 C 
ATOM     24  C   UNL     1      -5.656  -0.882 125.278  0.00  0.00    +0.000 C 
ENDBRANCH  20  23
BRANCH  20  25
ATOM     25  C   UNL     1      -9.113  -2.604 125.349  0.00  0.00    +0.000 C 
ATOM     26  C   UNL     1      -8.662  -3.669 124.344  0.00  0.00    +0.000 C 
ATOM     27  C   UNL     1      -9.013  -3.278 126.727  0.00  0.00    +0.000 C 
ENDBRANCH  20  25
ENDBRANCH  19  20
ENDBRANCH  18  19
ENDBRANCH  17  18
ENDBRANCH  15  17
ENDBRANCH   1  15
TORSDOF 7
ENDMDL
MODEL 2
REMARK VINA RESULT:      -7.4      0.701      1.807
REMARK  Name = Propantheline
REMARK  12 active torsions:
REMARK  status: ('A' for Active; 'I' for Inactive)
REMARK    1  A    between atoms: C_1  and  C_2
REMARK    2  A    between atoms: C_2  and  C_3
REMARK    3  A    between atoms: C_2  and  N_4
REMARK    4  A    between atoms: N_4  and  C_5
REMARK    5  A    between atoms: N_4  and  C_6
REMARK    6  A    between atoms: N_4  and  C_25
REMARK    7  A    between atoms: C_6  and  C_7
REMARK    8  A    between atoms: C_7  and  O_8
REMARK    9  A    between atoms: O_8  and  C_9
REMARK   10  A    between atoms: C_9  and  C_11
REMARK   11  A    between atoms: C_25  and  C_26
REMARK   12  A    between atoms: C_25  and  C_27
REMARK                            x       y       z     vdW  Elec       q    Type
REMARK                         _______ _______ _______ _____ _____    ______ ____
ROOT
ATOM      1  C   UNL     1      -6.975   2.752 124.262  0.00  0.00    +0.000 C 
ATOM      2  C   UNL     1      -6.093   3.084 125.456  0.00  0.00    +0.000 A 
ATOM      3  C   UNL     1      -6.376   2.613 126.753  0.00  0.00    +0.000 A 
ATOM      4  C   UNL     1      -5.569   2.942 127.841  0.00  0.00    +0.000 A 
ATOM      5  C   UNL     1      -4.427   3.705 127.645  0.00  0.00    +0.000 A 
ATOM      6  C   UNL     1      -4.104   4.145 126.365  0.00  0.00    +0.000 A 
ATOM      7  C   UNL     1      -4.935   3.845 125.280  0.00  0.00    +0.000 A 
ATOM      8  O   UNL     1      -4.518   4.341 124.073  0.00  0.00    +0.000 OA
ATOM      9  C   UNL     1      -5.292   4.125 122.964  0.00  0.00    +0.000 A 
ATOM     10  C   UNL     1      -4.840   4.725 121.786  0.00  0.00    +0.000 A 
ATOM     11  C   UNL     1      -5.562   4.583 120.602  0.00  0.00    +0.000 A 
ATOM     12  C   UNL     1      -6.733   3.833 120.592  0.00  0.00    +0.000 A 
ATOM     13  C   UNL     1      -7.171   3.216 121.763  0.00  0.00    +0.000 A 
ATOM     14  C   UNL     1      -6.464   3.370 122.972  0.00  0.00    +0.000 A 
ENDROOT
BRANCH   1  15
ATOM     15  C   UNL     1      -8.440   3.137 124.489  0.00  0.00    +0.000 C 
ATOM     16  O   UNL     1      -8.842   4.155 125.034  0.00  0.00    +0.000 OA
BRANCH  15  17
ATOM     17  O   UNL     1      -9.313   2.198 123.971  0.00  0.00    +0.000 OA
BRANCH  17  18
ATOM     18  C   UNL     1      -9.060   0.956 124.605  0.00  0.00    +0.000 C 
BRANCH  18  19
ATOM     19  C   UNL     1      -8.888  -0.234 123.673  0.00  0.00    +0.000 C 
BRANCH  19  20
ATOM     20  N   UNL     1      -7.801  -1.308 124.166  0.00  0.00    +0.000 N 
ATOM     21  C   UNL     1      -6.711  -1.425 123.095  0.00  0.00    +0.000 C 
BRANCH  20  23
ATOM     22  C   UNL     1      -9.557  -3.132 123.400  0.00  0.00    +0.000 C 
ATOM     23  C   UNL     1      -8.520  -2.720 124.454  0.00  0.00    +0.000 C 
ATOM     24  C   UNL     1      -7.564  -3.914 124.451  0.00  0.00    +0.000 C 
ENDBRANCH  20  23
BRANCH  20  25
ATOM     25  C   UNL     1      -7.173  -0.701 125.521  0.00  0.00    +0.000 C 
ATOM     26  C   UNL     1      -7.649  -1.392 126.804  0.00  0.00    +0.000 C 
ATOM     27  C   UNL     1      -5.641  -0.821 125.540  0.00  0.00    +0.000 C 
ENDBRANCH  20  25
ENDBRANCH  19  20
ENDBRANCH  18  19
ENDBRANCH  17  18
ENDBRANCH  15  17
ENDBRANCH   1  15
TORSDOF 7
ENDMDL
MODEL 3
REMARK VINA RESULT:      -7.1      2.887      7.046
REMARK  Name = Propantheline
REMARK  12 active torsions:
REMARK  status: ('A' for Active; 'I' for Inactive)
REMARK    1  A    between atoms: C_1  and  C_2
REMARK    2  A    between atoms: C_2  and  C_3
REMARK    3  A    between atoms: C_2  and  N_4
REMARK    4  A    between atoms: N_4  and  C_5
REMARK    5  A    between atoms: N_4  and  C_6
REMARK    6  A    between atoms: N_4  and  C_25
REMARK    7  A    between atoms: C_6  and  C_7
REMARK    8  A    between atoms: C_7  and  O_8
REMARK    9  A    between atoms: O_8  and  C_9
REMARK   10  A    between atoms: C_9  and  C_11
REMARK   11  A    between atoms: C_25  and  C_26
REMARK   12  A    between atoms: C_25  and  C_27
REMARK                            x       y       z     vdW  Elec       q    Type
REMARK                         _______ _______ _______ _____ _____    ______ ____
ROOT
ATOM      1  C   UNL     1      -6.050   3.349 123.661  0.00  0.00    +0.000 C 
ATOM      2  C   UNL     1      -6.063   3.857 122.227  0.00  0.00    +0.000 A 
ATOM      3  C   UNL     1      -4.968   4.539 121.662  0.00  0.00    +0.000 A 
ATOM      4  C   UNL     1      -5.001   5.017 120.353  0.00  0.00    +0.000 A 
ATOM      5  C   UNL     1      -6.113   4.772 119.559  0.00  0.00    +0.000 A 
ATOM      6  C   UNL     1      -7.189   4.062 120.083  0.00  0.00    +0.000 A 
ATOM      7  C   UNL     1      -7.169   3.616 121.409  0.00  0.00    +0.000 A 
ATOM      8  O   UNL     1      -8.289   2.938 121.812  0.00  0.00    +0.000 OA
ATOM      9  C   UNL     1      -8.367   2.498 123.107  0.00  0.00    +0.000 A 
ATOM     10  C   UNL     1      -9.570   1.882 123.463  0.00  0.00    +0.000 A 
ATOM     11  C   UNL     1      -9.763   1.413 124.761  0.00  0.00    +0.000 A 
ATOM     12  C   UNL     1      -8.749   1.549 125.703  0.00  0.00    +0.000 A 
ATOM     13  C   UNL     1      -7.542   2.143 125.341  0.00  0.00    +0.000 A 
ATOM     14  C   UNL     1      -7.341   2.643 124.039  0.00  0.00    +0.000 A 
ENDROOT
BRANCH   1  15
ATOM     15  C   UNL     1      -5.736   4.455 124.673  0.00  0.00    +0.000 C 
ATOM     16  O   UNL     1      -6.354   5.499 124.816  0.00  0.00    +0.000 OA
BRANCH  15  17
ATOM     17  O   UNL     1      -4.651   4.138 125.472  0.00  0.00    +0.000 OA
BRANCH  17  18
ATOM     18  C   UNL     1      -5.048   4.253 126.828  0.00  0.00    +0.000 C 
BRANCH  18  19
ATOM     19  C   UNL     1      -4.294   5.290 127.646  0.00  0.00    +0.000 C 
BRANCH  19  20
ATOM     20  N   UNL     1      -4.230   4.972 129.219  0.00  0.00    +0.000 N 
ATOM     21  C   UNL     1      -3.725   3.537 129.406  0.00  0.00    +0.000 C 
BRANCH  20  23
ATOM     22  C   UNL     1      -6.104   4.097 130.867  0.00  0.00    +0.000 C 
ATOM     23  C   UNL     1      -5.681   5.193 129.881  0.00  0.00    +0.000 C 
ATOM     24  C   UNL     1      -5.785   6.457 130.736  0.00  0.00    +0.000 C 
ENDBRANCH  20  23
BRANCH  20  25
ATOM     25  C   UNL     1      -3.159   6.012 129.830  0.00  0.00    +0.000 C 
ATOM     26  C   UNL     1      -2.332   5.456 130.994  0.00  0.00    +0.000 C 
ATOM     27  C   UNL     1      -2.131   6.453 128.776  0.00  0.00    +0.000 C 
ENDBRANCH  20  25
ENDBRANCH  19  20
ENDBRANCH  18  19
ENDBRANCH  17  18
ENDBRANCH  15  17
ENDBRANCH   1  15
TORSDOF 7
ENDMDL
MODEL 4
REMARK VINA RESULT:      -7.0      1.211      4.213
REMARK  Name = Propantheline
REMARK  12 active torsions:
REMARK  status: ('A' for Active; 'I' for Inactive)
REMARK    1  A    between atoms: C_1  and  C_2
REMARK    2  A    between atoms: C_2  and  C_3
REMARK    3  A    between atoms: C_2  and  N_4
REMARK    4  A    between atoms: N_4  and  C_5
REMARK    5  A    between atoms: N_4  and  C_6
REMARK    6  A    between atoms: N_4  and  C_25
REMARK    7  A    between atoms: C_6  and  C_7
REMARK    8  A    between atoms: C_7  and  O_8
REMARK    9  A    between atoms: O_8  and  C_9
REMARK   10  A    between atoms: C_9  and  C_11
REMARK   11  A    between atoms: C_25  and  C_26
REMARK   12  A    between atoms: C_25  and  C_27
REMARK                            x       y       z     vdW  Elec       q    Type
REMARK                         _______ _______ _______ _____ _____    ______ ____
ROOT
ATOM      1  C   UNL     1      -7.260   2.874 123.745  0.00  0.00    +0.000 C 
ATOM      2  C   UNL     1      -6.691   3.489 122.475  0.00  0.00    +0.000 A 
ATOM      3  C   UNL     1      -7.368   3.423 121.242  0.00  0.00    +0.000 A 
ATOM      4  C   UNL     1      -6.826   3.974 120.081  0.00  0.00    +0.000 A 
ATOM      5  C   UNL     1      -5.617   4.653 120.142  0.00  0.00    +0.000 A 
ATOM      6  C   UNL     1      -4.952   4.768 121.359  0.00  0.00    +0.000 A 
ATOM      7  C   UNL     1      -5.480   4.183 122.515  0.00  0.00    +0.000 A 
ATOM      8  O   UNL     1      -4.730   4.355 123.649  0.00  0.00    +0.000 OA
ATOM      9  C   UNL     1      -5.157   3.783 124.818  0.00  0.00    +0.000 A 
ATOM     10  C   UNL     1      -4.302   3.939 125.913  0.00  0.00    +0.000 A 
ATOM     11  C   UNL     1      -4.630   3.381 127.147  0.00  0.00    +0.000 A 
ATOM     12  C   UNL     1      -5.820   2.675 127.292  0.00  0.00    +0.000 A 
ATOM     13  C   UNL     1      -6.681   2.539 126.206  0.00  0.00    +0.000 A 
ATOM     14  C   UNL     1      -6.352   3.077 124.946  0.00  0.00    +0.000 A 
ENDROOT
BRANCH   1  15
ATOM     15  C   UNL     1      -7.595   1.389 123.580  0.00  0.00    +0.000 C 
ATOM     16  O   UNL     1      -6.891   0.546 123.045  0.00  0.00    +0.000 OA
BRANCH  15  17
ATOM     17  O   UNL     1      -8.815   1.063 124.145  0.00  0.00    +0.000 OA
BRANCH  17  18
ATOM     18  C   UNL     1      -8.789  -0.310 124.501  0.00  0.00    +0.000 C 
BRANCH  18  19
ATOM     19  C   UNL     1      -8.206  -0.621 125.871  0.00  0.00    +0.000 C 
BRANCH  19  20
ATOM     20  N   UNL     1      -7.861  -2.172 126.105  0.00  0.00    +0.000 N 
ATOM     21  C   UNL     1      -8.631  -3.004 125.074  0.00  0.00    +0.000 C 
BRANCH  20  23
ATOM     22  C   UNL     1      -8.944  -3.942 127.745  0.00  0.00    +0.000 C 
ATOM     23  C   UNL     1      -8.228  -2.591 127.616  0.00  0.00    +0.000 C 
ATOM     24  C   UNL     1      -7.009  -2.782 128.519  0.00  0.00    +0.000 C 
ENDBRANCH  20  23
BRANCH  20  25
ATOM     25  C   UNL     1      -6.276  -2.310 125.844  0.00  0.00    +0.000 C 
ATOM     26  C   UNL     1      -5.910  -2.910 124.482  0.00  0.00    +0.000 C 
ATOM     27  C   UNL     1      -5.572  -0.944 125.887  0.00  0.00    +0.000 C 
ENDBRANCH  20  25
ENDBRANCH  19  20
ENDBRANCH  18  19
ENDBRANCH  17  18
ENDBRANCH  15  17
ENDBRANCH   1  15
TORSDOF 7
ENDMDL
MODEL 5
REMARK VINA RESULT:      -7.0      5.781      8.321
REMARK  Name = Propantheline
REMARK  12 active torsions:
REMARK  status: ('A' for Active; 'I' for Inactive)
REMARK    1  A    between atoms: C_1  and  C_2
REMARK    2  A    between atoms: C_2  and  C_3
REMARK    3  A    between atoms: C_2  and  N_4
REMARK    4  A    between atoms: N_4  and  C_5
REMARK    5  A    between atoms: N_4  and  C_6
REMARK    6  A    between atoms: N_4  and  C_25
REMARK    7  A    between atoms: C_6  and  C_7
REMARK    8  A    between atoms: C_7  and  O_8
REMARK    9  A    between atoms: O_8  and  C_9
REMARK   10  A    between atoms: C_9  and  C_11
REMARK   11  A    between atoms: C_25  and  C_26
REMARK   12  A    between atoms: C_25  and  C_27
REMARK                            x       y       z     vdW  Elec       q    Type
REMARK                         _______ _______ _______ _____ _____    ______ ____
ROOT
ATOM      1  C   UNL     1      -8.954   5.835 132.714  0.00  0.00    +0.000 C 
ATOM      2  C   UNL     1      -9.895   6.381 131.650  0.00  0.00    +0.000 A 
ATOM      3  C   UNL     1     -11.293   6.241 131.742  0.00  0.00    +0.000 A 
ATOM      4  C   UNL     1     -12.143   6.729 130.750  0.00  0.00    +0.000 A 
ATOM      5  C   UNL     1     -11.613   7.419 129.669  0.00  0.00    +0.000 A 
ATOM      6  C   UNL     1     -10.237   7.607 129.580  0.00  0.00    +0.000 A 
ATOM      7  C   UNL     1      -9.384   7.085 130.558  0.00  0.00    +0.000 A 
ATOM      8  O   UNL     1      -8.050   7.326 130.356  0.00  0.00    +0.000 OA
ATOM      9  C   UNL     1      -7.142   6.818 131.247  0.00  0.00    +0.000 A 
ATOM     10  C   UNL     1      -5.799   7.042 130.933  0.00  0.00    +0.000 A 
ATOM     11  C   UNL     1      -4.792   6.553 131.763  0.00  0.00    +0.000 A 
ATOM     12  C   UNL     1      -5.126   5.847 132.914  0.00  0.00    +0.000 A 
ATOM     13  C   UNL     1      -6.466   5.644 133.237  0.00  0.00    +0.000 A 
ATOM     14  C   UNL     1      -7.495   6.112 132.396  0.00  0.00    +0.000 A 
ENDROOT
BRANCH   1  15
ATOM     15  C   UNL     1      -9.164   4.340 132.973  0.00  0.00    +0.000 C 
ATOM     16  O   UNL     1      -9.371   3.818 134.058  0.00  0.00    +0.000 OA
BRANCH  15  17
ATOM     17  O   UNL     1      -9.124   3.598 131.806  0.00  0.00    +0.000 OA
BRANCH  17  18
ATOM     18  C   UNL     1      -8.468   2.371 132.080  0.00  0.00    +0.000 C 
BRANCH  18  19
ATOM     19  C   UNL     1      -8.097   1.540 130.862  0.00  0.00    +0.000 C 
BRANCH  19  20
ATOM     20  N   UNL     1      -6.520   1.470 130.565  0.00  0.00    +0.000 N 
ATOM     21  C   UNL     1      -5.867   0.563 131.615  0.00  0.00    +0.000 C 
BRANCH  20  23
ATOM     22  C   UNL     1      -4.362   2.998 130.579  0.00  0.00    +0.000 C 
ATOM     23  C   UNL     1      -5.895   2.954 130.576  0.00  0.00    +0.000 C 
ATOM     24  C   UNL     1      -6.241   3.780 129.336  0.00  0.00    +0.000 C 
ENDBRANCH  20  23
BRANCH  20  25
ATOM     25  C   UNL     1      -6.381   0.802 129.104  0.00  0.00    +0.000 C 
ATOM     26  C   UNL     1      -5.560  -0.492 129.076  0.00  0.00    +0.000 C 
ATOM     27  C   UNL     1      -7.752   0.425 128.520  0.00  0.00    +0.000 C 
ENDBRANCH  20  25
ENDBRANCH  19  20
ENDBRANCH  18  19
ENDBRANCH  17  18
ENDBRANCH  15  17
ENDBRANCH   1  15
TORSDOF 7
ENDMDL
MODEL 6
REMARK VINA RESULT:      -6.9      6.681      9.502
REMARK  Name = Propantheline
REMARK  12 active torsions:
REMARK  status: ('A' for Active; 'I' for Inactive)
REMARK    1  A    between atoms: C_1  and  C_2
REMARK    2  A    between atoms: C_2  and  C_3
REMARK    3  A    between atoms: C_2  and  N_4
REMARK    4  A    between atoms: N_4  and  C_5
REMARK    5  A    between atoms: N_4  and  C_6
REMARK    6  A    between atoms: N_4  and  C_25
REMARK    7  A    between atoms: C_6  and  C_7
REMARK    8  A    between atoms: C_7  and  O_8
REMARK    9  A    between atoms: O_8  and  C_9
REMARK   10  A    between atoms: C_9  and  C_11
REMARK   11  A    between atoms: C_25  and  C_26
REMARK   12  A    between atoms: C_25  and  C_27
REMARK                            x       y       z     vdW  Elec       q    Type
REMARK                         _______ _______ _______ _____ _____    ______ ____
ROOT
ATOM      1  C   UNL     1      -8.949   5.902 130.002  0.00  0.00    +0.000 C 
ATOM      2  C   UNL     1     -10.243   6.573 129.567  0.00  0.00    +0.000 A 
ATOM      3  C   UNL     1     -10.275   7.892 129.073  0.00  0.00    +0.000 A 
ATOM      4  C   UNL     1     -11.471   8.501 128.696  0.00  0.00    +0.000 A 
ATOM      5  C   UNL     1     -12.657   7.782 128.752  0.00  0.00    +0.000 A 
ATOM      6  C   UNL     1     -12.642   6.463 129.194  0.00  0.00    +0.000 A 
ATOM      7  C   UNL     1     -11.447   5.866 129.607  0.00  0.00    +0.000 A 
ATOM      8  O   UNL     1     -11.561   4.568 130.031  0.00  0.00    +0.000 OA
ATOM      9  C   UNL     1     -10.444   3.919 130.488  0.00  0.00    +0.000 A 
ATOM     10  C   UNL     1     -10.654   2.625 130.973  0.00  0.00    +0.000 A 
ATOM     11  C   UNL     1      -9.589   1.882 131.478  0.00  0.00    +0.000 A 
ATOM     12  C   UNL     1      -8.309   2.427 131.489  0.00  0.00    +0.000 A 
ATOM     13  C   UNL     1      -8.098   3.708 130.984  0.00  0.00    +0.000 A 
ATOM     14  C   UNL     1      -9.168   4.481 130.493  0.00  0.00    +0.000 A 
ENDROOT
BRANCH   1  15
ATOM     15  C   UNL     1      -8.192   6.714 131.057  0.00  0.00    +0.000 C 
ATOM     16  O   UNL     1      -8.484   6.810 132.240  0.00  0.00    +0.000 OA
BRANCH  15  17
ATOM     17  O   UNL     1      -7.076   7.340 130.532  0.00  0.00    +0.000 OA
BRANCH  17  18
ATOM     18  C   UNL     1      -5.928   6.825 131.185  0.00  0.00    +0.000 C 
BRANCH  18  19
ATOM     19  C   UNL     1      -4.619   6.974 130.424  0.00  0.00    +0.000 C 
BRANCH  19  20
ATOM     20  N   UNL     1      -3.638   5.707 130.542  0.00  0.00    +0.000 N 
ATOM     21  C   UNL     1      -4.489   4.432 130.562  0.00  0.00    +0.000 C 
BRANCH  20  23
ATOM     22  C   UNL     1      -2.126   4.523 132.361  0.00  0.00    +0.000 C 
ATOM     23  C   UNL     1      -2.724   5.845 131.861  0.00  0.00    +0.000 C 
ATOM     24  C   UNL     1      -1.479   6.710 131.663  0.00  0.00    +0.000 C 
ENDBRANCH  20  23
BRANCH  20  25
ATOM     25  C   UNL     1      -2.728   5.736 129.211  0.00  0.00    +0.000 C 
ATOM     26  C   UNL     1      -2.832   4.474 128.348  0.00  0.00    +0.000 C 
ATOM     27  C   UNL     1      -3.118   6.897 128.282  0.00  0.00    +0.000 C 
ENDBRANCH  20  25
ENDBRANCH  19  20
ENDBRANCH  18  19
ENDBRANCH  17  18
ENDBRANCH  15  17
ENDBRANCH   1  15
TORSDOF 7
ENDMDL
MODEL 7
REMARK VINA RESULT:      -6.7      2.656      7.820
REMARK  Name = Propantheline
REMARK  12 active torsions:
REMARK  status: ('A' for Active; 'I' for Inactive)
REMARK    1  A    between atoms: C_1  and  C_2
REMARK    2  A    between atoms: C_2  and  C_3
REMARK    3  A    between atoms: C_2  and  N_4
REMARK    4  A    between atoms: N_4  and  C_5
REMARK    5  A    between atoms: N_4  and  C_6
REMARK    6  A    between atoms: N_4  and  C_25
REMARK    7  A    between atoms: C_6  and  C_7
REMARK    8  A    between atoms: C_7  and  O_8
REMARK    9  A    between atoms: O_8  and  C_9
REMARK   10  A    between atoms: C_9  and  C_11
REMARK   11  A    between atoms: C_25  and  C_26
REMARK   12  A    between atoms: C_25  and  C_27
REMARK                            x       y       z     vdW  Elec       q    Type
REMARK                         _______ _______ _______ _____ _____    ______ ____
ROOT
ATOM      1  C   UNL     1      -6.634  -1.567 126.109  0.00  0.00    +0.000 C 
ATOM      2  C   UNL     1      -7.556  -2.049 125.000  0.00  0.00    +0.000 A 
ATOM      3  C   UNL     1      -7.376  -1.669 123.656  0.00  0.00    +0.000 A 
ATOM      4  C   UNL     1      -8.240  -2.103 122.652  0.00  0.00    +0.000 A 
ATOM      5  C   UNL     1      -9.274  -2.976 122.964  0.00  0.00    +0.000 A 
ATOM      6  C   UNL     1      -9.444  -3.399 124.278  0.00  0.00    +0.000 A 
ATOM      7  C   UNL     1      -8.598  -2.933 125.290  0.00  0.00    +0.000 A 
ATOM      8  O   UNL     1      -8.871  -3.413 126.544  0.00  0.00    +0.000 OA
ATOM      9  C   UNL     1      -8.113  -2.979 127.600  0.00  0.00    +0.000 A 
ATOM     10  C   UNL     1      -8.500  -3.454 128.856  0.00  0.00    +0.000 A 
ATOM     11  C   UNL     1      -7.808  -3.061 130.000  0.00  0.00    +0.000 A 
ATOM     12  C   UNL     1      -6.722  -2.199 129.890  0.00  0.00    +0.000 A 
ATOM     13  C   UNL     1      -6.324  -1.744 128.634  0.00  0.00    +0.000 A 
ATOM     14  C   UNL     1      -7.027  -2.114 127.471  0.00  0.00    +0.000 A 
ENDROOT
BRANCH   1  15
ATOM     15  C   UNL     1      -6.529  -0.040 126.164  0.00  0.00    +0.000 C 
ATOM     16  O   UNL     1      -7.452   0.741 126.348  0.00  0.00    +0.000 OA
BRANCH  15  17
ATOM     17  O   UNL     1      -5.227   0.400 126.006  0.00  0.00    +0.000 OA
BRANCH  17  18
ATOM     18  C   UNL     1      -5.005   1.470 126.909  0.00  0.00    +0.000 C 
BRANCH  18  19
ATOM     19  C   UNL     1      -4.426   2.736 126.296  0.00  0.00    +0.000 C 
BRANCH  19  20
ATOM     20  N   UNL     1      -5.154   4.089 126.763  0.00  0.00    +0.000 N 
ATOM     21  C   UNL     1      -6.124   3.753 127.901  0.00  0.00    +0.000 C 
BRANCH  20  23
ATOM     22  C   UNL     1      -5.450   4.246 124.139  0.00  0.00    +0.000 C 
ATOM     23  C   UNL     1      -5.905   4.766 125.509  0.00  0.00    +0.000 C 
ATOM     24  C   UNL     1      -7.411   4.502 125.473  0.00  0.00    +0.000 C 
ENDBRANCH  20  23
BRANCH  20  25
ATOM     25  C   UNL     1      -3.979   5.049 127.311  0.00  0.00    +0.000 C 
ATOM     26  C   UNL     1      -4.205   5.575 128.732  0.00  0.00    +0.000 C 
ATOM     27  C   UNL     1      -2.627   4.320 127.358  0.00  0.00    +0.000 C 
ENDBRANCH  20  25
ENDBRANCH  19  20
ENDBRANCH  18  19
ENDBRANCH  17  18
ENDBRANCH  15  17
ENDBRANCH   1  15
TORSDOF 7
ENDMDL
MODEL 8
REMARK VINA RESULT:      -6.6      5.002      7.727
REMARK  Name = Propantheline
REMARK  12 active torsions:
REMARK  status: ('A' for Active; 'I' for Inactive)
REMARK    1  A    between atoms: C_1  and  C_2
REMARK    2  A    between atoms: C_2  and  C_3
REMARK    3  A    between atoms: C_2  and  N_4
REMARK    4  A    between atoms: N_4  and  C_5
REMARK    5  A    between atoms: N_4  and  C_6
REMARK    6  A    between atoms: N_4  and  C_25
REMARK    7  A    between atoms: C_6  and  C_7
REMARK    8  A    between atoms: C_7  and  O_8
REMARK    9  A    between atoms: O_8  and  C_9
REMARK   10  A    between atoms: C_9  and  C_11
REMARK   11  A    between atoms: C_25  and  C_26
REMARK   12  A    between atoms: C_25  and  C_27
REMARK                            x       y       z     vdW  Elec       q    Type
REMARK                         _______ _______ _______ _____ _____    ______ ____
ROOT
ATOM      1  C   UNL     1     -10.065   5.187 131.027  0.00  0.00    +0.000 C 
ATOM      2  C   UNL     1     -10.715   6.166 130.061  0.00  0.00    +0.000 A 
ATOM      3  C   UNL     1     -12.036   6.001 129.602  0.00  0.00    +0.000 A 
ATOM      4  C   UNL     1     -12.613   6.896 128.701  0.00  0.00    +0.000 A 
ATOM      5  C   UNL     1     -11.897   8.008 128.282  0.00  0.00    +0.000 A 
ATOM      6  C   UNL     1     -10.605   8.214 128.757  0.00  0.00    +0.000 A 
ATOM      7  C   UNL     1     -10.015   7.296 129.632  0.00  0.00    +0.000 A 
ATOM      8  O   UNL     1      -8.737   7.602 130.021  0.00  0.00    +0.000 OA
ATOM      9  C   UNL     1      -8.072   6.736 130.849  0.00  0.00    +0.000 A 
ATOM     10  C   UNL     1      -6.749   7.078 131.141  0.00  0.00    +0.000 A 
ATOM     11  C   UNL     1      -5.974   6.258 131.959  0.00  0.00    +0.000 A 
ATOM     12  C   UNL     1      -6.525   5.099 132.496  0.00  0.00    +0.000 A 
ATOM     13  C   UNL     1      -7.851   4.771 132.222  0.00  0.00    +0.000 A 
ATOM     14  C   UNL     1      -8.639   5.577 131.378  0.00  0.00    +0.000 A 
ENDROOT
BRANCH   1  15
ATOM     15  C   UNL     1     -10.107   3.743 130.517  0.00  0.00    +0.000 C 
ATOM     16  O   UNL     1     -10.536   2.775 131.127  0.00  0.00    +0.000 OA
BRANCH  15  17
ATOM     17  O   UNL     1      -9.616   3.630 129.229  0.00  0.00    +0.000 OA
BRANCH  17  18
ATOM     18  C   UNL     1      -8.653   2.590 129.208  0.00  0.00    +0.000 C 
BRANCH  18  19
ATOM     19  C   UNL     1      -7.208   3.037 129.048  0.00  0.00    +0.000 C 
BRANCH  19  20
ATOM     20  N   UNL     1      -6.574   2.721 127.607  0.00  0.00    +0.000 N 
ATOM     21  C   UNL     1      -7.620   3.040 126.533  0.00  0.00    +0.000 C 
BRANCH  20  23
ATOM     22  C   UNL     1      -5.244   0.833 126.319  0.00  0.00    +0.000 C 
ATOM     23  C   UNL     1      -6.094   1.185 127.546  0.00  0.00    +0.000 C 
ATOM     24  C   UNL     1      -5.181   0.776 128.703  0.00  0.00    +0.000 C 
ENDBRANCH  20  23
BRANCH  20  25
ATOM     25  C   UNL     1      -5.316   3.719 127.457  0.00  0.00    +0.000 C 
ATOM     26  C   UNL     1      -5.395   4.658 126.249  0.00  0.00    +0.000 C 
ATOM     27  C   UNL     1      -5.174   4.640 128.679  0.00  0.00    +0.000 C 
ENDBRANCH  20  25
ENDBRANCH  19  20
ENDBRANCH  18  19
ENDBRANCH  17  18
ENDBRANCH  15  17
ENDBRANCH   1  15
TORSDOF 7
ENDMDL
MODEL 9
REMARK VINA RESULT:      -6.6      3.831      7.488
REMARK  Name = Propantheline
REMARK  12 active torsions:
REMARK  status: ('A' for Active; 'I' for Inactive)
REMARK    1  A    between atoms: C_1  and  C_2
REMARK    2  A    between atoms: C_2  and  C_3
REMARK    3  A    between atoms: C_2  and  N_4
REMARK    4  A    between atoms: N_4  and  C_5
REMARK    5  A    between atoms: N_4  and  C_6
REMARK    6  A    between atoms: N_4  and  C_25
REMARK    7  A    between atoms: C_6  and  C_7
REMARK    8  A    between atoms: C_7  and  O_8
REMARK    9  A    between atoms: O_8  and  C_9
REMARK   10  A    between atoms: C_9  and  C_11
REMARK   11  A    between atoms: C_25  and  C_26
REMARK   12  A    between atoms: C_25  and  C_27
REMARK                            x       y       z     vdW  Elec       q    Type
REMARK                         _______ _______ _______ _____ _____    ______ ____
ROOT
ATOM      1  C   UNL     1      -7.265   0.180 126.339  0.00  0.00    +0.000 C 
ATOM      2  C   UNL     1      -7.930   0.890 125.168  0.00  0.00    +0.000 A 
ATOM      3  C   UNL     1      -7.510   2.159 124.725  0.00  0.00    +0.000 A 
ATOM      4  C   UNL     1      -8.141   2.806 123.663  0.00  0.00    +0.000 A 
ATOM      5  C   UNL     1      -9.171   2.171 122.984  0.00  0.00    +0.000 A 
ATOM      6  C   UNL     1      -9.572   0.898 123.377  0.00  0.00    +0.000 A 
ATOM      7  C   UNL     1      -8.963   0.266 124.466  0.00  0.00    +0.000 A 
ATOM      8  O   UNL     1      -9.450  -0.980 124.763  0.00  0.00    +0.000 OA
ATOM      9  C   UNL     1      -8.934  -1.655 125.838  0.00  0.00    +0.000 A 
ATOM     10  C   UNL     1      -9.533  -2.885 126.123  0.00  0.00    +0.000 A 
ATOM     11  C   UNL     1      -9.098  -3.646 127.206  0.00  0.00    +0.000 A 
ATOM     12  C   UNL     1      -8.055  -3.183 128.001  0.00  0.00    +0.000 A 
ATOM     13  C   UNL     1      -7.443  -1.967 127.703  0.00  0.00    +0.000 A 
ATOM     14  C   UNL     1      -7.888  -1.176 126.626  0.00  0.00    +0.000 A 
ENDROOT
BRANCH   1  15
ATOM     15  C   UNL     1      -7.249   1.034 127.611  0.00  0.00    +0.000 C 
ATOM     16  O   UNL     1      -6.258   1.360 128.247  0.00  0.00    +0.000 OA
BRANCH  15  17
ATOM     17  O   UNL     1      -8.517   1.447 127.978  0.00  0.00    +0.000 OA
BRANCH  17  18
ATOM     18  C   UNL     1      -8.409   2.716 128.601  0.00  0.00    +0.000 C 
BRANCH  18  19
ATOM     19  C   UNL     1      -9.365   2.960 129.759  0.00  0.00    +0.000 C 
BRANCH  19  20
ATOM     20  N   UNL     1      -8.702   3.711 131.015  0.00  0.00    +0.000 N 
ATOM     21  C   UNL     1      -7.279   4.135 130.634  0.00  0.00    +0.000 C 
BRANCH  20  23
ATOM     22  C   UNL     1      -9.209   3.410 133.594  0.00  0.00    +0.000 C 
ATOM     23  C   UNL     1      -8.720   2.742 132.302  0.00  0.00    +0.000 C 
ATOM     24  C   UNL     1      -9.673   1.554 132.169  0.00  0.00    +0.000 C 
ENDBRANCH  20  23
BRANCH  20  25
ATOM     25  C   UNL     1      -9.612   5.017 131.271  0.00  0.00    +0.000 C 
ATOM     26  C   UNL     1      -8.926   6.342 130.922  0.00  0.00    +0.000 C 
ATOM     27  C   UNL     1     -10.896   4.989 130.427  0.00  0.00    +0.000 C 
ENDBRANCH  20  25
ENDBRANCH  19  20
ENDBRANCH  18  19
ENDBRANCH  17  18
ENDBRANCH  15  17
ENDBRANCH   1  15
TORSDOF 7
ENDMDL
