MODEL 1
REMARK VINA RESULT:      -7.5      0.000      0.000
REMARK  Name = Protirelin
REMARK  6 active torsions:
REMARK  status: ('A' for Active; 'I' for Inactive)
REMARK    1  A    between atoms: C_2  and  C_3
REMARK    2  A    between atoms: C_2  and  N_9
REMARK    3  A    between atoms: C_2  and  C_19
REMARK    4  A    between atoms: C_3  and  C_4
REMARK    5  A    between atoms: C_10  and  C_12
REMARK    6  A    between atoms: C_25  and  C_27
REMARK                            x       y       z     vdW  Elec       q    Type
REMARK                         _______ _______ _______ _____ _____    ______ ____
ROOT
ATOM      1  C   UNL     1      -6.513   2.949 123.773  0.00  0.00    +0.000 C 
ENDROOT
BRANCH   1   2
ATOM      2  C   UNL     1      -7.097   1.528 123.493  0.00  0.00    +0.000 C 
ATOM      3  O   UNL     1      -6.705   0.867 122.527  0.00  0.00    +0.000 OA
ATOM      4  N   UNL     1      -7.977   0.970 124.393  0.00  0.00    +0.000 N 
ATOM      5  C   UNL     1      -9.124   1.598 124.998  0.00  0.00    +0.000 C 
ATOM      6  C   UNL     1      -9.205   0.944 126.354  0.00  0.00    +0.000 C 
ATOM      7  C   UNL     1      -8.850  -0.508 126.047  0.00  0.00    +0.000 C 
ATOM      8  C   UNL     1      -7.896  -0.443 124.829  0.00  0.00    +0.000 C 
BRANCH   8   9
ATOM      9  C   UNL     1      -8.341  -1.497 123.795  0.00  0.00    +0.000 C 
ATOM     10  N   UNL     1      -7.351  -2.071 123.047  0.00  0.00    +0.000 N 
ATOM     11  O   UNL     1      -9.521  -1.761 123.580  0.00  0.00    +0.000 OA
ATOM     12  H   UNL     1      -6.420  -2.099 123.449  0.00  0.00    +0.000 HD
ATOM     13  H   UNL     1      -7.621  -2.880 122.502  0.00  0.00    +0.000 HD
ENDBRANCH   8   9
ENDBRANCH   1   2
BRANCH   1  14
ATOM     14  N   UNL     1      -5.532   2.918 124.851  0.00  0.00    +0.000 N 
ATOM     15  C   UNL     1      -5.766   3.461 126.096  0.00  0.00    +0.000 C 
ATOM     16  O   UNL     1      -6.853   3.931 126.424  0.00  0.00    +0.000 OA
ATOM     17  H   UNL     1      -4.779   2.253 124.742  0.00  0.00    +0.000 HD
BRANCH  15  18
ATOM     18  C   UNL     1      -4.602   3.390 127.097  0.00  0.00    +0.000 C 
ATOM     19  C   UNL     1      -3.924   4.721 127.393  0.00  0.00    +0.000 C 
ATOM     20  C   UNL     1      -2.484   4.346 127.698  0.00  0.00    +0.000 C 
ATOM     21  C   UNL     1      -2.292   3.095 126.885  0.00  0.00    +0.000 C 
ATOM     22  O   UNL     1      -1.223   2.604 126.554  0.00  0.00    +0.000 OA
ATOM     23  N   UNL     1      -3.531   2.570 126.603  0.00  0.00    +0.000 N 
ATOM     24  H   UNL     1      -3.635   1.641 126.207  0.00  0.00    +0.000 HD
ENDBRANCH  15  18
ENDBRANCH   1  14
BRANCH   1  25
ATOM     25  C   UNL     1      -5.926   3.525 122.465  0.00  0.00    +0.000 C 
BRANCH  25  26
ATOM     26  C   UNL     1      -6.945   3.715 121.393  0.00  0.00    +0.000 A 
ATOM     27  C   UNL     1      -6.849   4.058 120.059  0.00  0.00    +0.000 A 
ATOM     28  N   UNL     1      -8.083   4.198 119.497  0.00  0.00    +0.000 NA
ATOM     29  C   UNL     1      -8.931   3.892 120.448  0.00  0.00    +0.000 A 
ATOM     30  N   UNL     1      -8.292   3.562 121.608  0.00  0.00    +0.000 N 
ATOM     31  H   UNL     1      -8.739   3.271 122.467  0.00  0.00    +0.000 HD
ENDBRANCH  25  26
ENDBRANCH   1  25
TORSDOF 6
ENDMDL
MODEL 2
REMARK VINA RESULT:      -7.3      2.072      5.994
REMARK  Name = Protirelin
REMARK  6 active torsions:
REMARK  status: ('A' for Active; 'I' for Inactive)
REMARK    1  A    between atoms: C_2  and  C_3
REMARK    2  A    between atoms: C_2  and  N_9
REMARK    3  A    between atoms: C_2  and  C_19
REMARK    4  A    between atoms: C_3  and  C_4
REMARK    5  A    between atoms: C_10  and  C_12
REMARK    6  A    between atoms: C_25  and  C_27
REMARK                            x       y       z     vdW  Elec       q    Type
REMARK                         _______ _______ _______ _____ _____    ______ ____
ROOT
ATOM      1  C   UNL     1      -7.534   2.086 124.174  0.00  0.00    +0.000 C 
ENDROOT
BRANCH   1   2
ATOM      2  C   UNL     1      -7.503   2.860 125.531  0.00  0.00    +0.000 C 
ATOM      3  O   UNL     1      -8.541   3.317 126.017  0.00  0.00    +0.000 OA
ATOM      4  N   UNL     1      -6.323   2.938 126.237  0.00  0.00    +0.000 N 
ATOM      5  C   UNL     1      -5.019   3.274 125.726  0.00  0.00    +0.000 C 
ATOM      6  C   UNL     1      -4.085   2.476 126.600  0.00  0.00    +0.000 C 
ATOM      7  C   UNL     1      -4.730   2.598 127.977  0.00  0.00    +0.000 C 
ATOM      8  C   UNL     1      -6.247   2.741 127.702  0.00  0.00    +0.000 C 
BRANCH   8   9
ATOM      9  C   UNL     1      -6.800   3.891 128.569  0.00  0.00    +0.000 C 
ATOM     10  N   UNL     1      -8.067   3.731 129.056  0.00  0.00    +0.000 N 
ATOM     11  O   UNL     1      -6.185   4.938 128.756  0.00  0.00    +0.000 OA
ATOM     12  H   UNL     1      -8.403   2.781 129.177  0.00  0.00    +0.000 HD
ATOM     13  H   UNL     1      -8.358   4.395 129.761  0.00  0.00    +0.000 HD
ENDBRANCH   8   9
ENDBRANCH   1   2
BRANCH   1  14
ATOM     14  N   UNL     1      -7.767   0.662 124.380  0.00  0.00    +0.000 N 
ATOM     15  C   UNL     1      -7.262  -0.310 123.543  0.00  0.00    +0.000 C 
ATOM     16  O   UNL     1      -6.502  -0.058 122.612  0.00  0.00    +0.000 OA
ATOM     17  H   UNL     1      -8.084   0.397 125.302  0.00  0.00    +0.000 HD
BRANCH  15  18
ATOM     18  C   UNL     1      -7.651  -1.759 123.875  0.00  0.00    +0.000 C 
ATOM     19  C   UNL     1      -8.620  -2.408 122.895  0.00  0.00    +0.000 C 
ATOM     20  C   UNL     1      -9.412  -3.386 123.745  0.00  0.00    +0.000 C 
ATOM     21  C   UNL     1      -9.386  -2.736 125.102  0.00  0.00    +0.000 C 
ATOM     22  O   UNL     1     -10.141  -2.975 126.033  0.00  0.00    +0.000 OA
ATOM     23  N   UNL     1      -8.339  -1.846 125.134  0.00  0.00    +0.000 N 
ATOM     24  H   UNL     1      -8.033  -1.417 126.002  0.00  0.00    +0.000 HD
ENDBRANCH  15  18
ENDBRANCH   1  14
BRANCH   1  25
ATOM     25  C   UNL     1      -8.594   2.724 123.250  0.00  0.00    +0.000 C 
BRANCH  25  26
ATOM     26  C   UNL     1      -8.029   3.242 121.970  0.00  0.00    +0.000 A 
ATOM     27  C   UNL     1      -6.737   3.418 121.519  0.00  0.00    +0.000 A 
ATOM     28  N   UNL     1      -6.720   4.015 120.294  0.00  0.00    +0.000 NA
ATOM     29  C   UNL     1      -7.979   4.155 119.962  0.00  0.00    +0.000 A 
ATOM     30  N   UNL     1      -8.813   3.675 120.930  0.00  0.00    +0.000 N 
ATOM     31  H   UNL     1      -9.823   3.657 120.884  0.00  0.00    +0.000 HD
ENDBRANCH  25  26
ENDBRANCH   1  25
TORSDOF 6
ENDMDL
MODEL 3
REMARK VINA RESULT:      -7.2      2.279      5.517
REMARK  Name = Protirelin
REMARK  6 active torsions:
REMARK  status: ('A' for Active; 'I' for Inactive)
REMARK    1  A    between atoms: C_2  and  C_3
REMARK    2  A    between atoms: C_2  and  N_9
REMARK    3  A    between atoms: C_2  and  C_19
REMARK    4  A    between atoms: C_3  and  C_4
REMARK    5  A    between atoms: C_10  and  C_12
REMARK    6  A    between atoms: C_25  and  C_27
REMARK                            x       y       z     vdW  Elec       q    Type
REMARK                         _______ _______ _______ _____ _____    ______ ____
ROOT
ATOM      1  C   UNL     1      -7.154   2.044 124.249  0.00  0.00    +0.000 C 
ENDROOT
BRANCH   1   2
ATOM      2  C   UNL     1      -7.989   0.729 124.357  0.00  0.00    +0.000 C 
ATOM      3  O   UNL     1      -9.221   0.761 124.296  0.00  0.00    +0.000 OA
ATOM      4  N   UNL     1      -7.337  -0.483 124.412  0.00  0.00    +0.000 N 
ATOM      5  C   UNL     1      -6.211  -0.833 125.240  0.00  0.00    +0.000 C 
ATOM      6  C   UNL     1      -5.458  -1.833 124.400  0.00  0.00    +0.000 C 
ATOM      7  C   UNL     1      -6.580  -2.648 123.765  0.00  0.00    +0.000 C 
ATOM      8  C   UNL     1      -7.771  -1.668 123.638  0.00  0.00    +0.000 C 
BRANCH   8   9
ATOM      9  C   UNL     1      -9.049  -2.373 124.138  0.00  0.00    +0.000 C 
ATOM     10  N   UNL     1      -9.261  -2.363 125.488  0.00  0.00    +0.000 N 
ATOM     11  O   UNL     1      -9.804  -2.988 123.390  0.00  0.00    +0.000 OA
ATOM     12  H   UNL     1      -8.844  -1.604 126.019  0.00  0.00    +0.000 HD
ATOM     13  H   UNL     1     -10.176  -2.664 125.794  0.00  0.00    +0.000 HD
ENDBRANCH   8   9
ENDBRANCH   1   2
BRANCH   1  14
ATOM     14  N   UNL     1      -6.809   2.344 122.865  0.00  0.00    +0.000 N 
ATOM     15  C   UNL     1      -5.982   3.386 122.505  0.00  0.00    +0.000 C 
ATOM     16  O   UNL     1      -5.398   4.087 123.328  0.00  0.00    +0.000 OA
ATOM     17  H   UNL     1      -6.981   1.604 122.199  0.00  0.00    +0.000 HD
BRANCH  15  18
ATOM     18  C   UNL     1      -5.770   3.594 120.998  0.00  0.00    +0.000 C 
ATOM     19  C   UNL     1      -5.163   4.937 120.611  0.00  0.00    +0.000 C 
ATOM     20  C   UNL     1      -5.743   5.227 119.238  0.00  0.00    +0.000 C 
ATOM     21  C   UNL     1      -7.068   4.517 119.286  0.00  0.00    +0.000 C 
ATOM     22  O   UNL     1      -8.024   4.717 118.550  0.00  0.00    +0.000 OA
ATOM     23  N   UNL     1      -7.015   3.570 120.281  0.00  0.00    +0.000 N 
ATOM     24  H   UNL     1      -7.739   2.865 120.382  0.00  0.00    +0.000 HD
ENDBRANCH  15  18
ENDBRANCH   1  14
BRANCH   1  25
ATOM     25  C   UNL     1      -7.932   3.197 124.921  0.00  0.00    +0.000 C 
BRANCH  25  26
ATOM     26  C   UNL     1      -7.301   3.682 126.183  0.00  0.00    +0.000 A 
ATOM     27  C   UNL     1      -7.820   4.188 127.357  0.00  0.00    +0.000 A 
ATOM     28  N   UNL     1      -6.829   4.584 128.204  0.00  0.00    +0.000 NA
ATOM     29  C   UNL     1      -5.711   4.277 127.593  0.00  0.00    +0.000 A 
ATOM     30  N   UNL     1      -5.942   3.699 126.378  0.00  0.00    +0.000 N 
ATOM     31  H   UNL     1      -5.234   3.361 125.740  0.00  0.00    +0.000 HD
ENDBRANCH  25  26
ENDBRANCH   1  25
TORSDOF 6
ENDMDL
MODEL 4
REMARK VINA RESULT:      -7.0      3.613      6.441
REMARK  Name = Protirelin
REMARK  6 active torsions:
REMARK  status: ('A' for Active; 'I' for Inactive)
REMARK    1  A    between atoms: C_2  and  C_3
REMARK    2  A    between atoms: C_2  and  N_9
REMARK    3  A    between atoms: C_2  and  C_19
REMARK    4  A    between atoms: C_3  and  C_4
REMARK    5  A    between atoms: C_10  and  C_12
REMARK    6  A    between atoms: C_25  and  C_27
REMARK                            x       y       z     vdW  Elec       q    Type
REMARK                         _______ _______ _______ _____ _____    ______ ____
ROOT
ATOM      1  C   UNL     1      -6.723  -1.560 127.251  0.00  0.00    +0.000 C 
ENDROOT
BRANCH   1   2
ATOM      2  C   UNL     1      -7.746  -1.731 126.084  0.00  0.00    +0.000 C 
ATOM      3  O   UNL     1      -8.940  -1.465 126.251  0.00  0.00    +0.000 OA
ATOM      4  N   UNL     1      -7.291  -2.081 124.832  0.00  0.00    +0.000 N 
ATOM      5  C   UNL     1      -6.356  -3.127 124.502  0.00  0.00    +0.000 C 
ATOM      6  C   UNL     1      -5.645  -2.588 123.288  0.00  0.00    +0.000 C 
ATOM      7  C   UNL     1      -6.771  -1.912 122.512  0.00  0.00    +0.000 C 
ATOM      8  C   UNL     1      -7.777  -1.439 123.590  0.00  0.00    +0.000 C 
BRANCH   8   9
ATOM      9  C   UNL     1      -9.201  -1.826 123.140  0.00  0.00    +0.000 C 
ATOM     10  N   UNL     1      -9.526  -3.151 123.220  0.00  0.00    +0.000 N 
ATOM     11  O   UNL     1      -9.988  -1.016 122.655  0.00  0.00    +0.000 OA
ATOM     12  H   UNL     1      -9.026  -3.712 123.903  0.00  0.00    +0.000 HD
ATOM     13  H   UNL     1     -10.505  -3.375 123.097  0.00  0.00    +0.000 HD
ENDBRANCH   8   9
ENDBRANCH   1   2
BRANCH   1  14
ATOM     14  N   UNL     1      -6.328  -0.166 127.412  0.00  0.00    +0.000 N 
ATOM     15  C   UNL     1      -5.361   0.436 126.637  0.00  0.00    +0.000 C 
ATOM     16  O   UNL     1      -4.821  -0.129 125.689  0.00  0.00    +0.000 OA
ATOM     17  H   UNL     1      -6.973   0.416 127.929  0.00  0.00    +0.000 HD
BRANCH  15  18
ATOM     18  C   UNL     1      -5.029   1.896 126.979  0.00  0.00    +0.000 C 
ATOM     19  C   UNL     1      -5.113   2.868 125.809  0.00  0.00    +0.000 C 
ATOM     20  C   UNL     1      -4.077   3.932 126.133  0.00  0.00    +0.000 C 
ATOM     21  C   UNL     1      -3.068   3.169 126.945  0.00  0.00    +0.000 C 
ATOM     22  O   UNL     1      -1.912   3.505 127.165  0.00  0.00    +0.000 OA
ATOM     23  N   UNL     1      -3.674   2.037 127.436  0.00  0.00    +0.000 N 
ATOM     24  H   UNL     1      -3.229   1.461 128.144  0.00  0.00    +0.000 HD
ENDBRANCH  15  18
ENDBRANCH   1  14
BRANCH   1  25
ATOM     25  C   UNL     1      -7.324  -2.151 128.545  0.00  0.00    +0.000 C 
BRANCH  25  26
ATOM     26  C   UNL     1      -6.355  -2.971 129.328  0.00  0.00    +0.000 A 
ATOM     27  C   UNL     1      -4.988  -3.143 129.242  0.00  0.00    +0.000 A 
ATOM     28  N   UNL     1      -4.552  -4.077 130.134  0.00  0.00    +0.000 NA
ATOM     29  C   UNL     1      -5.619  -4.437 130.803  0.00  0.00    +0.000 A 
ATOM     30  N   UNL     1      -6.732  -3.774 130.375  0.00  0.00    +0.000 N 
ATOM     31  H   UNL     1      -7.663  -3.873 130.758  0.00  0.00    +0.000 HD
ENDBRANCH  25  26
ENDBRANCH   1  25
TORSDOF 6
ENDMDL
MODEL 5
REMARK VINA RESULT:      -6.9      7.208      9.555
REMARK  Name = Protirelin
REMARK  6 active torsions:
REMARK  status: ('A' for Active; 'I' for Inactive)
REMARK    1  A    between atoms: C_2  and  C_3
REMARK    2  A    between atoms: C_2  and  N_9
REMARK    3  A    between atoms: C_2  and  C_19
REMARK    4  A    between atoms: C_3  and  C_4
REMARK    5  A    between atoms: C_10  and  C_12
REMARK    6  A    between atoms: C_25  and  C_27
REMARK                            x       y       z     vdW  Elec       q    Type
REMARK                         _______ _______ _______ _____ _____    ______ ____
ROOT
ATOM      1  C   UNL     1      -8.308   5.988 130.351  0.00  0.00    +0.000 C 
ENDROOT
BRANCH   1   2
ATOM      2  C   UNL     1      -8.105   4.445 130.481  0.00  0.00    +0.000 C 
ATOM      3  O   UNL     1      -7.736   3.776 129.512  0.00  0.00    +0.000 OA
ATOM      4  N   UNL     1      -8.236   3.848 131.716  0.00  0.00    +0.000 N 
ATOM      5  C   UNL     1      -9.295   4.043 132.673  0.00  0.00    +0.000 C 
ATOM      6  C   UNL     1      -8.604   3.859 134.000  0.00  0.00    +0.000 C 
ATOM      7  C   UNL     1      -7.648   2.704 133.722  0.00  0.00    +0.000 C 
ATOM      8  C   UNL     1      -7.294   2.824 132.220  0.00  0.00    +0.000 C 
BRANCH   8   9
ATOM      9  C   UNL     1      -7.401   1.427 131.573  0.00  0.00    +0.000 C 
ATOM     10  N   UNL     1      -6.498   1.142 130.587  0.00  0.00    +0.000 N 
ATOM     11  O   UNL     1      -8.294   0.632 131.853  0.00  0.00    +0.000 OA
ATOM     12  H   UNL     1      -5.612   1.637 130.610  0.00  0.00    +0.000 HD
ATOM     13  H   UNL     1      -6.456   0.175 130.292  0.00  0.00    +0.000 HD
ENDBRANCH   8   9
ENDBRANCH   1   2
BRANCH   1  14
ATOM     14  N   UNL     1      -9.721   6.331 130.244  0.00  0.00    +0.000 N 
ATOM     15  C   UNL     1     -10.353   6.542 129.037  0.00  0.00    +0.000 C 
ATOM     16  O   UNL     1      -9.798   6.368 127.955  0.00  0.00    +0.000 OA
ATOM     17  H   UNL     1     -10.282   6.147 131.063  0.00  0.00    +0.000 HD
BRANCH  15  18
ATOM     18  C   UNL     1     -11.832   6.951 129.109  0.00  0.00    +0.000 C 
ATOM     19  C   UNL     1     -12.545   7.034 127.765  0.00  0.00    +0.000 C 
ATOM     20  C   UNL     1     -13.593   8.115 127.965  0.00  0.00    +0.000 C 
ATOM     21  C   UNL     1     -12.960   8.997 129.005  0.00  0.00    +0.000 C 
ATOM     22  O   UNL     1     -13.269  10.152 129.260  0.00  0.00    +0.000 OA
ATOM     23  N   UNL     1     -11.989   8.272 129.654  0.00  0.00    +0.000 N 
ATOM     24  H   UNL     1     -11.547   8.614 130.501  0.00  0.00    +0.000 HD
ENDBRANCH  15  18
ENDBRANCH   1  14
BRANCH   1  25
ATOM     25  C   UNL     1      -7.625   6.693 131.544  0.00  0.00    +0.000 C 
BRANCH  25  26
ATOM     26  C   UNL     1      -6.135   6.654 131.480  0.00  0.00    +0.000 A 
ATOM     27  C   UNL     1      -5.183   5.979 132.218  0.00  0.00    +0.000 A 
ATOM     28  N   UNL     1      -3.923   6.337 131.839  0.00  0.00    +0.000 NA
ATOM     29  C   UNL     1      -4.087   7.174 130.845  0.00  0.00    +0.000 A 
ATOM     30  N   UNL     1      -5.409   7.377 130.568  0.00  0.00    +0.000 N 
ATOM     31  H   UNL     1      -5.774   7.964 129.831  0.00  0.00    +0.000 HD
ENDBRANCH  25  26
ENDBRANCH   1  25
TORSDOF 6
ENDMDL
MODEL 6
REMARK VINA RESULT:      -6.9      2.893      3.897
REMARK  Name = Protirelin
REMARK  6 active torsions:
REMARK  status: ('A' for Active; 'I' for Inactive)
REMARK    1  A    between atoms: C_2  and  C_3
REMARK    2  A    between atoms: C_2  and  N_9
REMARK    3  A    between atoms: C_2  and  C_19
REMARK    4  A    between atoms: C_3  and  C_4
REMARK    5  A    between atoms: C_10  and  C_12
REMARK    6  A    between atoms: C_25  and  C_27
REMARK                            x       y       z     vdW  Elec       q    Type
REMARK                         _______ _______ _______ _____ _____    ______ ____
ROOT
ATOM      1  C   UNL     1      -8.163   1.388 124.695  0.00  0.00    +0.000 C 
ENDROOT
BRANCH   1   2
ATOM      2  C   UNL     1      -8.562  -0.121 124.646  0.00  0.00    +0.000 C 
ATOM      3  O   UNL     1      -9.744  -0.455 124.526  0.00  0.00    +0.000 OA
ATOM      4  N   UNL     1      -7.574  -1.081 124.630  0.00  0.00    +0.000 N 
ATOM      5  C   UNL     1      -6.414  -1.155 125.481  0.00  0.00    +0.000 C 
ATOM      6  C   UNL     1      -5.375  -1.797 124.598  0.00  0.00    +0.000 C 
ATOM      7  C   UNL     1      -6.181  -2.845 123.838  0.00  0.00    +0.000 C 
ATOM      8  C   UNL     1      -7.611  -2.260 123.735  0.00  0.00    +0.000 C 
BRANCH   8   9
ATOM      9  C   UNL     1      -8.625  -3.361 124.108  0.00  0.00    +0.000 C 
ATOM     10  N   UNL     1      -9.813  -3.349 123.432  0.00  0.00    +0.000 N 
ATOM     11  O   UNL     1      -8.430  -4.164 125.017  0.00  0.00    +0.000 OA
ATOM     12  H   UNL     1      -9.818  -2.929 122.507  0.00  0.00    +0.000 HD
ATOM     13  H   UNL     1     -10.396  -4.167 123.547  0.00  0.00    +0.000 HD
ENDBRANCH   8   9
ENDBRANCH   1   2
BRANCH   1  14
ATOM     14  N   UNL     1      -7.828   1.806 126.050  0.00  0.00    +0.000 N 
ATOM     15  C   UNL     1      -8.000   3.097 126.503  0.00  0.00    +0.000 C 
ATOM     16  O   UNL     1      -8.535   3.973 125.828  0.00  0.00    +0.000 OA
ATOM     17  H   UNL     1      -7.717   1.063 126.725  0.00  0.00    +0.000 HD
BRANCH  15  18
ATOM     18  C   UNL     1      -7.542   3.377 127.942  0.00  0.00    +0.000 C 
ATOM     19  C   UNL     1      -7.796   2.248 128.932  0.00  0.00    +0.000 C 
ATOM     20  C   UNL     1      -8.015   2.956 130.258  0.00  0.00    +0.000 C 
ATOM     21  C   UNL     1      -8.581   4.283 129.831  0.00  0.00    +0.000 C 
ATOM     22  O   UNL     1      -9.203   5.065 130.536  0.00  0.00    +0.000 OA
ATOM     23  N   UNL     1      -8.249   4.490 128.513  0.00  0.00    +0.000 N 
ATOM     24  H   UNL     1      -8.386   5.392 128.067  0.00  0.00    +0.000 HD
ENDBRANCH  15  18
ENDBRANCH   1  14
BRANCH   1  25
ATOM     25  C   UNL     1      -7.007   1.640 123.702  0.00  0.00    +0.000 C 
BRANCH  25  26
ATOM     26  C   UNL     1      -7.377   2.548 122.579  0.00  0.00    +0.000 A 
ATOM     27  C   UNL     1      -8.591   3.003 122.102  0.00  0.00    +0.000 A 
ATOM     28  N   UNL     1      -8.426   3.759 120.980  0.00  0.00    +0.000 NA
ATOM     29  C   UNL     1      -7.131   3.823 120.795  0.00  0.00    +0.000 A 
ATOM     30  N   UNL     1      -6.449   3.132 121.754  0.00  0.00    +0.000 N 
ATOM     31  H   UNL     1      -5.443   3.059 121.826  0.00  0.00    +0.000 HD
ENDBRANCH  25  26
ENDBRANCH   1  25
TORSDOF 6
ENDMDL
MODEL 7
REMARK VINA RESULT:      -6.9      6.726      8.483
REMARK  Name = Protirelin
REMARK  6 active torsions:
REMARK  status: ('A' for Active; 'I' for Inactive)
REMARK    1  A    between atoms: C_2  and  C_3
REMARK    2  A    between atoms: C_2  and  N_9
REMARK    3  A    between atoms: C_2  and  C_19
REMARK    4  A    between atoms: C_3  and  C_4
REMARK    5  A    between atoms: C_10  and  C_12
REMARK    6  A    between atoms: C_25  and  C_27
REMARK                            x       y       z     vdW  Elec       q    Type
REMARK                         _______ _______ _______ _____ _____    ______ ____
ROOT
ATOM      1  C   UNL     1      -8.830   4.494 129.721  0.00  0.00    +0.000 C 
ENDROOT
BRANCH   1   2
ATOM      2  C   UNL     1      -9.612   5.644 129.009  0.00  0.00    +0.000 C 
ATOM      3  O   UNL     1      -9.413   5.895 127.818  0.00  0.00    +0.000 OA
ATOM      4  N   UNL     1     -10.605   6.309 129.693  0.00  0.00    +0.000 N 
ATOM      5  C   UNL     1     -10.542   6.839 131.031  0.00  0.00    +0.000 C 
ATOM      6  C   UNL     1     -11.958   6.702 131.528  0.00  0.00    +0.000 C 
ATOM      7  C   UNL     1     -12.781   7.070 130.298  0.00  0.00    +0.000 C 
ATOM      8  C   UNL     1     -11.915   6.643 129.088  0.00  0.00    +0.000 C 
BRANCH   8   9
ATOM      9  C   UNL     1     -11.911   7.787 128.054  0.00  0.00    +0.000 C 
ATOM     10  N   UNL     1     -11.946   9.059 128.552  0.00  0.00    +0.000 N 
ATOM     11  O   UNL     1     -11.958   7.587 126.842  0.00  0.00    +0.000 OA
ATOM     12  H   UNL     1     -11.577   9.203 129.487  0.00  0.00    +0.000 HD
ATOM     13  H   UNL     1     -11.764   9.800 127.888  0.00  0.00    +0.000 HD
ENDBRANCH   8   9
ENDBRANCH   1   2
BRANCH   1  14
ATOM     14  N   UNL     1      -7.664   5.003 130.431  0.00  0.00    +0.000 N 
ATOM     15  C   UNL     1      -6.407   5.063 129.866  0.00  0.00    +0.000 C 
ATOM     16  O   UNL     1      -6.192   4.778 128.691  0.00  0.00    +0.000 OA
ATOM     17  H   UNL     1      -7.857   5.557 131.253  0.00  0.00    +0.000 HD
BRANCH  15  18
ATOM     18  C   UNL     1      -5.279   5.575 130.775  0.00  0.00    +0.000 C 
ATOM     19  C   UNL     1      -5.278   7.080 131.016  0.00  0.00    +0.000 C 
ATOM     20  C   UNL     1      -3.811   7.424 131.211  0.00  0.00    +0.000 C 
ATOM     21  C   UNL     1      -3.116   6.374 130.388  0.00  0.00    +0.000 C 
ATOM     22  O   UNL     1      -1.965   6.421 129.977  0.00  0.00    +0.000 OA
ATOM     23  N   UNL     1      -3.985   5.326 130.202  0.00  0.00    +0.000 N 
ATOM     24  H   UNL     1      -3.674   4.440 129.817  0.00  0.00    +0.000 HD
ENDBRANCH  15  18
ENDBRANCH   1  14
BRANCH   1  25
ATOM     25  C   UNL     1      -9.793   3.726 130.653  0.00  0.00    +0.000 C 
BRANCH  25  26
ATOM     26  C   UNL     1      -9.189   2.500 131.249  0.00  0.00    +0.000 A 
ATOM     27  C   UNL     1      -9.071   2.048 132.548  0.00  0.00    +0.000 A 
ATOM     28  N   UNL     1      -8.350   0.893 132.605  0.00  0.00    +0.000 NA
ATOM     29  C   UNL     1      -8.073   0.599 131.358  0.00  0.00    +0.000 A 
ATOM     30  N   UNL     1      -8.585   1.525 130.495  0.00  0.00    +0.000 N 
ATOM     31  H   UNL     1      -8.516   1.494 129.487  0.00  0.00    +0.000 HD
ENDBRANCH  25  26
ENDBRANCH   1  25
TORSDOF 6
ENDMDL
MODEL 8
REMARK VINA RESULT:      -6.8      5.812      9.308
REMARK  Name = Protirelin
REMARK  6 active torsions:
REMARK  status: ('A' for Active; 'I' for Inactive)
REMARK    1  A    between atoms: C_2  and  C_3
REMARK    2  A    between atoms: C_2  and  N_9
REMARK    3  A    between atoms: C_2  and  C_19
REMARK    4  A    between atoms: C_3  and  C_4
REMARK    5  A    between atoms: C_10  and  C_12
REMARK    6  A    between atoms: C_25  and  C_27
REMARK                            x       y       z     vdW  Elec       q    Type
REMARK                         _______ _______ _______ _____ _____    ______ ____
ROOT
ATOM      1  C   UNL     1      -7.064   4.569 130.060  0.00  0.00    +0.000 C 
ENDROOT
BRANCH   1   2
ATOM      2  C   UNL     1      -6.219   4.168 128.809  0.00  0.00    +0.000 C 
ATOM      3  O   UNL     1      -6.759   3.663 127.821  0.00  0.00    +0.000 OA
ATOM      4  N   UNL     1      -4.878   4.482 128.771  0.00  0.00    +0.000 N 
ATOM      5  C   UNL     1      -3.902   4.274 129.811  0.00  0.00    +0.000 C 
ATOM      6  C   UNL     1      -2.940   5.418 129.619  0.00  0.00    +0.000 C 
ATOM      7  C   UNL     1      -2.841   5.521 128.100  0.00  0.00    +0.000 C 
ATOM      8  C   UNL     1      -4.214   5.040 127.572  0.00  0.00    +0.000 C 
BRANCH   8   9
ATOM      9  C   UNL     1      -3.981   4.056 126.407  0.00  0.00    +0.000 C 
ATOM     10  N   UNL     1      -4.906   4.071 125.402  0.00  0.00    +0.000 N 
ATOM     11  O   UNL     1      -3.065   3.237 126.403  0.00  0.00    +0.000 OA
ATOM     12  H   UNL     1      -5.423   4.933 125.258  0.00  0.00    +0.000 HD
ATOM     13  H   UNL     1      -4.659   3.560 124.565  0.00  0.00    +0.000 HD
ENDBRANCH   8   9
ENDBRANCH   1   2
BRANCH   1  14
ATOM     14  N   UNL     1      -8.397   5.019 129.679  0.00  0.00    +0.000 N 
ATOM     15  C   UNL     1      -8.991   6.143 130.210  0.00  0.00    +0.000 C 
ATOM     16  O   UNL     1      -8.408   6.904 130.978  0.00  0.00    +0.000 OA
ATOM     17  H   UNL     1      -8.763   4.633 128.819  0.00  0.00    +0.000 HD
BRANCH  15  18
ATOM     18  C   UNL     1     -10.423   6.441 129.739  0.00  0.00    +0.000 C 
ATOM     19  C   UNL     1     -10.675   7.881 129.310  0.00  0.00    +0.000 C 
ATOM     20  C   UNL     1     -12.137   8.119 129.644  0.00  0.00    +0.000 C 
ATOM     21  C   UNL     1     -12.363   7.192 130.806  0.00  0.00    +0.000 C 
ATOM     22  O   UNL     1     -13.279   7.254 131.614  0.00  0.00    +0.000 OA
ATOM     23  N   UNL     1     -11.380   6.232 130.790  0.00  0.00    +0.000 N 
ATOM     24  H   UNL     1     -11.430   5.410 131.385  0.00  0.00    +0.000 HD
ENDBRANCH  15  18
ENDBRANCH   1  14
BRANCH   1  25
ATOM     25  C   UNL     1      -7.108   3.380 131.045  0.00  0.00    +0.000 C 
BRANCH  25  26
ATOM     26  C   UNL     1      -7.645   3.743 132.388  0.00  0.00    +0.000 A 
ATOM     27  C   UNL     1      -8.600   3.168 133.203  0.00  0.00    +0.000 A 
ATOM     28  N   UNL     1      -8.816   3.923 134.317  0.00  0.00    +0.000 NA
ATOM     29  C   UNL     1      -7.971   4.920 134.226  0.00  0.00    +0.000 A 
ATOM     30  N   UNL     1      -7.217   4.841 133.091  0.00  0.00    +0.000 N 
ATOM     31  H   UNL     1      -6.486   5.486 132.821  0.00  0.00    +0.000 HD
ENDBRANCH  25  26
ENDBRANCH   1  25
TORSDOF 6
ENDMDL
MODEL 9
REMARK VINA RESULT:      -6.8      2.232      5.819
REMARK  Name = Protirelin
REMARK  6 active torsions:
REMARK  status: ('A' for Active; 'I' for Inactive)
REMARK    1  A    between atoms: C_2  and  C_3
REMARK    2  A    between atoms: C_2  and  N_9
REMARK    3  A    between atoms: C_2  and  C_19
REMARK    4  A    between atoms: C_3  and  C_4
REMARK    5  A    between atoms: C_10  and  C_12
REMARK    6  A    between atoms: C_25  and  C_27
REMARK                            x       y       z     vdW  Elec       q    Type
REMARK                         _______ _______ _______ _____ _____    ______ ____
ROOT
ATOM      1  C   UNL     1      -7.812   2.009 125.890  0.00  0.00    +0.000 C 
ENDROOT
BRANCH   1   2
ATOM      2  C   UNL     1      -6.833   1.835 127.095  0.00  0.00    +0.000 C 
ATOM      3  O   UNL     1      -6.907   0.844 127.826  0.00  0.00    +0.000 OA
ATOM      4  N   UNL     1      -5.815   2.745 127.274  0.00  0.00    +0.000 N 
ATOM      5  C   UNL     1      -5.908   4.182 127.232  0.00  0.00    +0.000 C 
ATOM      6  C   UNL     1      -4.564   4.603 126.695  0.00  0.00    +0.000 C 
ATOM      7  C   UNL     1      -3.609   3.639 127.392  0.00  0.00    +0.000 C 
ATOM      8  C   UNL     1      -4.431   2.347 127.618  0.00  0.00    +0.000 C 
BRANCH   8   9
ATOM      9  C   UNL     1      -4.205   1.863 129.065  0.00  0.00    +0.000 C 
ATOM     10  N   UNL     1      -4.201   0.510 129.261  0.00  0.00    +0.000 N 
ATOM     11  O   UNL     1      -4.115   2.634 130.017  0.00  0.00    +0.000 OA
ATOM     12  H   UNL     1      -3.943  -0.074 128.472  0.00  0.00    +0.000 HD
ATOM     13  H   UNL     1      -3.879   0.195 130.167  0.00  0.00    +0.000 HD
ENDBRANCH   8   9
ENDBRANCH   1   2
BRANCH   1  14
ATOM     14  N   UNL     1      -7.089   2.128 124.631  0.00  0.00    +0.000 N 
ATOM     15  C   UNL     1      -7.166   3.242 123.822  0.00  0.00    +0.000 C 
ATOM     16  O   UNL     1      -7.778   4.257 124.145  0.00  0.00    +0.000 OA
ATOM     17  H   UNL     1      -6.324   1.482 124.500  0.00  0.00    +0.000 HD
BRANCH  15  18
ATOM     18  C   UNL     1      -6.383   3.177 122.502  0.00  0.00    +0.000 C 
ATOM     19  C   UNL     1      -5.342   4.273 122.314  0.00  0.00    +0.000 C 
ATOM     20  C   UNL     1      -5.295   4.490 120.812  0.00  0.00    +0.000 C 
ATOM     21  C   UNL     1      -6.688   4.119 120.383  0.00  0.00    +0.000 C 
ATOM     22  O   UNL     1      -7.228   4.427 119.330  0.00  0.00    +0.000 OA
ATOM     23  N   UNL     1      -7.249   3.338 121.366  0.00  0.00    +0.000 N 
ATOM     24  H   UNL     1      -8.121   2.841 121.216  0.00  0.00    +0.000 HD
ENDBRANCH  15  18
ENDBRANCH   1  14
BRANCH   1  25
ATOM     25  C   UNL     1      -8.817   0.836 125.879  0.00  0.00    +0.000 C 
BRANCH  25  26
ATOM     26  C   UNL     1      -9.395   0.564 124.532  0.00  0.00    +0.000 A 
ATOM     27  C   UNL     1     -10.337   1.221 123.765  0.00  0.00    +0.000 A 
ATOM     28  N   UNL     1     -10.608   0.532 122.621  0.00  0.00    +0.000 NA
ATOM     29  C   UNL     1      -9.808  -0.505 122.646  0.00  0.00    +0.000 A 
ATOM     30  N   UNL     1      -9.031  -0.516 123.768  0.00  0.00    +0.000 N 
ATOM     31  H   UNL     1      -8.326  -1.206 123.991  0.00  0.00    +0.000 HD
ENDBRANCH  25  26
ENDBRANCH   1  25
TORSDOF 6
ENDMDL
