MODEL 1
REMARK VINA RESULT:      -5.6      0.000      0.000
REMARK  Name = Protionamide
REMARK  5 active torsions:
REMARK  status: ('A' for Active; 'I' for Inactive)
REMARK    1  A    between atoms: C_1  and  C_2
REMARK    2  A    between atoms: C_2  and  C_3
REMARK    3  A    between atoms: C_3  and  C_4
REMARK    4  A    between atoms: C_6  and  C_10
REMARK    5  A    between atoms: C_10  and  N_11
REMARK                            x       y       z     vdW  Elec       q    Type
REMARK                         _______ _______ _______ _____ _____    ______ ____
ROOT
ATOM      1  C   UNL     1     -12.280   8.706 128.791  0.00  0.00    +0.000 A 
ATOM      2  C   UNL     1     -11.932   8.073 129.983  0.00  0.00    +0.000 A 
ATOM      3  C   UNL     1     -10.909   7.119 129.991  0.00  0.00    +0.000 A 
ATOM      4  C   UNL     1     -10.269   6.843 128.780  0.00  0.00    +0.000 A 
ATOM      5  C   UNL     1     -10.679   7.515 127.640  0.00  0.00    +0.000 A 
ATOM      6  N   UNL     1     -11.665   8.433 127.620  0.00  0.00    +0.000 NA
ENDROOT
BRANCH   3   7
ATOM      7  C   UNL     1     -10.526   6.424 131.265  0.00  0.00    +0.000 C 
ATOM      8  S   UNL     1      -8.961   6.128 131.793  0.00  0.00    +0.000 S 
BRANCH   7   9
ATOM      9  N   UNL     1     -11.527   5.979 132.090  0.00  0.00    +0.000 N 
ATOM     10  H   UNL     1     -12.251   5.321 131.846  0.00  0.00    +0.000 HD
ATOM     11  H   UNL     1     -11.547   6.339 133.039  0.00  0.00    +0.000 HD
ENDBRANCH   7   9
ENDBRANCH   3   7
BRANCH   1  12
ATOM     12  C   UNL     1     -13.392   9.723 128.775  0.00  0.00    +0.000 C 
BRANCH  12  14
ATOM     13  C   UNL     1     -13.877  11.997 129.733  0.00  0.00    +0.000 C 
ATOM     14  C   UNL     1     -13.376  10.595 130.030  0.00  0.00    +0.000 C 
ENDBRANCH  12  14
ENDBRANCH   1  12
TORSDOF 4
ENDMDL
MODEL 2
REMARK VINA RESULT:      -5.4      2.266      3.178
REMARK  Name = Protionamide
REMARK  5 active torsions:
REMARK  status: ('A' for Active; 'I' for Inactive)
REMARK    1  A    between atoms: C_1  and  C_2
REMARK    2  A    between atoms: C_2  and  C_3
REMARK    3  A    between atoms: C_3  and  C_4
REMARK    4  A    between atoms: C_6  and  C_10
REMARK    5  A    between atoms: C_10  and  N_11
REMARK                            x       y       z     vdW  Elec       q    Type
REMARK                         _______ _______ _______ _____ _____    ______ ____
ROOT
ATOM      1  C   UNL     1     -11.211   7.839 129.404  0.00  0.00    +0.000 A 
ATOM      2  C   UNL     1     -10.249   7.167 130.157  0.00  0.00    +0.000 A 
ATOM      3  C   UNL     1     -10.608   6.573 131.371  0.00  0.00    +0.000 A 
ATOM      4  C   UNL     1     -11.939   6.680 131.779  0.00  0.00    +0.000 A 
ATOM      5  C   UNL     1     -12.830   7.369 130.972  0.00  0.00    +0.000 A 
ATOM      6  N   UNL     1     -12.496   7.948 129.802  0.00  0.00    +0.000 NA
ENDROOT
BRANCH   3   7
ATOM      7  C   UNL     1      -9.583   5.851 132.197  0.00  0.00    +0.000 C 
ATOM      8  S   UNL     1      -7.918   6.008 132.058  0.00  0.00    +0.000 S 
BRANCH   7   9
ATOM      9  N   UNL     1     -10.020   4.975 133.158  0.00  0.00    +0.000 N 
ATOM     10  H   UNL     1     -10.153   5.182 134.136  0.00  0.00    +0.000 HD
ATOM     11  H   UNL     1     -10.236   4.028 132.865  0.00  0.00    +0.000 HD
ENDBRANCH   7   9
ENDBRANCH   3   7
BRANCH   1  12
ATOM     12  C   UNL     1     -10.826   8.494 128.102  0.00  0.00    +0.000 C 
BRANCH  12  14
ATOM     13  C   UNL     1     -12.124   7.167 126.406  0.00  0.00    +0.000 C 
ATOM     14  C   UNL     1     -10.747   7.478 126.963  0.00  0.00    +0.000 C 
ENDBRANCH  12  14
ENDBRANCH   1  12
TORSDOF 4
ENDMDL
MODEL 3
REMARK VINA RESULT:      -5.3      2.606      5.365
REMARK  Name = Protionamide
REMARK  5 active torsions:
REMARK  status: ('A' for Active; 'I' for Inactive)
REMARK    1  A    between atoms: C_1  and  C_2
REMARK    2  A    between atoms: C_2  and  C_3
REMARK    3  A    between atoms: C_3  and  C_4
REMARK    4  A    between atoms: C_6  and  C_10
REMARK    5  A    between atoms: C_10  and  N_11
REMARK                            x       y       z     vdW  Elec       q    Type
REMARK                         _______ _______ _______ _____ _____    ______ ____
ROOT
ATOM      1  C   UNL     1      -9.503   6.559 131.364  0.00  0.00    +0.000 A 
ATOM      2  C   UNL     1      -9.788   7.161 130.140  0.00  0.00    +0.000 A 
ATOM      3  C   UNL     1     -11.108   7.496 129.821  0.00  0.00    +0.000 A 
ATOM      4  C   UNL     1     -12.097   7.208 130.764  0.00  0.00    +0.000 A 
ATOM      5  C   UNL     1     -11.728   6.604 131.955  0.00  0.00    +0.000 A 
ATOM      6  N   UNL     1     -10.461   6.274 132.272  0.00  0.00    +0.000 NA
ENDROOT
BRANCH   3   7
ATOM      7  C   UNL     1     -11.433   8.141 128.505  0.00  0.00    +0.000 C 
ATOM      8  S   UNL     1     -10.883   7.641 127.001  0.00  0.00    +0.000 S 
BRANCH   7   9
ATOM      9  N   UNL     1     -12.251   9.242 128.504  0.00  0.00    +0.000 N 
ATOM     10  H   UNL     1     -12.438   9.844 127.717  0.00  0.00    +0.000 HD
ATOM     11  H   UNL     1     -12.721   9.478 129.372  0.00  0.00    +0.000 HD
ENDBRANCH   7   9
ENDBRANCH   3   7
BRANCH   1  12
ATOM     12  C   UNL     1      -8.084   6.182 131.705  0.00  0.00    +0.000 C 
BRANCH  12  14
ATOM     13  C   UNL     1      -5.649   6.695 131.341  0.00  0.00    +0.000 C 
ATOM     14  C   UNL     1      -7.075   7.081 130.991  0.00  0.00    +0.000 C 
ENDBRANCH  12  14
ENDBRANCH   1  12
TORSDOF 4
ENDMDL
MODEL 4
REMARK VINA RESULT:      -4.9      2.590      3.300
REMARK  Name = Protionamide
REMARK  5 active torsions:
REMARK  status: ('A' for Active; 'I' for Inactive)
REMARK    1  A    between atoms: C_1  and  C_2
REMARK    2  A    between atoms: C_2  and  C_3
REMARK    3  A    between atoms: C_3  and  C_4
REMARK    4  A    between atoms: C_6  and  C_10
REMARK    5  A    between atoms: C_10  and  N_11
REMARK                            x       y       z     vdW  Elec       q    Type
REMARK                         _______ _______ _______ _____ _____    ______ ____
ROOT
ATOM      1  C   UNL     1     -11.165   6.868 130.821  0.00  0.00    +0.000 A 
ATOM      2  C   UNL     1     -10.807   6.132 131.949  0.00  0.00    +0.000 A 
ATOM      3  C   UNL     1      -9.455   5.944 132.256  0.00  0.00    +0.000 A 
ATOM      4  C   UNL     1      -8.510   6.517 131.402  0.00  0.00    +0.000 A 
ATOM      5  C   UNL     1      -8.952   7.231 130.300  0.00  0.00    +0.000 A 
ATOM      6  N   UNL     1     -10.251   7.415 129.993  0.00  0.00    +0.000 NA
ENDROOT
BRANCH   3   7
ATOM      7  C   UNL     1      -9.052   5.150 133.464  0.00  0.00    +0.000 C 
ATOM      8  S   UNL     1      -7.713   5.441 134.433  0.00  0.00    +0.000 S 
BRANCH   7   9
ATOM      9  N   UNL     1      -9.830   4.082 133.830  0.00  0.00    +0.000 N 
ATOM     10  H   UNL     1     -10.816   4.107 134.039  0.00  0.00    +0.000 HD
ATOM     11  H   UNL     1      -9.380   3.174 133.897  0.00  0.00    +0.000 HD
ENDBRANCH   7   9
ENDBRANCH   3   7
BRANCH   1  12
ATOM     12  C   UNL     1     -12.620   7.059 130.478  0.00  0.00    +0.000 C 
BRANCH  12  14
ATOM     13  C   UNL     1     -13.537   7.718 128.231  0.00  0.00    +0.000 C 
ATOM     14  C   UNL     1     -12.929   6.597 129.054  0.00  0.00    +0.000 C 
ENDBRANCH  12  14
ENDBRANCH   1  12
TORSDOF 4
ENDMDL
MODEL 5
REMARK VINA RESULT:      -4.9      1.921      2.816
REMARK  Name = Protionamide
REMARK  5 active torsions:
REMARK  status: ('A' for Active; 'I' for Inactive)
REMARK    1  A    between atoms: C_1  and  C_2
REMARK    2  A    between atoms: C_2  and  C_3
REMARK    3  A    between atoms: C_3  and  C_4
REMARK    4  A    between atoms: C_6  and  C_10
REMARK    5  A    between atoms: C_10  and  N_11
REMARK                            x       y       z     vdW  Elec       q    Type
REMARK                         _______ _______ _______ _____ _____    ______ ____
ROOT
ATOM      1  C   UNL     1     -11.209   7.730 129.746  0.00  0.00    +0.000 A 
ATOM      2  C   UNL     1      -9.876   7.344 129.869  0.00  0.00    +0.000 A 
ATOM      3  C   UNL     1      -9.480   6.544 130.946  0.00  0.00    +0.000 A 
ATOM      4  C   UNL     1     -10.460   6.162 131.865  0.00  0.00    +0.000 A 
ATOM      5  C   UNL     1     -11.762   6.593 131.670  0.00  0.00    +0.000 A 
ATOM      6  N   UNL     1     -12.154   7.365 130.638  0.00  0.00    +0.000 NA
ENDROOT
BRANCH   3   7
ATOM      7  C   UNL     1      -8.047   6.123 131.096  0.00  0.00    +0.000 C 
ATOM      8  S   UNL     1      -7.496   4.548 131.270  0.00  0.00    +0.000 S 
BRANCH   7   9
ATOM      9  N   UNL     1      -7.080   7.096 131.096  0.00  0.00    +0.000 N 
ATOM     10  H   UNL     1      -6.380   7.239 130.384  0.00  0.00    +0.000 HD
ATOM     11  H   UNL     1      -7.061   7.739 131.881  0.00  0.00    +0.000 HD
ENDBRANCH   7   9
ENDBRANCH   3   7
BRANCH   1  12
ATOM     12  C   UNL     1     -11.636   8.604 128.595  0.00  0.00    +0.000 C 
BRANCH  12  14
ATOM     13  C   UNL     1     -13.302  10.334 129.342  0.00  0.00    +0.000 C 
ATOM     14  C   UNL     1     -13.116   8.976 128.690  0.00  0.00    +0.000 C 
ENDBRANCH  12  14
ENDBRANCH   1  12
TORSDOF 4
ENDMDL
MODEL 6
REMARK VINA RESULT:      -4.8      8.843     10.349
REMARK  Name = Protionamide
REMARK  5 active torsions:
REMARK  status: ('A' for Active; 'I' for Inactive)
REMARK    1  A    between atoms: C_1  and  C_2
REMARK    2  A    between atoms: C_2  and  C_3
REMARK    3  A    between atoms: C_3  and  C_4
REMARK    4  A    between atoms: C_6  and  C_10
REMARK    5  A    between atoms: C_10  and  N_11
REMARK                            x       y       z     vdW  Elec       q    Type
REMARK                         _______ _______ _______ _____ _____    ______ ____
ROOT
ATOM      1  C   UNL     1      -5.848   3.787 122.044  0.00  0.00    +0.000 A 
ATOM      2  C   UNL     1      -6.834   2.863 122.382  0.00  0.00    +0.000 A 
ATOM      3  C   UNL     1      -7.312   2.804 123.696  0.00  0.00    +0.000 A 
ATOM      4  C   UNL     1      -6.767   3.694 124.625  0.00  0.00    +0.000 A 
ATOM      5  C   UNL     1      -5.787   4.579 124.205  0.00  0.00    +0.000 A 
ATOM      6  N   UNL     1      -5.318   4.642 122.944  0.00  0.00    +0.000 NA
ENDROOT
BRANCH   3   7
ATOM      7  C   UNL     1      -8.370   1.811 124.078  0.00  0.00    +0.000 C 
ATOM      8  S   UNL     1      -8.108   0.218 124.534  0.00  0.00    +0.000 S 
BRANCH   7   9
ATOM      9  N   UNL     1      -9.680   2.217 124.061  0.00  0.00    +0.000 N 
ATOM     10  H   UNL     1     -10.056   3.037 124.512  0.00  0.00    +0.000 HD
ATOM     11  H   UNL     1     -10.341   1.646 123.543  0.00  0.00    +0.000 HD
ENDBRANCH   7   9
ENDBRANCH   3   7
BRANCH   1  12
ATOM     12  C   UNL     1      -5.320   3.843 120.633  0.00  0.00    +0.000 C 
BRANCH  12  14
ATOM     13  C   UNL     1      -5.838   5.566 118.877  0.00  0.00    +0.000 C 
ATOM     14  C   UNL     1      -5.099   5.283 120.172  0.00  0.00    +0.000 C 
ENDBRANCH  12  14
ENDBRANCH   1  12
TORSDOF 4
ENDMDL
MODEL 7
REMARK VINA RESULT:      -4.8      9.568     11.397
REMARK  Name = Protionamide
REMARK  5 active torsions:
REMARK  status: ('A' for Active; 'I' for Inactive)
REMARK    1  A    between atoms: C_1  and  C_2
REMARK    2  A    between atoms: C_2  and  C_3
REMARK    3  A    between atoms: C_3  and  C_4
REMARK    4  A    between atoms: C_6  and  C_10
REMARK    5  A    between atoms: C_10  and  N_11
REMARK                            x       y       z     vdW  Elec       q    Type
REMARK                         _______ _______ _______ _____ _____    ______ ____
ROOT
ATOM      1  C   UNL     1      -8.664  -0.886 123.071  0.00  0.00    +0.000 A 
ATOM      2  C   UNL     1      -7.762   0.102 123.460  0.00  0.00    +0.000 A 
ATOM      3  C   UNL     1      -8.144   1.447 123.420  0.00  0.00    +0.000 A 
ATOM      4  C   UNL     1      -9.437   1.742 122.984  0.00  0.00    +0.000 A 
ATOM      5  C   UNL     1     -10.270   0.699 122.611  0.00  0.00    +0.000 A 
ATOM      6  N   UNL     1      -9.912  -0.600 122.644  0.00  0.00    +0.000 NA
ENDROOT
BRANCH   3   7
ATOM      7  C   UNL     1      -7.182   2.524 123.831  0.00  0.00    +0.000 C 
ATOM      8  S   UNL     1      -6.156   2.475 125.157  0.00  0.00    +0.000 S 
BRANCH   7   9
ATOM      9  N   UNL     1      -7.119   3.665 123.071  0.00  0.00    +0.000 N 
ATOM     10  H   UNL     1      -6.425   4.393 123.147  0.00  0.00    +0.000 HD
ATOM     11  H   UNL     1      -7.831   3.795 122.360  0.00  0.00    +0.000 HD
ENDBRANCH   7   9
ENDBRANCH   3   7
BRANCH   1  12
ATOM     12  C   UNL     1      -8.251  -2.335 123.099  0.00  0.00    +0.000 C 
BRANCH  12  14
ATOM     13  C   UNL     1      -9.292  -3.103 125.256  0.00  0.00    +0.000 C 
ATOM     14  C   UNL     1      -9.325  -3.214 123.742  0.00  0.00    +0.000 C 
ENDBRANCH  12  14
ENDBRANCH   1  12
TORSDOF 4
ENDMDL
MODEL 8
REMARK VINA RESULT:      -4.8     11.532     13.226
REMARK  Name = Protionamide
REMARK  5 active torsions:
REMARK  status: ('A' for Active; 'I' for Inactive)
REMARK    1  A    between atoms: C_1  and  C_2
REMARK    2  A    between atoms: C_2  and  C_3
REMARK    3  A    between atoms: C_3  and  C_4
REMARK    4  A    between atoms: C_6  and  C_10
REMARK    5  A    between atoms: C_10  and  N_11
REMARK                            x       y       z     vdW  Elec       q    Type
REMARK                         _______ _______ _______ _____ _____    ______ ____
ROOT
ATOM      1  C   UNL     1      -6.834  -2.816 124.292  0.00  0.00    +0.000 A 
ATOM      2  C   UNL     1      -6.602  -2.494 125.628  0.00  0.00    +0.000 A 
ATOM      3  C   UNL     1      -7.635  -2.622 126.563  0.00  0.00    +0.000 A 
ATOM      4  C   UNL     1      -8.873  -3.078 126.105  0.00  0.00    +0.000 A 
ATOM      5  C   UNL     1      -9.019  -3.372 124.759  0.00  0.00    +0.000 A 
ATOM      6  N   UNL     1      -8.033  -3.250 123.849  0.00  0.00    +0.000 NA
ENDROOT
BRANCH   3   7
ATOM      7  C   UNL     1      -7.403  -2.274 128.005  0.00  0.00    +0.000 C 
ATOM      8  S   UNL     1      -7.189  -3.366 129.259  0.00  0.00    +0.000 S 
BRANCH   7   9
ATOM      9  N   UNL     1      -7.361  -0.948 128.356  0.00  0.00    +0.000 N 
ATOM     10  H   UNL     1      -7.788  -0.185 127.854  0.00  0.00    +0.000 HD
ATOM     11  H   UNL     1      -6.856  -0.703 129.201  0.00  0.00    +0.000 HD
ENDBRANCH   7   9
ENDBRANCH   3   7
BRANCH   1  12
ATOM     12  C   UNL     1      -5.728  -2.665 123.278  0.00  0.00    +0.000 C 
BRANCH  12  14
ATOM     13  C   UNL     1      -4.461  -4.815 123.587  0.00  0.00    +0.000 C 
ATOM     14  C   UNL     1      -4.429  -3.308 123.763  0.00  0.00    +0.000 C 
ENDBRANCH  12  14
ENDBRANCH   1  12
TORSDOF 4
ENDMDL
MODEL 9
REMARK VINA RESULT:      -4.6     10.495     12.806
REMARK  Name = Protionamide
REMARK  5 active torsions:
REMARK  status: ('A' for Active; 'I' for Inactive)
REMARK    1  A    between atoms: C_1  and  C_2
REMARK    2  A    between atoms: C_2  and  C_3
REMARK    3  A    between atoms: C_3  and  C_4
REMARK    4  A    between atoms: C_6  and  C_10
REMARK    5  A    between atoms: C_10  and  N_11
REMARK                            x       y       z     vdW  Elec       q    Type
REMARK                         _______ _______ _______ _____ _____    ______ ____
ROOT
ATOM      1  C   UNL     1      -6.768  -1.916 123.563  0.00  0.00    +0.000 A 
ATOM      2  C   UNL     1      -7.028  -0.569 123.319  0.00  0.00    +0.000 A 
ATOM      3  C   UNL     1      -8.183   0.022 123.842  0.00  0.00    +0.000 A 
ATOM      4  C   UNL     1      -9.038  -0.782 124.600  0.00  0.00    +0.000 A 
ATOM      5  C   UNL     1      -8.706  -2.113 124.791  0.00  0.00    +0.000 A 
ATOM      6  N   UNL     1      -7.598  -2.694 124.291  0.00  0.00    +0.000 NA
ENDROOT
BRANCH   3   7
ATOM      7  C   UNL     1      -8.481   1.470 123.584  0.00  0.00    +0.000 C 
ATOM      8  S   UNL     1      -7.451   2.572 122.848  0.00  0.00    +0.000 S 
BRANCH   7   9
ATOM      9  N   UNL     1      -9.699   1.965 123.977  0.00  0.00    +0.000 N 
ATOM     10  H   UNL     1     -10.410   2.346 123.372  0.00  0.00    +0.000 HD
ATOM     11  H   UNL     1      -9.914   1.946 124.969  0.00  0.00    +0.000 HD
ENDBRANCH   7   9
ENDBRANCH   3   7
BRANCH   1  12
ATOM     12  C   UNL     1      -5.532  -2.560 122.990  0.00  0.00    +0.000 C 
BRANCH  12  14
ATOM     13  C   UNL     1      -4.513  -4.778 123.595  0.00  0.00    +0.000 C 
ATOM     14  C   UNL     1      -4.766  -3.352 124.050  0.00  0.00    +0.000 C 
ENDBRANCH  12  14
ENDBRANCH   1  12
TORSDOF 4
ENDMDL
