MODEL 1
REMARK VINA RESULT:      -7.2      0.000      0.000
REMARK  Name = Protriptyline
REMARK  5 active torsions:
REMARK  status: ('A' for Active; 'I' for Inactive)
REMARK    1  A    between atoms: C_1  and  N_2
REMARK    2  A    between atoms: N_2  and  C_3
REMARK    3  A    between atoms: C_3  and  C_4
REMARK    4  A    between atoms: C_4  and  C_5
REMARK    5  A    between atoms: C_5  and  C_6
REMARK                            x       y       z     vdW  Elec       q    Type
REMARK                         _______ _______ _______ _____ _____    ______ ____
ROOT
ATOM      1  C   UNL     1      -8.258  -1.609 127.062  0.00  0.00    +0.000 C 
ATOM      2  C   UNL     1      -7.182  -2.266 127.910  0.00  0.00    +0.000 A 
ATOM      3  C   UNL     1      -7.553  -3.082 128.993  0.00  0.00    +0.000 A 
ATOM      4  C   UNL     1      -6.581  -3.650 129.812  0.00  0.00    +0.000 A 
ATOM      5  C   UNL     1      -5.233  -3.394 129.572  0.00  0.00    +0.000 A 
ATOM      6  C   UNL     1      -4.853  -2.605 128.488  0.00  0.00    +0.000 A 
ATOM      7  C   UNL     1      -5.814  -2.071 127.624  0.00  0.00    +0.000 A 
ATOM      8  C   UNL     1      -5.331  -1.282 126.481  0.00  0.00    +0.000 C 
ATOM      9  C   UNL     1      -5.884  -1.232 125.255  0.00  0.00    +0.000 C 
ATOM     10  C   UNL     1      -7.106  -1.928 124.801  0.00  0.00    +0.000 A 
ATOM     11  C   UNL     1      -7.237  -2.189 123.431  0.00  0.00    +0.000 A 
ATOM     12  C   UNL     1      -8.381  -2.809 122.929  0.00  0.00    +0.000 A 
ATOM     13  C   UNL     1      -9.430  -3.141 123.781  0.00  0.00    +0.000 A 
ATOM     14  C   UNL     1      -9.363  -2.795 125.128  0.00  0.00    +0.000 A 
ATOM     15  C   UNL     1      -8.219  -2.159 125.642  0.00  0.00    +0.000 A 
ENDROOT
BRANCH   1  16
ATOM     16  C   UNL     1      -8.179  -0.052 127.150  0.00  0.00    +0.000 C 
BRANCH  16  17
ATOM     17  C   UNL     1      -9.225   0.686 126.312  0.00  0.00    +0.000 C 
BRANCH  17  18
ATOM     18  C   UNL     1      -8.618   1.752 125.433  0.00  0.00    +0.000 C 
BRANCH  18  20
ATOM     19  C   UNL     1     -10.039   1.289 123.580  0.00  0.00    +0.000 C 
ATOM     20  N   UNL     1      -9.689   2.272 124.583  0.00  0.00    +0.000 NA
ATOM     21  H   UNL     1     -10.507   2.490 125.157  0.00  0.00    +0.000 HD
ENDBRANCH  18  20
ENDBRANCH  17  18
ENDBRANCH  16  17
ENDBRANCH   1  16
TORSDOF 4
ENDMDL
MODEL 2
REMARK VINA RESULT:      -7.0      1.312      4.822
REMARK  Name = Protriptyline
REMARK  5 active torsions:
REMARK  status: ('A' for Active; 'I' for Inactive)
REMARK    1  A    between atoms: C_1  and  N_2
REMARK    2  A    between atoms: N_2  and  C_3
REMARK    3  A    between atoms: C_3  and  C_4
REMARK    4  A    between atoms: C_4  and  C_5
REMARK    5  A    between atoms: C_5  and  C_6
REMARK                            x       y       z     vdW  Elec       q    Type
REMARK                         _______ _______ _______ _____ _____    ______ ____
ROOT
ATOM      1  C   UNL     1      -6.041  -1.638 127.526  0.00  0.00    +0.000 C 
ATOM      2  C   UNL     1      -6.693  -2.321 126.337  0.00  0.00    +0.000 A 
ATOM      3  C   UNL     1      -6.058  -2.291 125.084  0.00  0.00    +0.000 A 
ATOM      4  C   UNL     1      -6.667  -2.868 123.971  0.00  0.00    +0.000 A 
ATOM      5  C   UNL     1      -7.920  -3.460 124.094  0.00  0.00    +0.000 A 
ATOM      6  C   UNL     1      -8.550  -3.516 125.336  0.00  0.00    +0.000 A 
ATOM      7  C   UNL     1      -7.929  -2.990 126.474  0.00  0.00    +0.000 A 
ATOM      8  C   UNL     1      -8.640  -3.122 127.754  0.00  0.00    +0.000 C 
ATOM      9  C   UNL     1      -8.079  -3.320 128.962  0.00  0.00    +0.000 C 
ATOM     10  C   UNL     1      -6.636  -3.413 129.268  0.00  0.00    +0.000 A 
ATOM     11  C   UNL     1      -6.259  -4.119 130.417  0.00  0.00    +0.000 A 
ATOM     12  C   UNL     1      -4.917  -4.215 130.787  0.00  0.00    +0.000 A 
ATOM     13  C   UNL     1      -3.935  -3.574 130.037  0.00  0.00    +0.000 A 
ATOM     14  C   UNL     1      -4.301  -2.781 128.953  0.00  0.00    +0.000 A 
ATOM     15  C   UNL     1      -5.652  -2.668 128.579  0.00  0.00    +0.000 A 
ENDROOT
BRANCH   1  16
ATOM     16  C   UNL     1      -6.926  -0.470 128.066  0.00  0.00    +0.000 C 
BRANCH  16  17
ATOM     17  C   UNL     1      -7.197   0.643 127.051  0.00  0.00    +0.000 C 
BRANCH  17  18
ATOM     18  C   UNL     1      -8.648   1.059 127.021  0.00  0.00    +0.000 C 
BRANCH  18  20
ATOM     19  C   UNL     1      -8.568   0.471 124.715  0.00  0.00    +0.000 C 
ATOM     20  N   UNL     1      -9.294   0.294 125.955  0.00  0.00    +0.000 NA
ATOM     21  H   UNL     1      -9.315  -0.697 126.207  0.00  0.00    +0.000 HD
ENDBRANCH  18  20
ENDBRANCH  17  18
ENDBRANCH  16  17
ENDBRANCH   1  16
TORSDOF 4
ENDMDL
MODEL 3
REMARK VINA RESULT:      -6.9      2.528      4.857
REMARK  Name = Protriptyline
REMARK  5 active torsions:
REMARK  status: ('A' for Active; 'I' for Inactive)
REMARK    1  A    between atoms: C_1  and  N_2
REMARK    2  A    between atoms: N_2  and  C_3
REMARK    3  A    between atoms: C_3  and  C_4
REMARK    4  A    between atoms: C_4  and  C_5
REMARK    5  A    between atoms: C_5  and  C_6
REMARK                            x       y       z     vdW  Elec       q    Type
REMARK                         _______ _______ _______ _____ _____    ______ ____
ROOT
ATOM      1  C   UNL     1      -7.216   0.794 124.749  0.00  0.00    +0.000 C 
ATOM      2  C   UNL     1      -6.556  -0.482 124.254  0.00  0.00    +0.000 A 
ATOM      3  C   UNL     1      -6.777  -0.910 122.934  0.00  0.00    +0.000 A 
ATOM      4  C   UNL     1      -6.221  -2.104 122.479  0.00  0.00    +0.000 A 
ATOM      5  C   UNL     1      -5.460  -2.889 123.340  0.00  0.00    +0.000 A 
ATOM      6  C   UNL     1      -5.217  -2.464 124.644  0.00  0.00    +0.000 A 
ATOM      7  C   UNL     1      -5.721  -1.241 125.101  0.00  0.00    +0.000 A 
ATOM      8  C   UNL     1      -5.388  -0.845 126.477  0.00  0.00    +0.000 C 
ATOM      9  C   UNL     1      -5.164   0.409 126.913  0.00  0.00    +0.000 C 
ATOM     10  C   UNL     1      -5.236   1.654 126.120  0.00  0.00    +0.000 A 
ATOM     11  C   UNL     1      -4.490   2.754 126.564  0.00  0.00    +0.000 A 
ATOM     12  C   UNL     1      -4.541   3.971 125.884  0.00  0.00    +0.000 A 
ATOM     13  C   UNL     1      -5.368   4.121 124.775  0.00  0.00    +0.000 A 
ATOM     14  C   UNL     1      -6.195   3.072 124.382  0.00  0.00    +0.000 A 
ATOM     15  C   UNL     1      -6.160   1.845 125.067  0.00  0.00    +0.000 A 
ENDROOT
BRANCH   1  16
ATOM     16  C   UNL     1      -8.207   0.503 125.921  0.00  0.00    +0.000 C 
BRANCH  16  17
ATOM     17  C   UNL     1      -9.685   0.654 125.555  0.00  0.00    +0.000 C 
BRANCH  17  18
ATOM     18  C   UNL     1      -9.902   1.602 124.401  0.00  0.00    +0.000 C 
BRANCH  18  20
ATOM     19  C   UNL     1     -10.200   0.355 122.395  0.00  0.00    +0.000 C 
ATOM     20  N   UNL     1     -10.881   0.980 123.509  0.00  0.00    +0.000 NA
ATOM     21  H   UNL     1     -11.418   0.279 124.025  0.00  0.00    +0.000 HD
ENDBRANCH  18  20
ENDBRANCH  17  18
ENDBRANCH  16  17
ENDBRANCH   1  16
TORSDOF 4
ENDMDL
MODEL 4
REMARK VINA RESULT:      -6.8      2.468      5.571
REMARK  Name = Protriptyline
REMARK  5 active torsions:
REMARK  status: ('A' for Active; 'I' for Inactive)
REMARK    1  A    between atoms: C_1  and  N_2
REMARK    2  A    between atoms: N_2  and  C_3
REMARK    3  A    between atoms: C_3  and  C_4
REMARK    4  A    between atoms: C_4  and  C_5
REMARK    5  A    between atoms: C_5  and  C_6
REMARK                            x       y       z     vdW  Elec       q    Type
REMARK                         _______ _______ _______ _____ _____    ______ ____
ROOT
ATOM      1  C   UNL     1      -6.341  -1.539 127.600  0.00  0.00    +0.000 C 
ATOM      2  C   UNL     1      -6.900  -2.239 126.374  0.00  0.00    +0.000 A 
ATOM      3  C   UNL     1      -6.269  -2.069 125.129  0.00  0.00    +0.000 A 
ATOM      4  C   UNL     1      -6.797  -2.663 123.985  0.00  0.00    +0.000 A 
ATOM      5  C   UNL     1      -7.967  -3.413 124.068  0.00  0.00    +0.000 A 
ATOM      6  C   UNL     1      -8.589  -3.607 125.300  0.00  0.00    +0.000 A 
ATOM      7  C   UNL     1      -8.042  -3.063 126.467  0.00  0.00    +0.000 A 
ATOM      8  C   UNL     1      -8.735  -3.345 127.733  0.00  0.00    +0.000 C 
ATOM      9  C   UNL     1      -8.158  -3.529 128.935  0.00  0.00    +0.000 C 
ATOM     10  C   UNL     1      -6.716  -3.457 129.250  0.00  0.00    +0.000 A 
ATOM     11  C   UNL     1      -6.256  -4.165 130.367  0.00  0.00    +0.000 A 
ATOM     12  C   UNL     1      -4.914  -4.111 130.744  0.00  0.00    +0.000 A 
ATOM     13  C   UNL     1      -4.018  -3.316 130.035  0.00  0.00    +0.000 A 
ATOM     14  C   UNL     1      -4.477  -2.524 128.986  0.00  0.00    +0.000 A 
ATOM     15  C   UNL     1      -5.830  -2.562 128.606  0.00  0.00    +0.000 A 
ENDROOT
BRANCH   1  16
ATOM     16  C   UNL     1      -7.367  -0.518 128.187  0.00  0.00    +0.000 C 
BRANCH  16  17
ATOM     17  C   UNL     1      -6.870   0.246 129.417  0.00  0.00    +0.000 C 
BRANCH  17  18
ATOM     18  C   UNL     1      -7.988   0.619 130.360  0.00  0.00    +0.000 C 
BRANCH  18  20
ATOM     19  C   UNL     1      -7.390  -0.991 132.009  0.00  0.00    +0.000 C 
ATOM     20  N   UNL     1      -8.399  -0.606 131.046  0.00  0.00    +0.000 NA
ATOM     21  H   UNL     1      -9.291  -0.451 131.521  0.00  0.00    +0.000 HD
ENDBRANCH  18  20
ENDBRANCH  17  18
ENDBRANCH  16  17
ENDBRANCH   1  16
TORSDOF 4
ENDMDL
MODEL 5
REMARK VINA RESULT:      -6.7      2.537      4.637
REMARK  Name = Protriptyline
REMARK  5 active torsions:
REMARK  status: ('A' for Active; 'I' for Inactive)
REMARK    1  A    between atoms: C_1  and  N_2
REMARK    2  A    between atoms: N_2  and  C_3
REMARK    3  A    between atoms: C_3  and  C_4
REMARK    4  A    between atoms: C_4  and  C_5
REMARK    5  A    between atoms: C_5  and  C_6
REMARK                            x       y       z     vdW  Elec       q    Type
REMARK                         _______ _______ _______ _____ _____    ______ ____
ROOT
ATOM      1  C   UNL     1      -6.224  -0.262 126.002  0.00  0.00    +0.000 C 
ATOM      2  C   UNL     1      -5.780   1.177 125.803  0.00  0.00    +0.000 A 
ATOM      3  C   UNL     1      -4.756   1.705 126.608  0.00  0.00    +0.000 A 
ATOM      4  C   UNL     1      -4.371   3.037 126.475  0.00  0.00    +0.000 A 
ATOM      5  C   UNL     1      -5.017   3.858 125.554  0.00  0.00    +0.000 A 
ATOM      6  C   UNL     1      -6.018   3.340 124.735  0.00  0.00    +0.000 A 
ATOM      7  C   UNL     1      -6.379   1.991 124.818  0.00  0.00    +0.000 A 
ATOM      8  C   UNL     1      -7.417   1.511 123.894  0.00  0.00    +0.000 C 
ATOM      9  C   UNL     1      -7.477   0.292 123.325  0.00  0.00    +0.000 C 
ATOM     10  C   UNL     1      -6.541  -0.832 123.528  0.00  0.00    +0.000 A 
ATOM     11  C   UNL     1      -6.440  -1.789 122.511  0.00  0.00    +0.000 A 
ATOM     12  C   UNL     1      -5.604  -2.897 122.653  0.00  0.00    +0.000 A 
ATOM     13  C   UNL     1      -4.885  -3.086 123.830  0.00  0.00    +0.000 A 
ATOM     14  C   UNL     1      -5.052  -2.202 124.893  0.00  0.00    +0.000 A 
ATOM     15  C   UNL     1      -5.902  -1.090 124.764  0.00  0.00    +0.000 A 
ENDROOT
BRANCH   1  16
ATOM     16  C   UNL     1      -7.717  -0.338 126.455  0.00  0.00    +0.000 C 
BRANCH  16  17
ATOM     17  C   UNL     1      -8.240  -1.758 126.683  0.00  0.00    +0.000 C 
BRANCH  17  18
ATOM     18  C   UNL     1      -9.326  -2.141 125.707  0.00  0.00    +0.000 C 
BRANCH  18  20
ATOM     19  C   UNL     1      -9.480  -3.287 123.626  0.00  0.00    +0.000 C 
ATOM     20  N   UNL     1      -8.819  -3.260 124.913  0.00  0.00    +0.000 NA
ATOM     21  H   UNL     1      -7.809  -3.159 124.784  0.00  0.00    +0.000 HD
ENDBRANCH  18  20
ENDBRANCH  17  18
ENDBRANCH  16  17
ENDBRANCH   1  16
TORSDOF 4
ENDMDL
MODEL 6
REMARK VINA RESULT:      -6.5      2.399      3.211
REMARK  Name = Protriptyline
REMARK  5 active torsions:
REMARK  status: ('A' for Active; 'I' for Inactive)
REMARK    1  A    between atoms: C_1  and  N_2
REMARK    2  A    between atoms: N_2  and  C_3
REMARK    3  A    between atoms: C_3  and  C_4
REMARK    4  A    between atoms: C_4  and  C_5
REMARK    5  A    between atoms: C_5  and  C_6
REMARK                            x       y       z     vdW  Elec       q    Type
REMARK                         _______ _______ _______ _____ _____    ______ ____
ROOT
ATOM      1  C   UNL     1      -7.917  -2.045 127.996  0.00  0.00    +0.000 C 
ATOM      2  C   UNL     1      -6.792  -2.771 128.714  0.00  0.00    +0.000 A 
ATOM      3  C   UNL     1      -7.092  -3.628 129.786  0.00  0.00    +0.000 A 
ATOM      4  C   UNL     1      -6.070  -4.262 130.489  0.00  0.00    +0.000 A 
ATOM      5  C   UNL     1      -4.741  -4.031 130.142  0.00  0.00    +0.000 A 
ATOM      6  C   UNL     1      -4.433  -3.201 129.066  0.00  0.00    +0.000 A 
ATOM      7  C   UNL     1      -5.449  -2.599 128.316  0.00  0.00    +0.000 A 
ATOM      8  C   UNL     1      -5.043  -1.769 127.173  0.00  0.00    +0.000 C 
ATOM      9  C   UNL     1      -5.700  -1.645 126.004  0.00  0.00    +0.000 C 
ATOM     10  C   UNL     1      -6.978  -2.285 125.629  0.00  0.00    +0.000 A 
ATOM     11  C   UNL     1      -7.236  -2.476 124.266  0.00  0.00    +0.000 A 
ATOM     12  C   UNL     1      -8.439  -3.039 123.839  0.00  0.00    +0.000 A 
ATOM     13  C   UNL     1      -9.419  -3.384 124.765  0.00  0.00    +0.000 A 
ATOM     14  C   UNL     1      -9.224  -3.105 126.115  0.00  0.00    +0.000 A 
ATOM     15  C   UNL     1      -8.020  -2.526 126.554  0.00  0.00    +0.000 A 
ENDROOT
BRANCH   1  16
ATOM     16  C   UNL     1      -7.782  -0.496 128.148  0.00  0.00    +0.000 C 
BRANCH  16  17
ATOM     17  C   UNL     1      -7.864   0.009 129.591  0.00  0.00    +0.000 C 
BRANCH  17  18
ATOM     18  C   UNL     1      -6.599   0.699 130.037  0.00  0.00    +0.000 C 
BRANCH  18  20
ATOM     19  C   UNL     1      -5.427  -0.646 131.614  0.00  0.00    +0.000 C 
ATOM     20  N   UNL     1      -6.420   0.395 131.457  0.00  0.00    +0.000 NA
ATOM     21  H   UNL     1      -6.121   1.238 131.953  0.00  0.00    +0.000 HD
ENDBRANCH  18  20
ENDBRANCH  17  18
ENDBRANCH  16  17
ENDBRANCH   1  16
TORSDOF 4
ENDMDL
MODEL 7
REMARK VINA RESULT:      -6.4      7.749      8.927
REMARK  Name = Protriptyline
REMARK  5 active torsions:
REMARK  status: ('A' for Active; 'I' for Inactive)
REMARK    1  A    between atoms: C_1  and  N_2
REMARK    2  A    between atoms: N_2  and  C_3
REMARK    3  A    between atoms: C_3  and  C_4
REMARK    4  A    between atoms: C_4  and  C_5
REMARK    5  A    between atoms: C_5  and  C_6
REMARK                            x       y       z     vdW  Elec       q    Type
REMARK                         _______ _______ _______ _____ _____    ______ ____
ROOT
ATOM      1  C   UNL     1      -4.159   4.822 130.278  0.00  0.00    +0.000 C 
ATOM      2  C   UNL     1      -2.959   5.199 131.129  0.00  0.00    +0.000 A 
ATOM      3  C   UNL     1      -2.813   4.641 132.410  0.00  0.00    +0.000 A 
ATOM      4  C   UNL     1      -1.746   5.015 133.224  0.00  0.00    +0.000 A 
ATOM      5  C   UNL     1      -0.828   5.961 132.776  0.00  0.00    +0.000 A 
ATOM      6  C   UNL     1      -0.950   6.504 131.499  0.00  0.00    +0.000 A 
ATOM      7  C   UNL     1      -1.984   6.100 130.648  0.00  0.00    +0.000 A 
ATOM      8  C   UNL     1      -2.021   6.690 129.302  0.00  0.00    +0.000 C 
ATOM      9  C   UNL     1      -2.416   6.075 128.171  0.00  0.00    +0.000 C 
ATOM     10  C   UNL     1      -2.925   4.694 128.041  0.00  0.00    +0.000 A 
ATOM     11  C   UNL     1      -2.788   4.063 126.798  0.00  0.00    +0.000 A 
ATOM     12  C   UNL     1      -3.280   2.774 126.594  0.00  0.00    +0.000 A 
ATOM     13  C   UNL     1      -3.952   2.109 127.617  0.00  0.00    +0.000 A 
ATOM     14  C   UNL     1      -4.190   2.760 128.824  0.00  0.00    +0.000 A 
ATOM     15  C   UNL     1      -3.709   4.064 129.036  0.00  0.00    +0.000 A 
ENDROOT
BRANCH   1  16
ATOM     16  C   UNL     1      -5.058   6.065 129.981  0.00  0.00    +0.000 C 
BRANCH  16  17
ATOM     17  C   UNL     1      -5.541   6.811 131.227  0.00  0.00    +0.000 C 
BRANCH  17  18
ATOM     18  C   UNL     1      -7.006   6.581 131.509  0.00  0.00    +0.000 C 
BRANCH  18  20
ATOM     19  C   UNL     1      -9.165   6.970 130.585  0.00  0.00    +0.000 C 
ATOM     20  N   UNL     1      -7.760   7.303 130.485  0.00  0.00    +0.000 NA
ATOM     21  H   UNL     1      -7.632   8.310 130.609  0.00  0.00    +0.000 HD
ENDBRANCH  18  20
ENDBRANCH  17  18
ENDBRANCH  16  17
ENDBRANCH   1  16
TORSDOF 4
ENDMDL
MODEL 8
REMARK VINA RESULT:      -6.4      2.612      5.012
REMARK  Name = Protriptyline
REMARK  5 active torsions:
REMARK  status: ('A' for Active; 'I' for Inactive)
REMARK    1  A    between atoms: C_1  and  N_2
REMARK    2  A    between atoms: N_2  and  C_3
REMARK    3  A    between atoms: C_3  and  C_4
REMARK    4  A    between atoms: C_4  and  C_5
REMARK    5  A    between atoms: C_5  and  C_6
REMARK                            x       y       z     vdW  Elec       q    Type
REMARK                         _______ _______ _______ _____ _____    ______ ____
ROOT
ATOM      1  C   UNL     1      -7.276   0.481 124.586  0.00  0.00    +0.000 C 
ATOM      2  C   UNL     1      -6.516  -0.741 124.096  0.00  0.00    +0.000 A 
ATOM      3  C   UNL     1      -6.672  -1.168 122.767  0.00  0.00    +0.000 A 
ATOM      4  C   UNL     1      -6.023  -2.315 122.315  0.00  0.00    +0.000 A 
ATOM      5  C   UNL     1      -5.232  -3.056 123.189  0.00  0.00    +0.000 A 
ATOM      6  C   UNL     1      -5.053  -2.629 124.504  0.00  0.00    +0.000 A 
ATOM      7  C   UNL     1      -5.653  -1.450 124.958  0.00  0.00    +0.000 A 
ATOM      8  C   UNL     1      -5.384  -1.047 126.346  0.00  0.00    +0.000 C 
ATOM      9  C   UNL     1      -5.260   0.214 126.801  0.00  0.00    +0.000 C 
ATOM     10  C   UNL     1      -5.397   1.460 126.019  0.00  0.00    +0.000 A 
ATOM     11  C   UNL     1      -4.742   2.603 126.493  0.00  0.00    +0.000 A 
ATOM     12  C   UNL     1      -4.859   3.822 125.824  0.00  0.00    +0.000 A 
ATOM     13  C   UNL     1      -5.665   3.927 124.694  0.00  0.00    +0.000 A 
ATOM     14  C   UNL     1      -6.407   2.828 124.269  0.00  0.00    +0.000 A 
ATOM     15  C   UNL     1      -6.305   1.598 124.943  0.00  0.00    +0.000 A 
ENDROOT
BRANCH   1  16
ATOM     16  C   UNL     1      -8.275   0.108 125.728  0.00  0.00    +0.000 C 
BRANCH  16  17
ATOM     17  C   UNL     1      -9.046   1.295 126.308  0.00  0.00    +0.000 C 
BRANCH  17  18
ATOM     18  C   UNL     1      -8.661   1.595 127.736  0.00  0.00    +0.000 C 
BRANCH  18  20
ATOM     19  C   UNL     1      -7.449   3.300 128.873  0.00  0.00    +0.000 C 
ATOM     20  N   UNL     1      -8.407   3.033 127.821  0.00  0.00    +0.000 NA
ATOM     21  H   UNL     1      -8.044   3.371 126.927  0.00  0.00    +0.000 HD
ENDBRANCH  18  20
ENDBRANCH  17  18
ENDBRANCH  16  17
ENDBRANCH   1  16
TORSDOF 4
ENDMDL
MODEL 9
REMARK VINA RESULT:      -6.3      7.266     10.259
REMARK  Name = Protriptyline
REMARK  5 active torsions:
REMARK  status: ('A' for Active; 'I' for Inactive)
REMARK    1  A    between atoms: C_1  and  N_2
REMARK    2  A    between atoms: N_2  and  C_3
REMARK    3  A    between atoms: C_3  and  C_4
REMARK    4  A    between atoms: C_4  and  C_5
REMARK    5  A    between atoms: C_5  and  C_6
REMARK                            x       y       z     vdW  Elec       q    Type
REMARK                         _______ _______ _______ _____ _____    ______ ____
ROOT
ATOM      1  C   UNL     1      -8.974   6.490 129.807  0.00  0.00    +0.000 C 
ATOM      2  C   UNL     1     -10.306   7.173 129.547  0.00  0.00    +0.000 A 
ATOM      3  C   UNL     1     -10.520   7.835 128.326  0.00  0.00    +0.000 A 
ATOM      4  C   UNL     1     -11.716   8.510 128.091  0.00  0.00    +0.000 A 
ATOM      5  C   UNL     1     -12.698   8.548 129.078  0.00  0.00    +0.000 A 
ATOM      6  C   UNL     1     -12.505   7.878 130.284  0.00  0.00    +0.000 A 
ATOM      7  C   UNL     1     -11.333   7.150 130.515  0.00  0.00    +0.000 A 
ATOM      8  C   UNL     1     -11.222   6.438 131.796  0.00  0.00    +0.000 C 
ATOM      9  C   UNL     1     -10.617   5.252 132.000  0.00  0.00    +0.000 C 
ATOM     10  C   UNL     1      -9.910   4.429 130.997  0.00  0.00    +0.000 A 
ATOM     11  C   UNL     1      -9.813   3.052 131.234  0.00  0.00    +0.000 A 
ATOM     12  C   UNL     1      -9.128   2.222 130.348  0.00  0.00    +0.000 A 
ATOM     13  C   UNL     1      -8.494   2.759 129.231  0.00  0.00    +0.000 A 
ATOM     14  C   UNL     1      -8.490   4.138 129.035  0.00  0.00    +0.000 A 
ATOM     15  C   UNL     1      -9.168   4.985 129.929  0.00  0.00    +0.000 A 
ENDROOT
BRANCH   1  16
ATOM     16  C   UNL     1      -8.228   7.142 131.015  0.00  0.00    +0.000 C 
BRANCH  16  17
ATOM     17  C   UNL     1      -6.762   6.726 131.155  0.00  0.00    +0.000 C 
BRANCH  17  18
ATOM     18  C   UNL     1      -6.503   5.926 132.408  0.00  0.00    +0.000 C 
BRANCH  18  20
ATOM     19  C   UNL     1      -4.406   6.808 131.706  0.00  0.00    +0.000 C 
ATOM     20  N   UNL     1      -5.112   6.166 132.794  0.00  0.00    +0.000 NA
ATOM     21  H   UNL     1      -5.084   6.760 133.625  0.00  0.00    +0.000 HD
ENDBRANCH  18  20
ENDBRANCH  17  18
ENDBRANCH  16  17
ENDBRANCH   1  16
TORSDOF 4
ENDMDL
