MODEL 1
REMARK VINA RESULT:      -7.1      0.000      0.000
REMARK  Name = Protokylol
REMARK  10 active torsions:
REMARK  status: ('A' for Active; 'I' for Inactive)
REMARK    1  A    between atoms: C_1  and  C_2
REMARK    2  A    between atoms: C_2  and  C_3
REMARK    3  A    between atoms: C_2  and  N_13
REMARK    4  A    between atoms: C_3  and  C_4
REMARK    5  A    between atoms: N_13  and  C_14
REMARK    6  A    between atoms: C_14  and  C_15
REMARK    7  A    between atoms: C_15  and  O_16
REMARK    8  A    between atoms: C_15  and  C_17
REMARK    9  A    between atoms: C_20  and  O_21
REMARK   10  A    between atoms: C_22  and  O_23
REMARK                            x       y       z     vdW  Elec       q    Type
REMARK                         _______ _______ _______ _____ _____    ______ ____
ROOT
ATOM      1  N   UNL     1      -5.885   3.208 126.109  0.00  0.00    +0.000 NA
ATOM      2  H   UNL     1      -5.641   3.876 126.844  0.00  0.00    +0.000 HD
ENDROOT
BRANCH   1   4
ATOM      3  C   UNL     1      -3.596   2.683 126.656  0.00  0.00    +0.000 C 
ATOM      4  C   UNL     1      -4.884   2.132 126.031  0.00  0.00    +0.000 C 
BRANCH   4   5
ATOM      5  C   UNL     1      -5.385   0.854 126.751  0.00  0.00    +0.000 C 
BRANCH   5   6
ATOM      6  C   UNL     1      -6.509   0.151 126.035  0.00  0.00    +0.000 A 
ATOM      7  C   UNL     1      -7.813   0.196 126.571  0.00  0.00    +0.000 A 
ATOM      8  C   UNL     1      -8.858  -0.510 125.982  0.00  0.00    +0.000 A 
ATOM      9  C   UNL     1      -8.578  -1.190 124.819  0.00  0.00    +0.000 A 
ATOM     10  O   UNL     1      -9.480  -1.894 124.085  0.00  0.00    +0.000 OA
ATOM     11  C   UNL     1      -8.666  -2.261 122.954  0.00  0.00    +0.000 C 
ATOM     12  O   UNL     1      -7.273  -1.927 123.112  0.00  0.00    +0.000 OA
ATOM     13  C   UNL     1      -7.321  -1.211 124.267  0.00  0.00    +0.000 A 
ATOM     14  C   UNL     1      -6.255  -0.564 124.856  0.00  0.00    +0.000 A 
ENDBRANCH   5   6
ENDBRANCH   4   5
ENDBRANCH   1   4
BRANCH   1  15
ATOM     15  C   UNL     1      -6.047   3.930 124.843  0.00  0.00    +0.000 C 
BRANCH  15  16
ATOM     16  C   UNL     1      -6.381   2.974 123.681  0.00  0.00    +0.000 C 
BRANCH  16  17
ATOM     17  C   UNL     1      -6.094   3.662 122.362  0.00  0.00    +0.000 A 
ATOM     18  C   UNL     1      -6.873   3.431 121.214  0.00  0.00    +0.000 A 
ATOM     19  C   UNL     1      -6.601   4.098 120.017  0.00  0.00    +0.000 A 
ATOM     20  C   UNL     1      -5.561   5.018 119.972  0.00  0.00    +0.000 A 
ATOM     21  C   UNL     1      -4.807   5.281 121.111  0.00  0.00    +0.000 A 
ATOM     22  C   UNL     1      -5.063   4.615 122.300  0.00  0.00    +0.000 A 
BRANCH  20  23
ATOM     23  O   UNL     1      -5.248   5.691 118.823  0.00  0.00    +0.000 OA
ATOM     24  H   UNL     1      -4.936   6.578 119.072  0.00  0.00    +0.000 HD
ENDBRANCH  20  23
BRANCH  21  25
ATOM     25  O   UNL     1      -3.800   6.202 121.077  0.00  0.00    +0.000 OA
ATOM     26  H   UNL     1      -3.344   6.106 121.936  0.00  0.00    +0.000 HD
ENDBRANCH  21  25
ENDBRANCH  16  17
BRANCH  16  27
ATOM     27  O   UNL     1      -7.742   2.543 123.756  0.00  0.00    +0.000 OA
ATOM     28  H   UNL     1      -8.128   2.944 124.549  0.00  0.00    +0.000 HD
ENDBRANCH  16  27
ENDBRANCH  15  16
ENDBRANCH   1  15
TORSDOF 9
ENDMDL
MODEL 2
REMARK VINA RESULT:      -7.0      8.339      9.513
REMARK  Name = Protokylol
REMARK  10 active torsions:
REMARK  status: ('A' for Active; 'I' for Inactive)
REMARK    1  A    between atoms: C_1  and  C_2
REMARK    2  A    between atoms: C_2  and  C_3
REMARK    3  A    between atoms: C_2  and  N_13
REMARK    4  A    between atoms: C_3  and  C_4
REMARK    5  A    between atoms: N_13  and  C_14
REMARK    6  A    between atoms: C_14  and  C_15
REMARK    7  A    between atoms: C_15  and  O_16
REMARK    8  A    between atoms: C_15  and  C_17
REMARK    9  A    between atoms: C_20  and  O_21
REMARK   10  A    between atoms: C_22  and  O_23
REMARK                            x       y       z     vdW  Elec       q    Type
REMARK                         _______ _______ _______ _____ _____    ______ ____
ROOT
ATOM      1  N   UNL     1      -8.927   6.163 132.915  0.00  0.00    +0.000 NA
ATOM      2  H   UNL     1      -8.427   6.406 132.057  0.00  0.00    +0.000 HD
ENDROOT
BRANCH   1   4
ATOM      3  C   UNL     1      -7.744   5.628 134.948  0.00  0.00    +0.000 C 
ATOM      4  C   UNL     1      -8.251   5.060 133.615  0.00  0.00    +0.000 C 
BRANCH   4   5
ATOM      5  C   UNL     1      -9.212   3.860 133.818  0.00  0.00    +0.000 C 
BRANCH   5   6
ATOM      6  C   UNL     1      -8.744   2.587 133.161  0.00  0.00    +0.000 A 
ATOM      7  C   UNL     1      -9.638   1.848 132.359  0.00  0.00    +0.000 A 
ATOM      8  C   UNL     1      -9.267   0.626 131.806  0.00  0.00    +0.000 A 
ATOM      9  C   UNL     1      -7.972   0.211 132.014  0.00  0.00    +0.000 A 
ATOM     10  O   UNL     1      -7.423  -0.928 131.514  0.00  0.00    +0.000 OA
ATOM     11  C   UNL     1      -6.056  -0.768 131.942  0.00  0.00    +0.000 C 
ATOM     12  O   UNL     1      -5.855   0.355 132.824  0.00  0.00    +0.000 OA
ATOM     13  C   UNL     1      -7.080   0.940 132.761  0.00  0.00    +0.000 A 
ATOM     14  C   UNL     1      -7.435   2.128 133.365  0.00  0.00    +0.000 A 
ENDBRANCH   5   6
ENDBRANCH   4   5
ENDBRANCH   1   4
BRANCH   1  15
ATOM     15  C   UNL     1     -10.323   5.859 132.584  0.00  0.00    +0.000 C 
BRANCH  15  16
ATOM     16  C   UNL     1     -10.505   5.594 131.077  0.00  0.00    +0.000 C 
BRANCH  16  17
ATOM     17  C   UNL     1     -11.237   6.759 130.443  0.00  0.00    +0.000 A 
ATOM     18  C   UNL     1     -12.337   7.378 131.064  0.00  0.00    +0.000 A 
ATOM     19  C   UNL     1     -12.978   8.467 130.468  0.00  0.00    +0.000 A 
ATOM     20  C   UNL     1     -12.503   8.957 129.258  0.00  0.00    +0.000 A 
ATOM     21  C   UNL     1     -11.394   8.375 128.652  0.00  0.00    +0.000 A 
ATOM     22  C   UNL     1     -10.759   7.287 129.232  0.00  0.00    +0.000 A 
BRANCH  20  23
ATOM     23  O   UNL     1     -13.099  10.014 128.629  0.00  0.00    +0.000 OA
ATOM     24  H   UNL     1     -14.058   9.851 128.614  0.00  0.00    +0.000 HD
ENDBRANCH  20  23
BRANCH  21  25
ATOM     25  O   UNL     1     -10.909   8.869 127.475  0.00  0.00    +0.000 OA
ATOM     26  H   UNL     1     -11.599   8.662 126.814  0.00  0.00    +0.000 HD
ENDBRANCH  21  25
ENDBRANCH  16  17
BRANCH  16  27
ATOM     27  O   UNL     1     -11.204   4.365 130.861  0.00  0.00    +0.000 OA
ATOM     28  H   UNL     1     -11.998   4.383 131.417  0.00  0.00    +0.000 HD
ENDBRANCH  16  27
ENDBRANCH  15  16
ENDBRANCH   1  15
TORSDOF 9
ENDMDL
MODEL 3
REMARK VINA RESULT:      -7.0      2.117      2.874
REMARK  Name = Protokylol
REMARK  10 active torsions:
REMARK  status: ('A' for Active; 'I' for Inactive)
REMARK    1  A    between atoms: C_1  and  C_2
REMARK    2  A    between atoms: C_2  and  C_3
REMARK    3  A    between atoms: C_2  and  N_13
REMARK    4  A    between atoms: C_3  and  C_4
REMARK    5  A    between atoms: N_13  and  C_14
REMARK    6  A    between atoms: C_14  and  C_15
REMARK    7  A    between atoms: C_15  and  O_16
REMARK    8  A    between atoms: C_15  and  C_17
REMARK    9  A    between atoms: C_20  and  O_21
REMARK   10  A    between atoms: C_22  and  O_23
REMARK                            x       y       z     vdW  Elec       q    Type
REMARK                         _______ _______ _______ _____ _____    ______ ____
ROOT
ATOM      1  N   UNL     1      -9.088   2.597 124.334  0.00  0.00    +0.000 NA
ATOM      2  H   UNL     1      -8.284   2.554 124.965  0.00  0.00    +0.000 HD
ENDROOT
BRANCH   1   4
ATOM      3  C   UNL     1      -9.991   0.665 123.207  0.00  0.00    +0.000 C 
ATOM      4  C   UNL     1      -9.969   1.436 124.534  0.00  0.00    +0.000 C 
BRANCH   4   5
ATOM      5  C   UNL     1      -9.473   0.560 125.713  0.00  0.00    +0.000 C 
BRANCH   5   6
ATOM      6  C   UNL     1      -8.686  -0.651 125.284  0.00  0.00    +0.000 A 
ATOM      7  C   UNL     1      -9.339  -1.893 125.144  0.00  0.00    +0.000 A 
ATOM      8  C   UNL     1      -8.629  -3.048 124.831  0.00  0.00    +0.000 A 
ATOM      9  C   UNL     1      -7.280  -2.911 124.593  0.00  0.00    +0.000 A 
ATOM     10  O   UNL     1      -6.440  -3.917 124.233  0.00  0.00    +0.000 OA
ATOM     11  C   UNL     1      -5.226  -3.174 124.006  0.00  0.00    +0.000 C 
ATOM     12  O   UNL     1      -5.315  -1.789 124.398  0.00  0.00    +0.000 OA
ATOM     13  C   UNL     1      -6.640  -1.700 124.689  0.00  0.00    +0.000 A 
ATOM     14  C   UNL     1      -7.307  -0.548 125.049  0.00  0.00    +0.000 A 
ENDBRANCH   5   6
ENDBRANCH   4   5
ENDBRANCH   1   4
BRANCH   1  15
ATOM     15  C   UNL     1      -8.604   2.714 122.954  0.00  0.00    +0.000 C 
BRANCH  15  16
ATOM     16  C   UNL     1      -7.064   2.710 122.889  0.00  0.00    +0.000 C 
BRANCH  16  17
ATOM     17  C   UNL     1      -6.605   3.564 121.724  0.00  0.00    +0.000 A 
ATOM     18  C   UNL     1      -7.312   3.611 120.509  0.00  0.00    +0.000 A 
ATOM     19  C   UNL     1      -6.879   4.425 119.459  0.00  0.00    +0.000 A 
ATOM     20  C   UNL     1      -5.749   5.215 119.631  0.00  0.00    +0.000 A 
ATOM     21  C   UNL     1      -5.063   5.203 120.841  0.00  0.00    +0.000 A 
ATOM     22  C   UNL     1      -5.479   4.389 121.884  0.00  0.00    +0.000 A 
BRANCH  20  23
ATOM     23  O   UNL     1      -5.279   6.022 118.633  0.00  0.00    +0.000 OA
ATOM     24  H   UNL     1      -4.348   5.789 118.474  0.00  0.00    +0.000 HD
ENDBRANCH  20  23
BRANCH  21  25
ATOM     25  O   UNL     1      -3.967   5.996 121.024  0.00  0.00    +0.000 OA
ATOM     26  H   UNL     1      -3.246   5.377 121.254  0.00  0.00    +0.000 HD
ENDBRANCH  21  25
ENDBRANCH  16  17
BRANCH  16  27
ATOM     27  O   UNL     1      -6.566   1.374 122.780  0.00  0.00    +0.000 OA
ATOM     28  H   UNL     1      -5.988   1.345 122.003  0.00  0.00    +0.000 HD
ENDBRANCH  16  27
ENDBRANCH  15  16
ENDBRANCH   1  15
TORSDOF 9
ENDMDL
MODEL 4
REMARK VINA RESULT:      -6.9      2.009      6.807
REMARK  Name = Protokylol
REMARK  10 active torsions:
REMARK  status: ('A' for Active; 'I' for Inactive)
REMARK    1  A    between atoms: C_1  and  C_2
REMARK    2  A    between atoms: C_2  and  C_3
REMARK    3  A    between atoms: C_2  and  N_13
REMARK    4  A    between atoms: C_3  and  C_4
REMARK    5  A    between atoms: N_13  and  C_14
REMARK    6  A    between atoms: C_14  and  C_15
REMARK    7  A    between atoms: C_15  and  O_16
REMARK    8  A    between atoms: C_15  and  C_17
REMARK    9  A    between atoms: C_20  and  O_21
REMARK   10  A    between atoms: C_22  and  O_23
REMARK                            x       y       z     vdW  Elec       q    Type
REMARK                         _______ _______ _______ _____ _____    ______ ____
ROOT
ATOM      1  N   UNL     1      -9.174   2.533 125.224  0.00  0.00    +0.000 NA
ATOM      2  H   UNL     1      -9.747   2.336 124.400  0.00  0.00    +0.000 HD
ENDROOT
BRANCH   1   4
ATOM      3  C   UNL     1      -7.100   3.376 126.119  0.00  0.00    +0.000 C 
ATOM      4  C   UNL     1      -7.943   3.243 124.844  0.00  0.00    +0.000 C 
BRANCH   4   5
ATOM      5  C   UNL     1      -7.190   2.486 123.720  0.00  0.00    +0.000 C 
BRANCH   5   6
ATOM      6  C   UNL     1      -7.263   3.161 122.375  0.00  0.00    +0.000 A 
ATOM      7  C   UNL     1      -8.498   3.239 121.700  0.00  0.00    +0.000 A 
ATOM      8  C   UNL     1      -8.587   3.781 120.421  0.00  0.00    +0.000 A 
ATOM      9  C   UNL     1      -7.434   4.301 119.879  0.00  0.00    +0.000 A 
ATOM     10  O   UNL     1      -7.342   4.907 118.665  0.00  0.00    +0.000 OA
ATOM     11  C   UNL     1      -5.969   5.346 118.697  0.00  0.00    +0.000 C 
ATOM     12  O   UNL     1      -5.230   4.849 119.832  0.00  0.00    +0.000 OA
ATOM     13  C   UNL     1      -6.233   4.266 120.541  0.00  0.00    +0.000 A 
ATOM     14  C   UNL     1      -6.104   3.688 121.787  0.00  0.00    +0.000 A 
ENDBRANCH   5   6
ENDBRANCH   4   5
ENDBRANCH   1   4
BRANCH   1  15
ATOM     15  C   UNL     1      -8.913   1.277 125.934  0.00  0.00    +0.000 C 
BRANCH  15  16
ATOM     16  C   UNL     1      -9.671   0.095 125.298  0.00  0.00    +0.000 C 
BRANCH  16  17
ATOM     17  C   UNL     1      -8.699  -1.027 124.999  0.00  0.00    +0.000 A 
ATOM     18  C   UNL     1      -9.131  -2.301 124.589  0.00  0.00    +0.000 A 
ATOM     19  C   UNL     1      -8.211  -3.312 124.297  0.00  0.00    +0.000 A 
ATOM     20  C   UNL     1      -6.852  -3.042 124.392  0.00  0.00    +0.000 A 
ATOM     21  C   UNL     1      -6.412  -1.775 124.762  0.00  0.00    +0.000 A 
ATOM     22  C   UNL     1      -7.319  -0.770 125.065  0.00  0.00    +0.000 A 
BRANCH  20  23
ATOM     23  O   UNL     1      -5.911  -3.997 124.125  0.00  0.00    +0.000 OA
ATOM     24  H   UNL     1      -5.968  -4.675 124.821  0.00  0.00    +0.000 HD
ENDBRANCH  20  23
BRANCH  21  25
ATOM     25  O   UNL     1      -5.076  -1.498 124.832  0.00  0.00    +0.000 OA
ATOM     26  H   UNL     1      -4.636  -2.363 124.716  0.00  0.00    +0.000 HD
ENDBRANCH  21  25
ENDBRANCH  16  17
BRANCH  16  27
ATOM     27  O   UNL     1     -10.359   0.513 124.116  0.00  0.00    +0.000 OA
ATOM     28  H   UNL     1      -9.913   1.309 123.789  0.00  0.00    +0.000 HD
ENDBRANCH  16  27
ENDBRANCH  15  16
ENDBRANCH   1  15
TORSDOF 9
ENDMDL
MODEL 5
REMARK VINA RESULT:      -6.9      3.714      5.352
REMARK  Name = Protokylol
REMARK  10 active torsions:
REMARK  status: ('A' for Active; 'I' for Inactive)
REMARK    1  A    between atoms: C_1  and  C_2
REMARK    2  A    between atoms: C_2  and  C_3
REMARK    3  A    between atoms: C_2  and  N_13
REMARK    4  A    between atoms: C_3  and  C_4
REMARK    5  A    between atoms: N_13  and  C_14
REMARK    6  A    between atoms: C_14  and  C_15
REMARK    7  A    between atoms: C_15  and  O_16
REMARK    8  A    between atoms: C_15  and  C_17
REMARK    9  A    between atoms: C_20  and  O_21
REMARK   10  A    between atoms: C_22  and  O_23
REMARK                            x       y       z     vdW  Elec       q    Type
REMARK                         _______ _______ _______ _____ _____    ______ ____
ROOT
ATOM      1  N   UNL     1      -7.487  -1.515 129.617  0.00  0.00    +0.000 NA
ATOM      2  H   UNL     1      -7.137  -1.594 130.574  0.00  0.00    +0.000 HD
ENDROOT
BRANCH   1   4
ATOM      3  C   UNL     1      -6.779  -3.806 129.872  0.00  0.00    +0.000 C 
ATOM      4  C   UNL     1      -7.188  -2.735 128.852  0.00  0.00    +0.000 C 
BRANCH   4   5
ATOM      5  C   UNL     1      -8.410  -3.171 128.003  0.00  0.00    +0.000 C 
BRANCH   5   6
ATOM      6  C   UNL     1      -8.271  -2.868 126.534  0.00  0.00    +0.000 A 
ATOM      7  C   UNL     1      -9.399  -2.963 125.693  0.00  0.00    +0.000 A 
ATOM      8  C   UNL     1      -9.291  -2.772 124.318  0.00  0.00    +0.000 A 
ATOM      9  C   UNL     1      -8.055  -2.414 123.830  0.00  0.00    +0.000 A 
ATOM     10  O   UNL     1      -7.774  -2.144 122.528  0.00  0.00    +0.000 OA
ATOM     11  C   UNL     1      -6.401  -1.718 122.641  0.00  0.00    +0.000 C 
ATOM     12  O   UNL     1      -5.845  -1.906 123.958  0.00  0.00    +0.000 OA
ATOM     13  C   UNL     1      -6.957  -2.281 124.643  0.00  0.00    +0.000 A 
ATOM     14  C   UNL     1      -7.023  -2.516 126.001  0.00  0.00    +0.000 A 
ENDBRANCH   5   6
ENDBRANCH   4   5
ENDBRANCH   1   4
BRANCH   1  15
ATOM     15  C   UNL     1      -6.928  -0.306 129.004  0.00  0.00    +0.000 C 
BRANCH  15  16
ATOM     16  C   UNL     1      -8.031   0.699 128.617  0.00  0.00    +0.000 C 
BRANCH  16  17
ATOM     17  C   UNL     1      -8.011   0.919 127.118  0.00  0.00    +0.000 A 
ATOM     18  C   UNL     1      -6.824   1.201 126.420  0.00  0.00    +0.000 A 
ATOM     19  C   UNL     1      -6.830   1.376 125.034  0.00  0.00    +0.000 A 
ATOM     20  C   UNL     1      -8.025   1.246 124.338  0.00  0.00    +0.000 A 
ATOM     21  C   UNL     1      -9.200   0.932 125.013  0.00  0.00    +0.000 A 
ATOM     22  C   UNL     1      -9.204   0.768 126.391  0.00  0.00    +0.000 A 
BRANCH  20  23
ATOM     23  O   UNL     1      -8.088   1.416 122.983  0.00  0.00    +0.000 OA
ATOM     24  H   UNL     1      -8.798   2.054 122.794  0.00  0.00    +0.000 HD
ENDBRANCH  20  23
BRANCH  21  25
ATOM     25  O   UNL     1     -10.373   0.779 124.330  0.00  0.00    +0.000 OA
ATOM     26  H   UNL     1     -10.521   1.641 123.892  0.00  0.00    +0.000 HD
ENDBRANCH  21  25
ENDBRANCH  16  17
BRANCH  16  27
ATOM     27  O   UNL     1      -7.864   1.930 129.324  0.00  0.00    +0.000 OA
ATOM     28  H   UNL     1      -8.733   2.357 129.369  0.00  0.00    +0.000 HD
ENDBRANCH  16  27
ENDBRANCH  15  16
ENDBRANCH   1  15
TORSDOF 9
ENDMDL
MODEL 6
REMARK VINA RESULT:      -6.8      3.575      5.622
REMARK  Name = Protokylol
REMARK  10 active torsions:
REMARK  status: ('A' for Active; 'I' for Inactive)
REMARK    1  A    between atoms: C_1  and  C_2
REMARK    2  A    between atoms: C_2  and  C_3
REMARK    3  A    between atoms: C_2  and  N_13
REMARK    4  A    between atoms: C_3  and  C_4
REMARK    5  A    between atoms: N_13  and  C_14
REMARK    6  A    between atoms: C_14  and  C_15
REMARK    7  A    between atoms: C_15  and  O_16
REMARK    8  A    between atoms: C_15  and  C_17
REMARK    9  A    between atoms: C_20  and  O_21
REMARK   10  A    between atoms: C_22  and  O_23
REMARK                            x       y       z     vdW  Elec       q    Type
REMARK                         _______ _______ _______ _____ _____    ______ ____
ROOT
ATOM      1  N   UNL     1      -6.701  -1.281 123.389  0.00  0.00    +0.000 NA
ATOM      2  H   UNL     1      -5.973  -0.887 122.788  0.00  0.00    +0.000 HD
ENDROOT
BRANCH   1   4
ATOM      3  C   UNL     1      -5.057  -3.039 123.530  0.00  0.00    +0.000 C 
ATOM      4  C   UNL     1      -6.132  -2.274 124.313  0.00  0.00    +0.000 C 
BRANCH   4   5
ATOM      5  C   UNL     1      -5.558  -1.589 125.579  0.00  0.00    +0.000 C 
BRANCH   5   6
ATOM      6  C   UNL     1      -6.140  -2.106 126.869  0.00  0.00    +0.000 A 
ATOM      7  C   UNL     1      -7.504  -2.458 126.927  0.00  0.00    +0.000 A 
ATOM      8  C   UNL     1      -8.095  -2.859 128.122  0.00  0.00    +0.000 A 
ATOM      9  C   UNL     1      -7.274  -2.967 129.221  0.00  0.00    +0.000 A 
ATOM     10  O   UNL     1      -7.665  -3.385 130.454  0.00  0.00    +0.000 OA
ATOM     11  C   UNL     1      -6.395  -3.415 131.134  0.00  0.00    +0.000 C 
ATOM     12  O   UNL     1      -5.313  -2.856 130.362  0.00  0.00    +0.000 OA
ATOM     13  C   UNL     1      -5.937  -2.664 129.169  0.00  0.00    +0.000 A 
ATOM     14  C   UNL     1      -5.335  -2.213 128.013  0.00  0.00    +0.000 A 
ENDBRANCH   5   6
ENDBRANCH   4   5
ENDBRANCH   1   4
BRANCH   1  15
ATOM     15  C   UNL     1      -7.768  -1.831 122.546  0.00  0.00    +0.000 C 
BRANCH  15  16
ATOM     16  C   UNL     1      -9.165  -1.463 123.084  0.00  0.00    +0.000 C 
BRANCH  16  17
ATOM     17  C   UNL     1      -9.130  -0.065 123.667  0.00  0.00    +0.000 A 
ATOM     18  C   UNL     1      -9.153   0.168 125.054  0.00  0.00    +0.000 A 
ATOM     19  C   UNL     1      -9.095   1.467 125.565  0.00  0.00    +0.000 A 
ATOM     20  C   UNL     1      -8.990   2.539 124.687  0.00  0.00    +0.000 A 
ATOM     21  C   UNL     1      -8.930   2.318 123.315  0.00  0.00    +0.000 A 
ATOM     22  C   UNL     1      -8.998   1.032 122.799  0.00  0.00    +0.000 A 
BRANCH  20  23
ATOM     23  O   UNL     1      -8.938   3.829 125.135  0.00  0.00    +0.000 OA
ATOM     24  H   UNL     1      -8.131   3.929 125.667  0.00  0.00    +0.000 HD
ENDBRANCH  20  23
BRANCH  21  25
ATOM     25  O   UNL     1      -8.801   3.367 122.450  0.00  0.00    +0.000 OA
ATOM     26  H   UNL     1      -9.714   3.573 122.169  0.00  0.00    +0.000 HD
ENDBRANCH  21  25
ENDBRANCH  16  17
BRANCH  16  27
ATOM     27  O   UNL     1      -9.601  -2.418 124.055  0.00  0.00    +0.000 OA
ATOM     28  H   UNL     1     -10.476  -2.138 124.362  0.00  0.00    +0.000 HD
ENDBRANCH  16  27
ENDBRANCH  15  16
ENDBRANCH   1  15
TORSDOF 9
ENDMDL
MODEL 7
REMARK VINA RESULT:      -6.8      7.831      9.789
REMARK  Name = Protokylol
REMARK  10 active torsions:
REMARK  status: ('A' for Active; 'I' for Inactive)
REMARK    1  A    between atoms: C_1  and  C_2
REMARK    2  A    between atoms: C_2  and  C_3
REMARK    3  A    between atoms: C_2  and  N_13
REMARK    4  A    between atoms: C_3  and  C_4
REMARK    5  A    between atoms: N_13  and  C_14
REMARK    6  A    between atoms: C_14  and  C_15
REMARK    7  A    between atoms: C_15  and  O_16
REMARK    8  A    between atoms: C_15  and  C_17
REMARK    9  A    between atoms: C_20  and  O_21
REMARK   10  A    between atoms: C_22  and  O_23
REMARK                            x       y       z     vdW  Elec       q    Type
REMARK                         _______ _______ _______ _____ _____    ______ ____
ROOT
ATOM      1  N   UNL     1     -10.798   6.530 132.570  0.00  0.00    +0.000 NA
ATOM      2  H   UNL     1     -10.893   7.546 132.512  0.00  0.00    +0.000 HD
ENDROOT
BRANCH   1   4
ATOM      3  C   UNL     1      -9.270   4.748 133.123  0.00  0.00    +0.000 C 
ATOM      4  C   UNL     1      -9.384   6.133 132.474  0.00  0.00    +0.000 C 
BRANCH   4   5
ATOM      5  C   UNL     1      -8.907   6.131 131.000  0.00  0.00    +0.000 C 
BRANCH   5   6
ATOM      6  C   UNL     1      -7.424   5.918 130.839  0.00  0.00    +0.000 A 
ATOM      7  C   UNL     1      -6.953   4.754 130.196  0.00  0.00    +0.000 A 
ATOM      8  C   UNL     1      -5.591   4.484 130.104  0.00  0.00    +0.000 A 
ATOM      9  C   UNL     1      -4.728   5.435 130.599  0.00  0.00    +0.000 A 
ATOM     10  O   UNL     1      -3.371   5.362 130.555  0.00  0.00    +0.000 OA
ATOM     11  C   UNL     1      -3.024   6.656 131.087  0.00  0.00    +0.000 C 
ATOM     12  O   UNL     1      -4.154   7.394 131.594  0.00  0.00    +0.000 OA
ATOM     13  C   UNL     1      -5.173   6.589 131.192  0.00  0.00    +0.000 A 
ATOM     14  C   UNL     1      -6.517   6.860 131.345  0.00  0.00    +0.000 A 
ENDBRANCH   5   6
ENDBRANCH   4   5
ENDBRANCH   1   4
BRANCH   1  15
ATOM     15  C   UNL     1     -11.634   5.913 131.536  0.00  0.00    +0.000 C 
BRANCH  15  16
ATOM     16  C   UNL     1     -12.599   6.934 130.900  0.00  0.00    +0.000 C 
BRANCH  16  17
ATOM     17  C   UNL     1     -12.103   7.305 129.518  0.00  0.00    +0.000 A 
ATOM     18  C   UNL     1     -11.017   8.177 129.322  0.00  0.00    +0.000 A 
ATOM     19  C   UNL     1     -10.565   8.484 128.037  0.00  0.00    +0.000 A 
ATOM     20  C   UNL     1     -11.186   7.899 126.940  0.00  0.00    +0.000 A 
ATOM     21  C   UNL     1     -12.238   7.007 127.123  0.00  0.00    +0.000 A 
ATOM     22  C   UNL     1     -12.700   6.707 128.395  0.00  0.00    +0.000 A 
BRANCH  20  23
ATOM     23  O   UNL     1     -10.788   8.172 125.661  0.00  0.00    +0.000 OA
ATOM     24  H   UNL     1     -10.767   7.333 125.169  0.00  0.00    +0.000 HD
ENDBRANCH  20  23
BRANCH  21  25
ATOM     25  O   UNL     1     -12.835   6.411 126.049  0.00  0.00    +0.000 OA
ATOM     26  H   UNL     1     -12.171   6.465 125.333  0.00  0.00    +0.000 HD
ENDBRANCH  21  25
ENDBRANCH  16  17
BRANCH  16  27
ATOM     27  O   UNL     1     -12.731   8.090 131.731  0.00  0.00    +0.000 OA
ATOM     28  H   UNL     1     -12.470   8.858 131.201  0.00  0.00    +0.000 HD
ENDBRANCH  16  27
ENDBRANCH  15  16
ENDBRANCH   1  15
TORSDOF 9
ENDMDL
MODEL 8
REMARK VINA RESULT:      -6.8      3.407      5.702
REMARK  Name = Protokylol
REMARK  10 active torsions:
REMARK  status: ('A' for Active; 'I' for Inactive)
REMARK    1  A    between atoms: C_1  and  C_2
REMARK    2  A    between atoms: C_2  and  C_3
REMARK    3  A    between atoms: C_2  and  N_13
REMARK    4  A    between atoms: C_3  and  C_4
REMARK    5  A    between atoms: N_13  and  C_14
REMARK    6  A    between atoms: C_14  and  C_15
REMARK    7  A    between atoms: C_15  and  O_16
REMARK    8  A    between atoms: C_15  and  C_17
REMARK    9  A    between atoms: C_20  and  O_21
REMARK   10  A    between atoms: C_22  and  O_23
REMARK                            x       y       z     vdW  Elec       q    Type
REMARK                         _______ _______ _______ _____ _____    ______ ____
ROOT
ATOM      1  N   UNL     1      -8.858  -3.482 125.700  0.00  0.00    +0.000 NA
ATOM      2  H   UNL     1      -9.803  -3.209 125.420  0.00  0.00    +0.000 HD
ENDROOT
BRANCH   1   4
ATOM      3  C   UNL     1      -8.686  -3.661 128.098  0.00  0.00    +0.000 C 
ATOM      4  C   UNL     1      -8.436  -2.739 126.897  0.00  0.00    +0.000 C 
BRANCH   4   5
ATOM      5  C   UNL     1      -6.951  -2.309 126.788  0.00  0.00    +0.000 C 
BRANCH   5   6
ATOM      6  C   UNL     1      -6.738  -0.822 126.898  0.00  0.00    +0.000 A 
ATOM      7  C   UNL     1      -7.775  -0.003 127.390  0.00  0.00    +0.000 A 
ATOM      8  C   UNL     1      -7.644   1.382 127.427  0.00  0.00    +0.000 A 
ATOM      9  C   UNL     1      -6.434   1.908 127.034  0.00  0.00    +0.000 A 
ATOM     10  O   UNL     1      -6.111   3.229 127.046  0.00  0.00    +0.000 OA
ATOM     11  C   UNL     1      -4.723   3.161 126.665  0.00  0.00    +0.000 C 
ATOM     12  O   UNL     1      -4.297   1.841 126.268  0.00  0.00    +0.000 OA
ATOM     13  C   UNL     1      -5.403   1.119 126.588  0.00  0.00    +0.000 A 
ATOM     14  C   UNL     1      -5.523  -0.251 126.491  0.00  0.00    +0.000 A 
ENDBRANCH   5   6
ENDBRANCH   4   5
ENDBRANCH   1   4
BRANCH   1  15
ATOM     15  C   UNL     1      -7.952  -3.294 124.563  0.00  0.00    +0.000 C 
BRANCH  15  16
ATOM     16  C   UNL     1      -8.639  -2.542 123.406  0.00  0.00    +0.000 C 
BRANCH  16  17
ATOM     17  C   UNL     1      -8.363  -1.058 123.534  0.00  0.00    +0.000 A 
ATOM     18  C   UNL     1      -7.132  -0.490 123.161  0.00  0.00    +0.000 A 
ATOM     19  C   UNL     1      -6.913   0.885 123.268  0.00  0.00    +0.000 A 
ATOM     20  C   UNL     1      -7.938   1.703 123.728  0.00  0.00    +0.000 A 
ATOM     21  C   UNL     1      -9.172   1.158 124.066  0.00  0.00    +0.000 A 
ATOM     22  C   UNL     1      -9.393  -0.208 123.973  0.00  0.00    +0.000 A 
BRANCH  20  23
ATOM     23  O   UNL     1      -7.773   3.054 123.859  0.00  0.00    +0.000 OA
ATOM     24  H   UNL     1      -8.634   3.477 123.699  0.00  0.00    +0.000 HD
ENDBRANCH  20  23
BRANCH  21  25
ATOM     25  O   UNL     1     -10.190   1.961 124.494  0.00  0.00    +0.000 OA
ATOM     26  H   UNL     1     -10.975   1.656 123.997  0.00  0.00    +0.000 HD
ENDBRANCH  21  25
ENDBRANCH  16  17
BRANCH  16  27
ATOM     27  O   UNL     1     -10.043  -2.809 123.392  0.00  0.00    +0.000 OA
ATOM     28  H   UNL     1     -10.157  -3.745 123.165  0.00  0.00    +0.000 HD
ENDBRANCH  16  27
ENDBRANCH  15  16
ENDBRANCH   1  15
TORSDOF 9
ENDMDL
MODEL 9
REMARK VINA RESULT:      -6.8      3.377      4.670
REMARK  Name = Protokylol
REMARK  10 active torsions:
REMARK  status: ('A' for Active; 'I' for Inactive)
REMARK    1  A    between atoms: C_1  and  C_2
REMARK    2  A    between atoms: C_2  and  C_3
REMARK    3  A    between atoms: C_2  and  N_13
REMARK    4  A    between atoms: C_3  and  C_4
REMARK    5  A    between atoms: N_13  and  C_14
REMARK    6  A    between atoms: C_14  and  C_15
REMARK    7  A    between atoms: C_15  and  O_16
REMARK    8  A    between atoms: C_15  and  C_17
REMARK    9  A    between atoms: C_20  and  O_21
REMARK   10  A    between atoms: C_22  and  O_23
REMARK                            x       y       z     vdW  Elec       q    Type
REMARK                         _______ _______ _______ _____ _____    ______ ____
ROOT
ATOM      1  N   UNL     1      -9.342  -0.591 123.972  0.00  0.00    +0.000 NA
ATOM      2  H   UNL     1     -10.281  -0.295 124.250  0.00  0.00    +0.000 HD
ENDROOT
BRANCH   1   4
ATOM      3  C   UNL     1      -9.232  -2.926 123.380  0.00  0.00    +0.000 C 
ATOM      4  C   UNL     1      -9.032  -1.920 124.522  0.00  0.00    +0.000 C 
BRANCH   4   5
ATOM      5  C   UNL     1      -7.593  -1.962 125.094  0.00  0.00    +0.000 C 
BRANCH   5   6
ATOM      6  C   UNL     1      -7.518  -2.433 126.523  0.00  0.00    +0.000 A 
ATOM      7  C   UNL     1      -8.589  -3.169 127.071  0.00  0.00    +0.000 A 
ATOM      8  C   UNL     1      -8.591  -3.548 128.411  0.00  0.00    +0.000 A 
ATOM      9  C   UNL     1      -7.474  -3.237 129.152  0.00  0.00    +0.000 A 
ATOM     10  O   UNL     1      -7.282  -3.566 130.457  0.00  0.00    +0.000 OA
ATOM     11  C   UNL     1      -5.929  -3.108 130.645  0.00  0.00    +0.000 C 
ATOM     12  O   UNL     1      -5.408  -2.369 129.522  0.00  0.00    +0.000 OA
ATOM     13  C   UNL     1      -6.409  -2.554 128.621  0.00  0.00    +0.000 A 
ATOM     14  C   UNL     1      -6.401  -2.120 127.312  0.00  0.00    +0.000 A 
ENDBRANCH   5   6
ENDBRANCH   4   5
ENDBRANCH   1   4
BRANCH   1  15
ATOM     15  C   UNL     1      -8.378   0.435 124.383  0.00  0.00    +0.000 C 
BRANCH  15  16
ATOM     16  C   UNL     1      -8.944   1.856 124.194  0.00  0.00    +0.000 C 
BRANCH  16  17
ATOM     17  C   UNL     1      -8.188   2.559 123.085  0.00  0.00    +0.000 A 
ATOM     18  C   UNL     1      -6.789   2.707 123.112  0.00  0.00    +0.000 A 
ATOM     19  C   UNL     1      -6.114   3.338 122.064  0.00  0.00    +0.000 A 
ATOM     20  C   UNL     1      -6.837   3.803 120.972  0.00  0.00    +0.000 A 
ATOM     21  C   UNL     1      -8.216   3.629 120.918  0.00  0.00    +0.000 A 
ATOM     22  C   UNL     1      -8.895   3.014 121.960  0.00  0.00    +0.000 A 
BRANCH  20  23
ATOM     23  O   UNL     1      -6.226   4.434 119.925  0.00  0.00    +0.000 OA
ATOM     24  H   UNL     1      -5.545   5.027 120.289  0.00  0.00    +0.000 HD
ENDBRANCH  20  23
BRANCH  21  25
ATOM     25  O   UNL     1      -8.926   4.062 119.835  0.00  0.00    +0.000 OA
ATOM     26  H   UNL     1      -9.222   4.963 120.074  0.00  0.00    +0.000 HD
ENDBRANCH  21  25
ENDBRANCH  16  17
BRANCH  16  27
ATOM     27  O   UNL     1      -8.875   2.595 125.417  0.00  0.00    +0.000 OA
ATOM     28  H   UNL     1      -9.779   2.863 125.643  0.00  0.00    +0.000 HD
ENDBRANCH  16  27
ENDBRANCH  15  16
ENDBRANCH   1  15
TORSDOF 9
ENDMDL
