MODEL 1
REMARK VINA RESULT:      -5.8      0.000      0.000
REMARK  Name = Proxibarbal
REMARK  6 active torsions:
REMARK  status: ('A' for Active; 'I' for Inactive)
REMARK    1  A    between atoms: C_1  and  C_2
REMARK    2  A    between atoms: C_2  and  O_3
REMARK    3  A    between atoms: C_2  and  C_4
REMARK    4  A    between atoms: C_4  and  C_5
REMARK    5  A    between atoms: C_5  and  C_6
REMARK    6  A    between atoms: C_6  and  C_7
REMARK                            x       y       z     vdW  Elec       q    Type
REMARK                         _______ _______ _______ _____ _____    ______ ____
ROOT
ATOM      1  C   UNL     1      -6.565  -2.135 124.791  0.00  0.00    +0.000 C 
ATOM      2  C   UNL     1      -6.549  -1.607 126.217  0.00  0.00    +0.000 C 
ATOM      3  O   UNL     1      -6.229  -2.298 127.184  0.00  0.00    +0.000 OA
ATOM      4  N   UNL     1      -6.938  -0.314 126.407  0.00  0.00    +0.000 N 
ATOM      5  C   UNL     1      -7.319   0.571 125.444  0.00  0.00    +0.000 C 
ATOM      6  O   UNL     1      -7.537   1.743 125.705  0.00  0.00    +0.000 OA
ATOM      7  N   UNL     1      -7.404   0.093 124.176  0.00  0.00    +0.000 N 
ATOM      8  C   UNL     1      -6.808  -1.051 123.749  0.00  0.00    +0.000 C 
ATOM      9  O   UNL     1      -6.476  -1.155 122.568  0.00  0.00    +0.000 OA
ATOM     10  H   UNL     1      -6.879   0.044 127.350  0.00  0.00    +0.000 HD
ATOM     11  H   UNL     1      -7.530   0.791 123.455  0.00  0.00    +0.000 HD
ENDROOT
BRANCH   1  12
ATOM     12  C   UNL     1      -7.676  -3.222 124.745  0.00  0.00    +0.000 C 
BRANCH  12  14
ATOM     13  C   UNL     1      -9.708  -3.380 123.244  0.00  0.00    +0.000 C 
ATOM     14  C   UNL     1      -9.084  -2.695 124.441  0.00  0.00    +0.000 C 
BRANCH  14  15
ATOM     15  O   UNL     1      -9.966  -2.952 125.530  0.00  0.00    +0.000 OA
ATOM     16  H   UNL     1      -9.481  -2.877 126.366  0.00  0.00    +0.000 HD
ENDBRANCH  14  15
ENDBRANCH  12  14
ENDBRANCH   1  12
BRANCH   1  17
ATOM     17  C   UNL     1      -5.169  -2.729 124.502  0.00  0.00    +0.000 C 
BRANCH  17  18
ATOM     18  C   UNL     1      -5.267  -4.133 123.948  0.00  0.00    +0.000 C 
ATOM     19  C   UNL     1      -4.221  -4.806 123.465  0.00  0.00    +0.000 C 
ENDBRANCH  17  18
ENDBRANCH   1  17
TORSDOF 5
ENDMDL
MODEL 2
REMARK VINA RESULT:      -5.7      1.781      3.768
REMARK  Name = Proxibarbal
REMARK  6 active torsions:
REMARK  status: ('A' for Active; 'I' for Inactive)
REMARK    1  A    between atoms: C_1  and  C_2
REMARK    2  A    between atoms: C_2  and  O_3
REMARK    3  A    between atoms: C_2  and  C_4
REMARK    4  A    between atoms: C_4  and  C_5
REMARK    5  A    between atoms: C_5  and  C_6
REMARK    6  A    between atoms: C_6  and  C_7
REMARK                            x       y       z     vdW  Elec       q    Type
REMARK                         _______ _______ _______ _____ _____    ______ ____
ROOT
ATOM      1  C   UNL     1      -8.051  -1.955 124.956  0.00  0.00    +0.000 C 
ATOM      2  C   UNL     1      -8.893  -1.579 123.746  0.00  0.00    +0.000 C 
ATOM      3  O   UNL     1      -9.758  -2.318 123.275  0.00  0.00    +0.000 OA
ATOM      4  N   UNL     1      -8.636  -0.375 123.160  0.00  0.00    +0.000 N 
ATOM      5  C   UNL     1      -7.716   0.545 123.559  0.00  0.00    +0.000 C 
ATOM      6  O   UNL     1      -7.645   1.646 123.036  0.00  0.00    +0.000 OA
ATOM      7  N   UNL     1      -6.911   0.194 124.595  0.00  0.00    +0.000 N 
ATOM      8  C   UNL     1      -7.185  -0.812 125.467  0.00  0.00    +0.000 C 
ATOM      9  O   UNL     1      -6.749  -0.749 126.617  0.00  0.00    +0.000 OA
ATOM     10  H   UNL     1      -9.231  -0.111 122.386  0.00  0.00    +0.000 HD
ATOM     11  H   UNL     1      -6.348   0.939 124.983  0.00  0.00    +0.000 HD
ENDROOT
BRANCH   1  12
ATOM     12  C   UNL     1      -7.183  -3.170 124.518  0.00  0.00    +0.000 C 
BRANCH  12  14
ATOM     13  C   UNL     1      -4.897  -4.023 123.844  0.00  0.00    +0.000 C 
ATOM     14  C   UNL     1      -5.793  -2.810 123.979  0.00  0.00    +0.000 C 
BRANCH  14  15
ATOM     15  O   UNL     1      -5.886  -2.256 122.670  0.00  0.00    +0.000 OA
ATOM     16  H   UNL     1      -5.088  -2.477 122.165  0.00  0.00    +0.000 HD
ENDBRANCH  14  15
ENDBRANCH  12  14
ENDBRANCH   1  12
BRANCH   1  17
ATOM     17  C   UNL     1      -9.022  -2.327 126.097  0.00  0.00    +0.000 C 
BRANCH  17  18
ATOM     18  C   UNL     1      -8.667  -3.660 126.716  0.00  0.00    +0.000 C 
ATOM     19  C   UNL     1      -8.953  -3.982 127.980  0.00  0.00    +0.000 C 
ENDBRANCH  17  18
ENDBRANCH   1  17
TORSDOF 5
ENDMDL
MODEL 3
REMARK VINA RESULT:      -5.7      8.186     10.456
REMARK  Name = Proxibarbal
REMARK  6 active torsions:
REMARK  status: ('A' for Active; 'I' for Inactive)
REMARK    1  A    between atoms: C_1  and  C_2
REMARK    2  A    between atoms: C_2  and  O_3
REMARK    3  A    between atoms: C_2  and  C_4
REMARK    4  A    between atoms: C_4  and  C_5
REMARK    5  A    between atoms: C_5  and  C_6
REMARK    6  A    between atoms: C_6  and  C_7
REMARK                            x       y       z     vdW  Elec       q    Type
REMARK                         _______ _______ _______ _____ _____    ______ ____
ROOT
ATOM      1  C   UNL     1      -9.144   6.052 130.983  0.00  0.00    +0.000 C 
ATOM      2  C   UNL     1      -9.753   6.186 132.370  0.00  0.00    +0.000 C 
ATOM      3  O   UNL     1      -9.094   6.088 133.405  0.00  0.00    +0.000 OA
ATOM      4  N   UNL     1     -11.099   6.395 132.441  0.00  0.00    +0.000 N 
ATOM      5  C   UNL     1     -11.959   6.523 131.393  0.00  0.00    +0.000 C 
ATOM      6  O   UNL     1     -13.129   6.827 131.561  0.00  0.00    +0.000 OA
ATOM      7  N   UNL     1     -11.440   6.337 130.152  0.00  0.00    +0.000 N 
ATOM      8  C   UNL     1     -10.114   6.398 129.862  0.00  0.00    +0.000 C 
ATOM      9  O   UNL     1      -9.757   6.742 128.735  0.00  0.00    +0.000 OA
ATOM     10  H   UNL     1     -11.489   6.531 133.364  0.00  0.00    +0.000 HD
ATOM     11  H   UNL     1     -12.046   6.592 129.383  0.00  0.00    +0.000 HD
ENDROOT
BRANCH   1  12
ATOM     12  C   UNL     1      -8.648   4.582 130.869  0.00  0.00    +0.000 C 
BRANCH  12  14
ATOM     13  C   UNL     1      -8.972   2.325 129.769  0.00  0.00    +0.000 C 
ATOM     14  C   UNL     1      -9.633   3.619 130.195  0.00  0.00    +0.000 C 
BRANCH  14  15
ATOM     15  O   UNL     1     -10.667   3.239 131.098  0.00  0.00    +0.000 OA
ATOM     16  H   UNL     1     -10.460   2.376 131.487  0.00  0.00    +0.000 HD
ENDBRANCH  14  15
ENDBRANCH  12  14
ENDBRANCH   1  12
BRANCH   1  17
ATOM     17  C   UNL     1      -7.976   7.059 130.892  0.00  0.00    +0.000 C 
BRANCH  17  18
ATOM     18  C   UNL     1      -6.638   6.371 131.039  0.00  0.00    +0.000 C 
ATOM     19  C   UNL     1      -5.470   7.015 130.968  0.00  0.00    +0.000 C 
ENDBRANCH  17  18
ENDBRANCH   1  17
TORSDOF 5
ENDMDL
MODEL 4
REMARK VINA RESULT:      -5.7      8.898     10.666
REMARK  Name = Proxibarbal
REMARK  6 active torsions:
REMARK  status: ('A' for Active; 'I' for Inactive)
REMARK    1  A    between atoms: C_1  and  C_2
REMARK    2  A    between atoms: C_2  and  O_3
REMARK    3  A    between atoms: C_2  and  C_4
REMARK    4  A    between atoms: C_4  and  C_5
REMARK    5  A    between atoms: C_5  and  C_6
REMARK    6  A    between atoms: C_6  and  C_7
REMARK                            x       y       z     vdW  Elec       q    Type
REMARK                         _______ _______ _______ _____ _____    ______ ____
ROOT
ATOM      1  C   UNL     1      -9.446   6.283 130.625  0.00  0.00    +0.000 C 
ATOM      2  C   UNL     1      -9.175   5.176 129.617  0.00  0.00    +0.000 C 
ATOM      3  O   UNL     1      -8.782   5.394 128.471  0.00  0.00    +0.000 OA
ATOM      4  N   UNL     1      -9.415   3.895 130.020  0.00  0.00    +0.000 N 
ATOM      5  C   UNL     1      -9.851   3.496 131.246  0.00  0.00    +0.000 C 
ATOM      6  O   UNL     1      -9.922   2.315 131.545  0.00  0.00    +0.000 OA
ATOM      7  N   UNL     1     -10.162   4.477 132.133  0.00  0.00    +0.000 N 
ATOM      8  C   UNL     1      -9.739   5.764 132.026  0.00  0.00    +0.000 C 
ATOM      9  O   UNL     1      -9.593   6.438 133.046  0.00  0.00    +0.000 OA
ATOM     10  H   UNL     1      -9.187   3.163 129.361  0.00  0.00    +0.000 HD
ATOM     11  H   UNL     1     -10.327   4.171 133.082  0.00  0.00    +0.000 HD
ENDROOT
BRANCH   1  12
ATOM     12  C   UNL     1     -10.645   7.097 130.061  0.00  0.00    +0.000 C 
BRANCH  12  14
ATOM     13  C   UNL     1     -13.040   7.342 130.843  0.00  0.00    +0.000 C 
ATOM     14  C   UNL     1     -12.014   6.423 130.215  0.00  0.00    +0.000 C 
BRANCH  14  15
ATOM     15  O   UNL     1     -12.548   6.065 128.944  0.00  0.00    +0.000 OA
ATOM     16  H   UNL     1     -12.089   6.558 128.247  0.00  0.00    +0.000 HD
ENDBRANCH  14  15
ENDBRANCH  12  14
ENDBRANCH   1  12
BRANCH   1  17
ATOM     17  C   UNL     1      -8.166   7.141 130.723  0.00  0.00    +0.000 C 
BRANCH  17  18
ATOM     18  C   UNL     1      -6.989   6.329 131.214  0.00  0.00    +0.000 C 
ATOM     19  C   UNL     1      -5.733   6.780 131.209  0.00  0.00    +0.000 C 
ENDBRANCH  17  18
ENDBRANCH   1  17
TORSDOF 5
ENDMDL
MODEL 5
REMARK VINA RESULT:      -5.5      1.759      2.009
REMARK  Name = Proxibarbal
REMARK  6 active torsions:
REMARK  status: ('A' for Active; 'I' for Inactive)
REMARK    1  A    between atoms: C_1  and  C_2
REMARK    2  A    between atoms: C_2  and  O_3
REMARK    3  A    between atoms: C_2  and  C_4
REMARK    4  A    between atoms: C_4  and  C_5
REMARK    5  A    between atoms: C_5  and  C_6
REMARK    6  A    between atoms: C_6  and  C_7
REMARK                            x       y       z     vdW  Elec       q    Type
REMARK                         _______ _______ _______ _____ _____    ______ ____
ROOT
ATOM      1  C   UNL     1      -7.238  -1.885 124.940  0.00  0.00    +0.000 C 
ATOM      2  C   UNL     1      -6.215  -0.805 125.255  0.00  0.00    +0.000 C 
ATOM      3  O   UNL     1      -5.335  -0.942 126.105  0.00  0.00    +0.000 OA
ATOM      4  N   UNL     1      -6.318   0.370 124.568  0.00  0.00    +0.000 N 
ATOM      5  C   UNL     1      -7.232   0.672 123.606  0.00  0.00    +0.000 C 
ATOM      6  O   UNL     1      -7.167   1.710 122.967  0.00  0.00    +0.000 OA
ATOM      7  N   UNL     1      -8.193  -0.257 123.363  0.00  0.00    +0.000 N 
ATOM      8  C   UNL     1      -8.101  -1.563 123.727  0.00  0.00    +0.000 C 
ATOM      9  O   UNL     1      -8.690  -2.417 123.064  0.00  0.00    +0.000 OA
ATOM     10  H   UNL     1      -5.607   1.064 124.749  0.00  0.00    +0.000 HD
ATOM     11  H   UNL     1      -8.761  -0.092 122.543  0.00  0.00    +0.000 HD
ENDROOT
BRANCH   1  12
ATOM     12  C   UNL     1      -8.103  -2.048 126.222  0.00  0.00    +0.000 C 
BRANCH  12  14
ATOM     13  C   UNL     1      -9.067  -3.852 127.714  0.00  0.00    +0.000 C 
ATOM     14  C   UNL     1      -8.912  -3.349 126.294  0.00  0.00    +0.000 C 
BRANCH  14  15
ATOM     15  O   UNL     1     -10.238  -3.147 125.814  0.00  0.00    +0.000 OA
ATOM     16  H   UNL     1     -10.505  -3.902 125.268  0.00  0.00    +0.000 HD
ENDBRANCH  14  15
ENDBRANCH  12  14
ENDBRANCH   1  12
BRANCH   1  17
ATOM     17  C   UNL     1      -6.459  -3.176 124.605  0.00  0.00    +0.000 C 
BRANCH  17  18
ATOM     18  C   UNL     1      -5.388  -2.924 123.568  0.00  0.00    +0.000 C 
ATOM     19  C   UNL     1      -4.307  -3.695 123.428  0.00  0.00    +0.000 C 
ENDBRANCH  17  18
ENDBRANCH   1  17
TORSDOF 5
ENDMDL
MODEL 6
REMARK VINA RESULT:      -5.3      1.890      3.475
REMARK  Name = Proxibarbal
REMARK  6 active torsions:
REMARK  status: ('A' for Active; 'I' for Inactive)
REMARK    1  A    between atoms: C_1  and  C_2
REMARK    2  A    between atoms: C_2  and  O_3
REMARK    3  A    between atoms: C_2  and  C_4
REMARK    4  A    between atoms: C_4  and  C_5
REMARK    5  A    between atoms: C_5  and  C_6
REMARK    6  A    between atoms: C_6  and  C_7
REMARK                            x       y       z     vdW  Elec       q    Type
REMARK                         _______ _______ _______ _____ _____    ______ ____
ROOT
ATOM      1  C   UNL     1      -7.232  -1.830 124.495  0.00  0.00    +0.000 C 
ATOM      2  C   UNL     1      -8.341  -2.841 124.246  0.00  0.00    +0.000 C 
ATOM      3  O   UNL     1      -8.771  -3.103 123.123  0.00  0.00    +0.000 OA
ATOM      4  N   UNL     1      -8.885  -3.450 125.339  0.00  0.00    +0.000 N 
ATOM      5  C   UNL     1      -8.521  -3.266 126.638  0.00  0.00    +0.000 C 
ATOM      6  O   UNL     1      -8.991  -3.949 127.535  0.00  0.00    +0.000 OA
ATOM      7  N   UNL     1      -7.581  -2.317 126.880  0.00  0.00    +0.000 N 
ATOM      8  C   UNL     1      -6.741  -1.816 125.936  0.00  0.00    +0.000 C 
ATOM      9  O   UNL     1      -5.633  -1.399 126.274  0.00  0.00    +0.000 OA
ATOM     10  H   UNL     1      -9.587  -4.155 125.162  0.00  0.00    +0.000 HD
ATOM     11  H   UNL     1      -7.206  -2.304 127.819  0.00  0.00    +0.000 HD
ENDROOT
BRANCH   1  12
ATOM     12  C   UNL     1      -7.809  -0.446 124.080  0.00  0.00    +0.000 C 
BRANCH  12  14
ATOM     13  C   UNL     1      -8.860   1.737 124.812  0.00  0.00    +0.000 C 
ATOM     14  C   UNL     1      -8.548   0.305 125.193  0.00  0.00    +0.000 C 
BRANCH  14  15
ATOM     15  O   UNL     1      -9.809  -0.301 125.462  0.00  0.00    +0.000 OA
ATOM     16  H   UNL     1      -9.676  -1.122 125.960  0.00  0.00    +0.000 HD
ENDBRANCH  14  15
ENDBRANCH  12  14
ENDBRANCH   1  12
BRANCH   1  17
ATOM     17  C   UNL     1      -6.030  -2.237 123.616  0.00  0.00    +0.000 C 
BRANCH  17  18
ATOM     18  C   UNL     1      -5.520  -3.614 123.976  0.00  0.00    +0.000 C 
ATOM     19  C   UNL     1      -4.337  -4.087 123.577  0.00  0.00    +0.000 C 
ENDBRANCH  17  18
ENDBRANCH   1  17
TORSDOF 5
ENDMDL
MODEL 7
REMARK VINA RESULT:      -5.3      8.979     10.906
REMARK  Name = Proxibarbal
REMARK  6 active torsions:
REMARK  status: ('A' for Active; 'I' for Inactive)
REMARK    1  A    between atoms: C_1  and  C_2
REMARK    2  A    between atoms: C_2  and  O_3
REMARK    3  A    between atoms: C_2  and  C_4
REMARK    4  A    between atoms: C_4  and  C_5
REMARK    5  A    between atoms: C_5  and  C_6
REMARK    6  A    between atoms: C_6  and  C_7
REMARK                            x       y       z     vdW  Elec       q    Type
REMARK                         _______ _______ _______ _____ _____    ______ ____
ROOT
ATOM      1  C   UNL     1      -9.021   5.635 131.059  0.00  0.00    +0.000 C 
ATOM      2  C   UNL     1      -9.952   5.998 129.912  0.00  0.00    +0.000 C 
ATOM      3  O   UNL     1      -9.609   5.953 128.731  0.00  0.00    +0.000 OA
ATOM      4  N   UNL     1     -11.208   6.417 130.238  0.00  0.00    +0.000 N 
ATOM      5  C   UNL     1     -11.732   6.522 131.491  0.00  0.00    +0.000 C 
ATOM      6  O   UNL     1     -12.908   6.794 131.670  0.00  0.00    +0.000 OA
ATOM      7  N   UNL     1     -10.891   6.266 132.527  0.00  0.00    +0.000 N 
ATOM      8  C   UNL     1      -9.722   5.584 132.411  0.00  0.00    +0.000 C 
ATOM      9  O   UNL     1      -9.295   4.949 133.375  0.00  0.00    +0.000 OA
ATOM     10  H   UNL     1     -11.835   6.611 129.470  0.00  0.00    +0.000 HD
ATOM     11  H   UNL     1     -11.329   6.190 133.435  0.00  0.00    +0.000 HD
ENDROOT
BRANCH   1  12
ATOM     12  C   UNL     1      -7.888   6.700 131.050  0.00  0.00    +0.000 C 
BRANCH  12  14
ATOM     13  C   UNL     1      -5.387   7.074 130.934  0.00  0.00    +0.000 C 
ATOM     14  C   UNL     1      -6.498   6.167 131.419  0.00  0.00    +0.000 C 
BRANCH  14  15
ATOM     15  O   UNL     1      -6.343   6.096 132.833  0.00  0.00    +0.000 OA
ATOM     16  H   UNL     1      -6.826   5.329 133.177  0.00  0.00    +0.000 HD
ENDBRANCH  14  15
ENDBRANCH  12  14
ENDBRANCH   1  12
BRANCH   1  17
ATOM     17  C   UNL     1      -8.478   4.216 130.782  0.00  0.00    +0.000 C 
BRANCH  17  18
ATOM     18  C   UNL     1      -9.598   3.206 130.667  0.00  0.00    +0.000 C 
ATOM     19  C   UNL     1      -9.645   2.078 131.378  0.00  0.00    +0.000 C 
ENDBRANCH  17  18
ENDBRANCH   1  17
TORSDOF 5
ENDMDL
MODEL 8
REMARK VINA RESULT:      -5.3      2.021      3.819
REMARK  Name = Proxibarbal
REMARK  6 active torsions:
REMARK  status: ('A' for Active; 'I' for Inactive)
REMARK    1  A    between atoms: C_1  and  C_2
REMARK    2  A    between atoms: C_2  and  O_3
REMARK    3  A    between atoms: C_2  and  C_4
REMARK    4  A    between atoms: C_4  and  C_5
REMARK    5  A    between atoms: C_5  and  C_6
REMARK    6  A    between atoms: C_6  and  C_7
REMARK                            x       y       z     vdW  Elec       q    Type
REMARK                         _______ _______ _______ _____ _____    ______ ____
ROOT
ATOM      1  C   UNL     1      -8.076  -2.485 125.179  0.00  0.00    +0.000 C 
ATOM      2  C   UNL     1      -6.561  -2.368 125.224  0.00  0.00    +0.000 C 
ATOM      3  O   UNL     1      -5.914  -2.429 126.269  0.00  0.00    +0.000 OA
ATOM      4  N   UNL     1      -5.918  -2.158 124.039  0.00  0.00    +0.000 N 
ATOM      5  C   UNL     1      -6.490  -2.065 122.808  0.00  0.00    +0.000 C 
ATOM      6  O   UNL     1      -5.815  -1.994 121.793  0.00  0.00    +0.000 OA
ATOM      7  N   UNL     1      -7.847  -2.100 122.761  0.00  0.00    +0.000 N 
ATOM      8  C   UNL     1      -8.634  -2.570 123.765  0.00  0.00    +0.000 C 
ATOM      9  O   UNL     1      -9.732  -3.056 123.494  0.00  0.00    +0.000 OA
ATOM     10  H   UNL     1      -4.908  -2.129 124.071  0.00  0.00    +0.000 HD
ATOM     11  H   UNL     1      -8.250  -2.193 121.839  0.00  0.00    +0.000 HD
ENDROOT
BRANCH   1  12
ATOM     12  C   UNL     1      -8.628  -1.240 125.930  0.00  0.00    +0.000 C 
BRANCH  12  14
ATOM     13  C   UNL     1      -9.609   1.089 125.780  0.00  0.00    +0.000 C 
ATOM     14  C   UNL     1      -8.856  -0.003 125.052  0.00  0.00    +0.000 C 
BRANCH  14  15
ATOM     15  O   UNL     1      -7.614   0.580 124.668  0.00  0.00    +0.000 OA
ATOM     16  H   UNL     1      -7.320   0.197 123.827  0.00  0.00    +0.000 HD
ENDBRANCH  14  15
ENDBRANCH  12  14
ENDBRANCH   1  12
BRANCH   1  17
ATOM     17  C   UNL     1      -8.459  -3.800 125.892  0.00  0.00    +0.000 C 
BRANCH  17  18
ATOM     18  C   UNL     1      -9.152  -3.536 127.210  0.00  0.00    +0.000 C 
ATOM     19  C   UNL     1      -8.633  -3.875 128.392  0.00  0.00    +0.000 C 
ENDBRANCH  17  18
ENDBRANCH   1  17
TORSDOF 5
ENDMDL
MODEL 9
REMARK VINA RESULT:      -5.2      1.762      2.351
REMARK  Name = Proxibarbal
REMARK  6 active torsions:
REMARK  status: ('A' for Active; 'I' for Inactive)
REMARK    1  A    between atoms: C_1  and  C_2
REMARK    2  A    between atoms: C_2  and  O_3
REMARK    3  A    between atoms: C_2  and  C_4
REMARK    4  A    between atoms: C_4  and  C_5
REMARK    5  A    between atoms: C_5  and  C_6
REMARK    6  A    between atoms: C_6  and  C_7
REMARK                            x       y       z     vdW  Elec       q    Type
REMARK                         _______ _______ _______ _____ _____    ______ ____
ROOT
ATOM      1  C   UNL     1      -7.262  -1.551 125.078  0.00  0.00    +0.000 C 
ATOM      2  C   UNL     1      -6.482  -0.334 125.551  0.00  0.00    +0.000 C 
ATOM      3  O   UNL     1      -5.267  -0.352 125.752  0.00  0.00    +0.000 OA
ATOM      4  N   UNL     1      -7.190   0.809 125.780  0.00  0.00    +0.000 N 
ATOM      5  C   UNL     1      -8.529   0.985 125.607  0.00  0.00    +0.000 C 
ATOM      6  O   UNL     1      -9.049   2.083 125.727  0.00  0.00    +0.000 OA
ATOM      7  N   UNL     1      -9.248  -0.110 125.251  0.00  0.00    +0.000 N 
ATOM      8  C   UNL     1      -8.708  -1.238 124.717  0.00  0.00    +0.000 C 
ATOM      9  O   UNL     1      -9.387  -1.934 123.963  0.00  0.00    +0.000 OA
ATOM     10  H   UNL     1      -6.658   1.626 126.048  0.00  0.00    +0.000 HD
ATOM     11  H   UNL     1     -10.203   0.066 124.970  0.00  0.00    +0.000 HD
ENDROOT
BRANCH   1  12
ATOM     12  C   UNL     1      -7.180  -2.591 126.231  0.00  0.00    +0.000 C 
BRANCH  12  14
ATOM     13  C   UNL     1      -8.809  -3.830 127.721  0.00  0.00    +0.000 C 
ATOM     14  C   UNL     1      -8.288  -2.477 127.285  0.00  0.00    +0.000 C 
BRANCH  14  15
ATOM     15  O   UNL     1      -7.797  -1.857 128.470  0.00  0.00    +0.000 OA
ATOM     16  H   UNL     1      -8.448  -1.216 128.796  0.00  0.00    +0.000 HD
ENDBRANCH  14  15
ENDBRANCH  12  14
ENDBRANCH   1  12
BRANCH   1  17
ATOM     17  C   UNL     1      -6.580  -2.066 123.792  0.00  0.00    +0.000 C 
BRANCH  17  18
ATOM     18  C   UNL     1      -5.833  -3.357 124.038  0.00  0.00    +0.000 C 
ATOM     19  C   UNL     1      -4.610  -3.599 123.563  0.00  0.00    +0.000 C 
ENDBRANCH  17  18
ENDBRANCH   1  17
TORSDOF 5
ENDMDL
