MODEL 1
REMARK VINA RESULT:      -6.6      0.000      0.000
REMARK  Name = Prucalopride
REMARK  8 active torsions:
REMARK  status: ('A' for Active; 'I' for Inactive)
REMARK    1  A    between atoms: C_1  and  O_2
REMARK    2  A    between atoms: O_2  and  C_3
REMARK    3  A    between atoms: C_3  and  C_4
REMARK    4  A    between atoms: C_4  and  C_5
REMARK    5  A    between atoms: C_5  and  N_6
REMARK    6  A    between atoms: C_9  and  N_12
REMARK    7  A    between atoms: C_13  and  C_15
REMARK    8  A    between atoms: C_21  and  N_22
REMARK                            x       y       z     vdW  Elec       q    Type
REMARK                         _______ _______ _______ _____ _____    ______ ____
ROOT
ATOM      1  N   UNL     1      -8.487   4.682 129.317  0.00  0.00    +0.000 N 
ATOM      2  C   UNL     1      -7.970   3.402 129.128  0.00  0.00    +0.000 C 
ATOM      3  O   UNL     1      -7.533   2.711 130.048  0.00  0.00    +0.000 OA
ATOM      4  H   UNL     1      -8.844   5.196 128.521  0.00  0.00    +0.000 HD
ENDROOT
BRANCH   2   5
ATOM      5  C   UNL     1      -7.911   2.881 127.734  0.00  0.00    +0.000 A 
ATOM      6  C   UNL     1      -7.381   3.593 126.651  0.00  0.00    +0.000 A 
ATOM      7  O   UNL     1      -6.756   4.821 126.662  0.00  0.00    +0.000 OA
ATOM      8  C   UNL     1      -6.366   5.099 125.286  0.00  0.00    +0.000 C 
ATOM      9  C   UNL     1      -6.828   3.974 124.380  0.00  0.00    +0.000 C 
ATOM     10  C   UNL     1      -7.439   3.062 125.366  0.00  0.00    +0.000 A 
ATOM     11  C   UNL     1      -8.023   1.837 125.080  0.00  0.00    +0.000 A 
ATOM     12  C   UNL     1      -8.561   1.127 126.159  0.00  0.00    +0.000 A 
ATOM     13 CL   UNL     1      -9.321  -0.404 125.889  0.00  0.00    +0.000 Cl
ATOM     14  C   UNL     1      -8.515   1.637 127.469  0.00  0.00    +0.000 A 
BRANCH  11  15
ATOM     15  N   UNL     1      -8.016   1.358 123.781  0.00  0.00    +0.000 N 
ATOM     16  H   UNL     1      -8.242   0.395 123.576  0.00  0.00    +0.000 HD
ATOM     17  H   UNL     1      -7.678   1.951 123.035  0.00  0.00    +0.000 HD
ENDBRANCH  11  15
ENDBRANCH   2   5
BRANCH   1  21
ATOM     18  N   UNL     1     -11.142   6.867 130.596  0.00  0.00    +0.000 NA
ATOM     19  C   UNL     1     -11.168   5.394 130.594  0.00  0.00    +0.000 C 
ATOM     20  C   UNL     1      -9.980   4.803 131.323  0.00  0.00    +0.000 C 
ATOM     21  C   UNL     1      -8.676   5.269 130.664  0.00  0.00    +0.000 C 
ATOM     22  C   UNL     1      -8.668   6.810 130.638  0.00  0.00    +0.000 C 
ATOM     23  C   UNL     1      -9.919   7.372 129.961  0.00  0.00    +0.000 C 
BRANCH  18  24
ATOM     24  C   UNL     1     -12.338   7.412 129.934  0.00  0.00    +0.000 C 
BRANCH  24  25
ATOM     25  C   UNL     1     -12.881   6.508 128.827  0.00  0.00    +0.000 C 
BRANCH  25  26
ATOM     26  C   UNL     1     -13.112   7.274 127.554  0.00  0.00    +0.000 C 
BRANCH  26  28
ATOM     27  C   UNL     1     -11.089   7.568 126.439  0.00  0.00    +0.000 C 
ATOM     28  O   UNL     1     -12.227   6.737 126.576  0.00  0.00    +0.000 OA
ENDBRANCH  26  28
ENDBRANCH  25  26
ENDBRANCH  24  25
ENDBRANCH  18  24
ENDBRANCH   1  21
TORSDOF 7
ENDMDL
MODEL 2
REMARK VINA RESULT:      -6.4      3.595      6.929
REMARK  Name = Prucalopride
REMARK  8 active torsions:
REMARK  status: ('A' for Active; 'I' for Inactive)
REMARK    1  A    between atoms: C_1  and  O_2
REMARK    2  A    between atoms: O_2  and  C_3
REMARK    3  A    between atoms: C_3  and  C_4
REMARK    4  A    between atoms: C_4  and  C_5
REMARK    5  A    between atoms: C_5  and  N_6
REMARK    6  A    between atoms: C_9  and  N_12
REMARK    7  A    between atoms: C_13  and  C_15
REMARK    8  A    between atoms: C_21  and  N_22
REMARK                            x       y       z     vdW  Elec       q    Type
REMARK                         _______ _______ _______ _____ _____    ______ ____
ROOT
ATOM      1  N   UNL     1      -6.351   3.868 128.996  0.00  0.00    +0.000 N 
ATOM      2  C   UNL     1      -7.716   3.765 128.740  0.00  0.00    +0.000 C 
ATOM      3  O   UNL     1      -8.171   3.230 127.728  0.00  0.00    +0.000 OA
ATOM      4  H   UNL     1      -6.040   4.308 129.853  0.00  0.00    +0.000 HD
ENDROOT
BRANCH   2   5
ATOM      5  C   UNL     1      -8.652   4.374 129.724  0.00  0.00    +0.000 A 
ATOM      6  C   UNL     1      -9.454   5.491 129.458  0.00  0.00    +0.000 A 
ATOM      7  O   UNL     1      -9.604   6.169 128.268  0.00  0.00    +0.000 OA
ATOM      8  C   UNL     1     -10.571   7.230 128.516  0.00  0.00    +0.000 C 
ATOM      9  C   UNL     1     -11.000   7.210 129.970  0.00  0.00    +0.000 C 
ATOM     10  C   UNL     1     -10.241   6.045 130.463  0.00  0.00    +0.000 A 
ATOM     11  C   UNL     1     -10.270   5.552 131.759  0.00  0.00    +0.000 A 
ATOM     12  C   UNL     1      -9.463   4.441 132.030  0.00  0.00    +0.000 A 
ATOM     13 CL   UNL     1      -9.429   3.771 133.625  0.00  0.00    +0.000 Cl
ATOM     14  C   UNL     1      -8.659   3.859 131.034  0.00  0.00    +0.000 A 
BRANCH  11  15
ATOM     15  N   UNL     1     -11.102   6.136 132.699  0.00  0.00    +0.000 N 
ATOM     16  H   UNL     1     -11.794   6.823 132.434  0.00  0.00    +0.000 HD
ATOM     17  H   UNL     1     -10.948   5.951 133.681  0.00  0.00    +0.000 HD
ENDBRANCH  11  15
ENDBRANCH   2   5
BRANCH   1  21
ATOM     18  N   UNL     1      -2.975   4.983 128.089  0.00  0.00    +0.000 NA
ATOM     19  C   UNL     1      -3.326   4.181 129.275  0.00  0.00    +0.000 C 
ATOM     20  C   UNL     1      -4.044   2.901 128.904  0.00  0.00    +0.000 C 
ATOM     21  C   UNL     1      -5.331   3.226 128.135  0.00  0.00    +0.000 C 
ATOM     22  C   UNL     1      -4.964   4.092 126.915  0.00  0.00    +0.000 C 
ATOM     23  C   UNL     1      -4.175   5.338 127.321  0.00  0.00    +0.000 C 
BRANCH  18  24
ATOM     24  C   UNL     1      -2.227   6.189 128.477  0.00  0.00    +0.000 C 
BRANCH  24  25
ATOM     25  C   UNL     1      -3.097   7.444 128.546  0.00  0.00    +0.000 C 
BRANCH  25  26
ATOM     26  C   UNL     1      -3.544   7.729 129.953  0.00  0.00    +0.000 C 
BRANCH  26  28
ATOM     27  C   UNL     1      -5.551   6.963 130.854  0.00  0.00    +0.000 C 
ATOM     28  O   UNL     1      -4.963   7.855 129.924  0.00  0.00    +0.000 OA
ENDBRANCH  26  28
ENDBRANCH  25  26
ENDBRANCH  24  25
ENDBRANCH  18  24
ENDBRANCH   1  21
TORSDOF 7
ENDMDL
MODEL 3
REMARK VINA RESULT:      -6.2      2.580      3.684
REMARK  Name = Prucalopride
REMARK  8 active torsions:
REMARK  status: ('A' for Active; 'I' for Inactive)
REMARK    1  A    between atoms: C_1  and  O_2
REMARK    2  A    between atoms: O_2  and  C_3
REMARK    3  A    between atoms: C_3  and  C_4
REMARK    4  A    between atoms: C_4  and  C_5
REMARK    5  A    between atoms: C_5  and  N_6
REMARK    6  A    between atoms: C_9  and  N_12
REMARK    7  A    between atoms: C_13  and  C_15
REMARK    8  A    between atoms: C_21  and  N_22
REMARK                            x       y       z     vdW  Elec       q    Type
REMARK                         _______ _______ _______ _____ _____    ______ ____
ROOT
ATOM      1  N   UNL     1      -7.055   3.459 127.533  0.00  0.00    +0.000 N 
ATOM      2  C   UNL     1      -6.010   3.551 126.617  0.00  0.00    +0.000 C 
ATOM      3  O   UNL     1      -4.828   3.640 126.952  0.00  0.00    +0.000 OA
ATOM      4  H   UNL     1      -8.005   3.375 127.194  0.00  0.00    +0.000 HD
ENDROOT
BRANCH   2   5
ATOM      5  C   UNL     1      -6.360   3.585 125.170  0.00  0.00    +0.000 A 
ATOM      6  C   UNL     1      -7.514   3.004 124.627  0.00  0.00    +0.000 A 
ATOM      7  O   UNL     1      -8.554   2.392 125.293  0.00  0.00    +0.000 OA
ATOM      8  C   UNL     1      -9.514   1.989 124.275  0.00  0.00    +0.000 C 
ATOM      9  C   UNL     1      -8.992   2.349 122.898  0.00  0.00    +0.000 C 
ATOM     10  C   UNL     1      -7.723   3.014 123.252  0.00  0.00    +0.000 A 
ATOM     11  C   UNL     1      -6.823   3.566 122.354  0.00  0.00    +0.000 A 
ATOM     12  C   UNL     1      -5.665   4.140 122.892  0.00  0.00    +0.000 A 
ATOM     13 CL   UNL     1      -4.482   4.839 121.841  0.00  0.00    +0.000 Cl
ATOM     14  C   UNL     1      -5.428   4.148 124.278  0.00  0.00    +0.000 A 
BRANCH  11  15
ATOM     15  N   UNL     1      -7.113   3.566 121.000  0.00  0.00    +0.000 N 
ATOM     16  H   UNL     1      -7.704   4.275 120.590  0.00  0.00    +0.000 HD
ATOM     17  H   UNL     1      -6.816   2.787 120.428  0.00  0.00    +0.000 HD
ENDBRANCH  11  15
ENDBRANCH   2   5
BRANCH   1  21
ATOM     18  N   UNL     1      -9.364   3.915 130.348  0.00  0.00    +0.000 NA
ATOM     19  C   UNL     1      -9.147   2.658 129.609  0.00  0.00    +0.000 C 
ATOM     20  C   UNL     1      -7.693   2.234 129.621  0.00  0.00    +0.000 C 
ATOM     21  C   UNL     1      -6.823   3.329 128.990  0.00  0.00    +0.000 C 
ATOM     22  C   UNL     1      -7.078   4.648 129.744  0.00  0.00    +0.000 C 
ATOM     23  C   UNL     1      -8.565   5.005 129.776  0.00  0.00    +0.000 C 
BRANCH  18  24
ATOM     24  C   UNL     1     -10.791   4.269 130.369  0.00  0.00    +0.000 C 
BRANCH  24  25
ATOM     25  C   UNL     1     -11.044   5.743 130.687  0.00  0.00    +0.000 C 
BRANCH  25  26
ATOM     26  C   UNL     1     -12.097   6.328 129.787  0.00  0.00    +0.000 C 
BRANCH  26  28
ATOM     27  C   UNL     1     -11.036   7.504 128.079  0.00  0.00    +0.000 C 
ATOM     28  O   UNL     1     -11.594   6.258 128.456  0.00  0.00    +0.000 OA
ENDBRANCH  26  28
ENDBRANCH  25  26
ENDBRANCH  24  25
ENDBRANCH  18  24
ENDBRANCH   1  21
TORSDOF 7
ENDMDL
MODEL 4
REMARK VINA RESULT:      -6.2      3.224      6.989
REMARK  Name = Prucalopride
REMARK  8 active torsions:
REMARK  status: ('A' for Active; 'I' for Inactive)
REMARK    1  A    between atoms: C_1  and  O_2
REMARK    2  A    between atoms: O_2  and  C_3
REMARK    3  A    between atoms: C_3  and  C_4
REMARK    4  A    between atoms: C_4  and  C_5
REMARK    5  A    between atoms: C_5  and  N_6
REMARK    6  A    between atoms: C_9  and  N_12
REMARK    7  A    between atoms: C_13  and  C_15
REMARK    8  A    between atoms: C_21  and  N_22
REMARK                            x       y       z     vdW  Elec       q    Type
REMARK                         _______ _______ _______ _____ _____    ______ ____
ROOT
ATOM      1  N   UNL     1      -8.562   4.406 129.059  0.00  0.00    +0.000 N 
ATOM      2  C   UNL     1      -9.157   5.103 130.108  0.00  0.00    +0.000 C 
ATOM      3  O   UNL     1      -8.867   4.915 131.290  0.00  0.00    +0.000 OA
ATOM      4  H   UNL     1      -8.835   4.616 128.107  0.00  0.00    +0.000 HD
ENDROOT
BRANCH   2   5
ATOM      5  C   UNL     1     -10.223   6.086 129.768  0.00  0.00    +0.000 A 
ATOM      6  C   UNL     1     -10.400   6.643 128.495  0.00  0.00    +0.000 A 
ATOM      7  O   UNL     1      -9.721   6.348 127.333  0.00  0.00    +0.000 OA
ATOM      8  C   UNL     1     -10.306   7.179 126.290  0.00  0.00    +0.000 C 
ATOM      9  C   UNL     1     -11.386   8.065 126.879  0.00  0.00    +0.000 C 
ATOM     10  C   UNL     1     -11.372   7.616 128.285  0.00  0.00    +0.000 A 
ATOM     11  C   UNL     1     -12.193   8.096 129.293  0.00  0.00    +0.000 A 
ATOM     12  C   UNL     1     -12.013   7.547 130.569  0.00  0.00    +0.000 A 
ATOM     13 CL   UNL     1     -12.986   8.099 131.889  0.00  0.00    +0.000 Cl
ATOM     14  C   UNL     1     -11.040   6.560 130.811  0.00  0.00    +0.000 A 
BRANCH  11  15
ATOM     15  N   UNL     1     -13.160   9.043 129.003  0.00  0.00    +0.000 N 
ATOM     16  H   UNL     1     -13.208   9.483 128.094  0.00  0.00    +0.000 HD
ATOM     17  H   UNL     1     -13.764   9.379 129.741  0.00  0.00    +0.000 HD
ENDBRANCH  11  15
ENDBRANCH   2   5
BRANCH   1  21
ATOM     18  N   UNL     1      -7.410   1.590 127.009  0.00  0.00    +0.000 NA
ATOM     19  C   UNL     1      -6.985   2.993 126.859  0.00  0.00    +0.000 C 
ATOM     20  C   UNL     1      -6.397   3.549 128.139  0.00  0.00    +0.000 C 
ATOM     21  C   UNL     1      -7.434   3.470 129.268  0.00  0.00    +0.000 C 
ATOM     22  C   UNL     1      -7.900   2.008 129.399  0.00  0.00    +0.000 C 
ATOM     23  C   UNL     1      -8.417   1.456 128.069  0.00  0.00    +0.000 C 
BRANCH  18  24
ATOM     24  C   UNL     1      -7.920   1.059 125.735  0.00  0.00    +0.000 C 
BRANCH  24  25
ATOM     25  C   UNL     1      -9.120   0.127 125.905  0.00  0.00    +0.000 C 
BRANCH  25  26
ATOM     26  C   UNL     1      -8.817  -1.258 125.403  0.00  0.00    +0.000 C 
BRANCH  26  28
ATOM     27  C   UNL     1      -9.072  -2.619 123.531  0.00  0.00    +0.000 C 
ATOM     28  O   UNL     1      -9.426  -1.382 124.122  0.00  0.00    +0.000 OA
ENDBRANCH  26  28
ENDBRANCH  25  26
ENDBRANCH  24  25
ENDBRANCH  18  24
ENDBRANCH   1  21
TORSDOF 7
ENDMDL
MODEL 5
REMARK VINA RESULT:      -6.2      3.666      6.952
REMARK  Name = Prucalopride
REMARK  8 active torsions:
REMARK  status: ('A' for Active; 'I' for Inactive)
REMARK    1  A    between atoms: C_1  and  O_2
REMARK    2  A    between atoms: O_2  and  C_3
REMARK    3  A    between atoms: C_3  and  C_4
REMARK    4  A    between atoms: C_4  and  C_5
REMARK    5  A    between atoms: C_5  and  N_6
REMARK    6  A    between atoms: C_9  and  N_12
REMARK    7  A    between atoms: C_13  and  C_15
REMARK    8  A    between atoms: C_21  and  N_22
REMARK                            x       y       z     vdW  Elec       q    Type
REMARK                         _______ _______ _______ _____ _____    ______ ____
ROOT
ATOM      1  N   UNL     1      -8.492   4.728 130.329  0.00  0.00    +0.000 N 
ATOM      2  C   UNL     1      -9.881   4.630 130.357  0.00  0.00    +0.000 C 
ATOM      3  O   UNL     1     -10.476   3.590 130.640  0.00  0.00    +0.000 OA
ATOM      4  H   UNL     1      -8.062   5.616 130.101  0.00  0.00    +0.000 HD
ENDROOT
BRANCH   2   5
ATOM      5  C   UNL     1     -10.667   5.838 129.980  0.00  0.00    +0.000 A 
ATOM      6  C   UNL     1     -10.582   6.473 128.735  0.00  0.00    +0.000 A 
ATOM      7  O   UNL     1      -9.863   6.082 127.626  0.00  0.00    +0.000 OA
ATOM      8  C   UNL     1     -10.139   7.066 126.587  0.00  0.00    +0.000 C 
ATOM      9  C   UNL     1     -11.058   8.144 127.126  0.00  0.00    +0.000 C 
ATOM     10  C   UNL     1     -11.292   7.645 128.495  0.00  0.00    +0.000 A 
ATOM     11  C   UNL     1     -12.092   8.253 129.450  0.00  0.00    +0.000 A 
ATOM     12  C   UNL     1     -12.172   7.626 130.699  0.00  0.00    +0.000 A 
ATOM     13 CL   UNL     1     -13.138   8.324 131.954  0.00  0.00    +0.000 Cl
ATOM     14  C   UNL     1     -11.468   6.439 130.969  0.00  0.00    +0.000 A 
BRANCH  11  15
ATOM     15  N   UNL     1     -12.795   9.402 129.130  0.00  0.00    +0.000 N 
ATOM     16  H   UNL     1     -13.661   9.361 128.612  0.00  0.00    +0.000 HD
ATOM     17  H   UNL     1     -12.384  10.306 129.326  0.00  0.00    +0.000 HD
ENDBRANCH  11  15
ENDBRANCH   2   5
BRANCH   1  21
ATOM     18  N   UNL     1      -5.038   3.935 129.380  0.00  0.00    +0.000 NA
ATOM     19  C   UNL     1      -5.444   4.828 130.480  0.00  0.00    +0.000 C 
ATOM     20  C   UNL     1      -6.348   4.130 131.474  0.00  0.00    +0.000 C 
ATOM     21  C   UNL     1      -7.610   3.622 130.767  0.00  0.00    +0.000 C 
ATOM     22  C   UNL     1      -7.181   2.716 129.597  0.00  0.00    +0.000 C 
ATOM     23  C   UNL     1      -6.210   3.429 128.655  0.00  0.00    +0.000 C 
BRANCH  18  24
ATOM     24  C   UNL     1      -4.114   4.622 128.464  0.00  0.00    +0.000 C 
BRANCH  24  25
ATOM     25  C   UNL     1      -2.920   5.260 129.175  0.00  0.00    +0.000 C 
BRANCH  25  26
ATOM     26  C   UNL     1      -2.440   6.488 128.453  0.00  0.00    +0.000 C 
BRANCH  26  28
ATOM     27  C   UNL     1      -3.759   8.037 129.585  0.00  0.00    +0.000 C 
ATOM     28  O   UNL     1      -3.550   7.374 128.351  0.00  0.00    +0.000 OA
ENDBRANCH  26  28
ENDBRANCH  25  26
ENDBRANCH  24  25
ENDBRANCH  18  24
ENDBRANCH   1  21
TORSDOF 7
ENDMDL
MODEL 6
REMARK VINA RESULT:      -6.1      1.790      2.273
REMARK  Name = Prucalopride
REMARK  8 active torsions:
REMARK  status: ('A' for Active; 'I' for Inactive)
REMARK    1  A    between atoms: C_1  and  O_2
REMARK    2  A    between atoms: O_2  and  C_3
REMARK    3  A    between atoms: C_3  and  C_4
REMARK    4  A    between atoms: C_4  and  C_5
REMARK    5  A    between atoms: C_5  and  N_6
REMARK    6  A    between atoms: C_9  and  N_12
REMARK    7  A    between atoms: C_13  and  C_15
REMARK    8  A    between atoms: C_21  and  N_22
REMARK                            x       y       z     vdW  Elec       q    Type
REMARK                         _______ _______ _______ _____ _____    ______ ____
ROOT
ATOM      1  N   UNL     1      -8.619   2.338 128.855  0.00  0.00    +0.000 N 
ATOM      2  C   UNL     1      -8.028   1.150 128.433  0.00  0.00    +0.000 C 
ATOM      3  O   UNL     1      -7.282   0.479 129.147  0.00  0.00    +0.000 OA
ATOM      4  H   UNL     1      -9.234   2.837 128.224  0.00  0.00    +0.000 HD
ENDROOT
BRANCH   2   5
ATOM      5  C   UNL     1      -8.287   0.708 127.034  0.00  0.00    +0.000 A 
ATOM      6  C   UNL     1      -8.453   1.583 125.953  0.00  0.00    +0.000 A 
ATOM      7  O   UNL     1      -8.329   2.955 125.939  0.00  0.00    +0.000 OA
ATOM      8  C   UNL     1      -8.571   3.378 124.566  0.00  0.00    +0.000 C 
ATOM      9  C   UNL     1      -8.903   2.175 123.705  0.00  0.00    +0.000 C 
ATOM     10  C   UNL     1      -8.772   1.087 124.693  0.00  0.00    +0.000 A 
ATOM     11  C   UNL     1      -8.958  -0.263 124.436  0.00  0.00    +0.000 A 
ATOM     12  C   UNL     1      -8.801  -1.139 125.517  0.00  0.00    +0.000 A 
ATOM     13 CL   UNL     1      -9.028  -2.839 125.287  0.00  0.00    +0.000 Cl
ATOM     14  C   UNL     1      -8.475  -0.667 126.801  0.00  0.00    +0.000 A 
BRANCH  11  15
ATOM     15  N   UNL     1      -9.244  -0.687 123.149  0.00  0.00    +0.000 N 
ATOM     16  H   UNL     1     -10.138  -0.496 122.720  0.00  0.00    +0.000 HD
ATOM     17  H   UNL     1      -8.588  -1.287 122.667  0.00  0.00    +0.000 HD
ENDBRANCH  11  15
ENDBRANCH   2   5
BRANCH   1  21
ATOM     18  N   UNL     1     -10.499   4.960 130.603  0.00  0.00    +0.000 NA
ATOM     19  C   UNL     1     -10.883   3.540 130.516  0.00  0.00    +0.000 C 
ATOM     20  C   UNL     1      -9.799   2.624 131.044  0.00  0.00    +0.000 C 
ATOM     21  C   UNL     1      -8.505   2.830 130.247  0.00  0.00    +0.000 C 
ATOM     22  C   UNL     1      -8.125   4.322 130.313  0.00  0.00    +0.000 C 
ATOM     23  C   UNL     1      -9.271   5.220 129.843  0.00  0.00    +0.000 C 
BRANCH  18  24
ATOM     24  C   UNL     1     -11.594   5.826 130.139  0.00  0.00    +0.000 C 
BRANCH  24  25
ATOM     25  C   UNL     1     -11.149   7.261 129.851  0.00  0.00    +0.000 C 
BRANCH  25  26
ATOM     26  C   UNL     1     -11.828   7.814 128.629  0.00  0.00    +0.000 C 
BRANCH  26  28
ATOM     27  C   UNL     1     -10.925   7.461 126.511  0.00  0.00    +0.000 C 
ATOM     28  O   UNL     1     -11.639   6.867 127.581  0.00  0.00    +0.000 OA
ENDBRANCH  26  28
ENDBRANCH  25  26
ENDBRANCH  24  25
ENDBRANCH  18  24
ENDBRANCH   1  21
TORSDOF 7
ENDMDL
MODEL 7
REMARK VINA RESULT:      -6.1      2.920      6.725
REMARK  Name = Prucalopride
REMARK  8 active torsions:
REMARK  status: ('A' for Active; 'I' for Inactive)
REMARK    1  A    between atoms: C_1  and  O_2
REMARK    2  A    between atoms: O_2  and  C_3
REMARK    3  A    between atoms: C_3  and  C_4
REMARK    4  A    between atoms: C_4  and  C_5
REMARK    5  A    between atoms: C_5  and  N_6
REMARK    6  A    between atoms: C_9  and  N_12
REMARK    7  A    between atoms: C_13  and  C_15
REMARK    8  A    between atoms: C_21  and  N_22
REMARK                            x       y       z     vdW  Elec       q    Type
REMARK                         _______ _______ _______ _____ _____    ______ ____
ROOT
ATOM      1  N   UNL     1      -8.892   4.077 129.333  0.00  0.00    +0.000 N 
ATOM      2  C   UNL     1      -9.267   5.022 130.285  0.00  0.00    +0.000 C 
ATOM      3  O   UNL     1      -8.818   5.037 131.432  0.00  0.00    +0.000 OA
ATOM      4  H   UNL     1      -9.288   4.126 128.403  0.00  0.00    +0.000 HD
ENDROOT
BRANCH   2   5
ATOM      5  C   UNL     1     -10.294   6.027 129.894  0.00  0.00    +0.000 A 
ATOM      6  C   UNL     1     -10.402   6.580 128.611  0.00  0.00    +0.000 A 
ATOM      7  O   UNL     1      -9.681   6.261 127.481  0.00  0.00    +0.000 OA
ATOM      8  C   UNL     1     -10.200   7.098 126.409  0.00  0.00    +0.000 C 
ATOM      9  C   UNL     1     -11.283   8.014 126.946  0.00  0.00    +0.000 C 
ATOM     10  C   UNL     1     -11.341   7.574 128.353  0.00  0.00    +0.000 A 
ATOM     11  C   UNL     1     -12.193   8.080 129.323  0.00  0.00    +0.000 A 
ATOM     12  C   UNL     1     -12.081   7.536 130.608  0.00  0.00    +0.000 A 
ATOM     13 CL   UNL     1     -13.097   8.119 131.881  0.00  0.00    +0.000 Cl
ATOM     14  C   UNL     1     -11.144   6.528 130.897  0.00  0.00    +0.000 A 
BRANCH  11  15
ATOM     15  N   UNL     1     -13.124   9.047 128.985  0.00  0.00    +0.000 N 
ATOM     16  H   UNL     1     -14.115   8.881 129.087  0.00  0.00    +0.000 HD
ATOM     17  H   UNL     1     -12.815   9.896 128.530  0.00  0.00    +0.000 HD
ENDBRANCH  11  15
ENDBRANCH   2   5
BRANCH   1  21
ATOM     18  N   UNL     1      -6.471   2.582 127.017  0.00  0.00    +0.000 NA
ATOM     19  C   UNL     1      -6.284   3.840 127.762  0.00  0.00    +0.000 C 
ATOM     20  C   UNL     1      -6.427   3.644 129.256  0.00  0.00    +0.000 C 
ATOM     21  C   UNL     1      -7.820   3.086 129.580  0.00  0.00    +0.000 C 
ATOM     22  C   UNL     1      -8.023   1.788 128.774  0.00  0.00    +0.000 C 
ATOM     23  C   UNL     1      -7.797   2.009 127.278  0.00  0.00    +0.000 C 
BRANCH  18  24
ATOM     24  C   UNL     1      -6.267   2.793 125.576  0.00  0.00    +0.000 C 
BRANCH  24  25
ATOM     25  C   UNL     1      -5.796   4.206 125.232  0.00  0.00    +0.000 C 
BRANCH  25  26
ATOM     26  C   UNL     1      -5.636   4.389 123.748  0.00  0.00    +0.000 C 
BRANCH  26  28
ATOM     27  C   UNL     1      -6.247   3.423 121.719  0.00  0.00    +0.000 C 
ATOM     28  O   UNL     1      -6.197   3.238 123.122  0.00  0.00    +0.000 OA
ENDBRANCH  26  28
ENDBRANCH  25  26
ENDBRANCH  24  25
ENDBRANCH  18  24
ENDBRANCH   1  21
TORSDOF 7
ENDMDL
MODEL 8
REMARK VINA RESULT:      -6.1      5.105      8.602
REMARK  Name = Prucalopride
REMARK  8 active torsions:
REMARK  status: ('A' for Active; 'I' for Inactive)
REMARK    1  A    between atoms: C_1  and  O_2
REMARK    2  A    between atoms: O_2  and  C_3
REMARK    3  A    between atoms: C_3  and  C_4
REMARK    4  A    between atoms: C_4  and  C_5
REMARK    5  A    between atoms: C_5  and  N_6
REMARK    6  A    between atoms: C_9  and  N_12
REMARK    7  A    between atoms: C_13  and  C_15
REMARK    8  A    between atoms: C_21  and  N_22
REMARK                            x       y       z     vdW  Elec       q    Type
REMARK                         _______ _______ _______ _____ _____    ______ ____
ROOT
ATOM      1  N   UNL     1      -7.461  -2.577 127.036  0.00  0.00    +0.000 N 
ATOM      2  C   UNL     1      -8.047  -3.206 128.132  0.00  0.00    +0.000 C 
ATOM      3  O   UNL     1      -8.894  -4.093 128.024  0.00  0.00    +0.000 OA
ATOM      4  H   UNL     1      -6.760  -1.863 127.191  0.00  0.00    +0.000 HD
ENDROOT
BRANCH   2   5
ATOM      5  C   UNL     1      -7.651  -2.739 129.489  0.00  0.00    +0.000 A 
ATOM      6  C   UNL     1      -6.833  -3.469 130.363  0.00  0.00    +0.000 A 
ATOM      7  O   UNL     1      -6.186  -4.662 130.128  0.00  0.00    +0.000 OA
ATOM      8  C   UNL     1      -5.446  -4.977 131.342  0.00  0.00    +0.000 C 
ATOM      9  C   UNL     1      -5.701  -3.914 132.394  0.00  0.00    +0.000 C 
ATOM     10  C   UNL     1      -6.579  -2.994 131.645  0.00  0.00    +0.000 A 
ATOM     11  C   UNL     1      -7.114  -1.813 132.135  0.00  0.00    +0.000 A 
ATOM     12  C   UNL     1      -7.938  -1.086 131.268  0.00  0.00    +0.000 A 
ATOM     13 CL   UNL     1      -8.659   0.393 131.802  0.00  0.00    +0.000 Cl
ATOM     14  C   UNL     1      -8.211  -1.539 129.965  0.00  0.00    +0.000 A 
BRANCH  11  15
ATOM     15  N   UNL     1      -6.791  -1.387 133.412  0.00  0.00    +0.000 N 
ATOM     16  H   UNL     1      -7.341  -1.664 134.213  0.00  0.00    +0.000 HD
ATOM     17  H   UNL     1      -6.056  -0.703 133.537  0.00  0.00    +0.000 HD
ENDBRANCH  11  15
ENDBRANCH   2   5
BRANCH   1  21
ATOM     18  N   UNL     1      -7.570  -0.632 123.927  0.00  0.00    +0.000 NA
ATOM     19  C   UNL     1      -6.365  -1.237 124.520  0.00  0.00    +0.000 C 
ATOM     20  C   UNL     1      -6.518  -2.730 124.722  0.00  0.00    +0.000 C 
ATOM     21  C   UNL     1      -7.711  -3.014 125.643  0.00  0.00    +0.000 C 
ATOM     22  C   UNL     1      -8.963  -2.351 125.036  0.00  0.00    +0.000 C 
ATOM     23  C   UNL     1      -8.745  -0.860 124.777  0.00  0.00    +0.000 C 
BRANCH  18  24
ATOM     24  C   UNL     1      -7.369   0.805 123.687  0.00  0.00    +0.000 C 
BRANCH  24  25
ATOM     25  C   UNL     1      -8.431   1.683 124.351  0.00  0.00    +0.000 C 
BRANCH  25  26
ATOM     26  C   UNL     1      -8.196   3.141 124.069  0.00  0.00    +0.000 C 
BRANCH  26  28
ATOM     27  C   UNL     1      -7.923   4.753 125.727  0.00  0.00    +0.000 C 
ATOM     28  O   UNL     1      -8.844   3.877 125.103  0.00  0.00    +0.000 OA
ENDBRANCH  26  28
ENDBRANCH  25  26
ENDBRANCH  24  25
ENDBRANCH  18  24
ENDBRANCH   1  21
TORSDOF 7
ENDMDL
MODEL 9
REMARK VINA RESULT:      -6.1      3.355      7.476
REMARK  Name = Prucalopride
REMARK  8 active torsions:
REMARK  status: ('A' for Active; 'I' for Inactive)
REMARK    1  A    between atoms: C_1  and  O_2
REMARK    2  A    between atoms: O_2  and  C_3
REMARK    3  A    between atoms: C_3  and  C_4
REMARK    4  A    between atoms: C_4  and  C_5
REMARK    5  A    between atoms: C_5  and  N_6
REMARK    6  A    between atoms: C_9  and  N_12
REMARK    7  A    between atoms: C_13  and  C_15
REMARK    8  A    between atoms: C_21  and  N_22
REMARK                            x       y       z     vdW  Elec       q    Type
REMARK                         _______ _______ _______ _____ _____    ______ ____
ROOT
ATOM      1  N   UNL     1      -7.700   2.401 127.822  0.00  0.00    +0.000 N 
ATOM      2  C   UNL     1      -7.643   3.746 128.182  0.00  0.00    +0.000 C 
ATOM      3  O   UNL     1      -6.938   4.569 127.597  0.00  0.00    +0.000 OA
ATOM      4  H   UNL     1      -8.309   1.776 128.334  0.00  0.00    +0.000 HD
ENDROOT
BRANCH   2   5
ATOM      5  C   UNL     1      -8.445   4.180 129.358  0.00  0.00    +0.000 A 
ATOM      6  C   UNL     1      -9.253   5.324 129.379  0.00  0.00    +0.000 A 
ATOM      7  O   UNL     1      -9.532   6.189 128.343  0.00  0.00    +0.000 OA
ATOM      8  C   UNL     1     -10.445   7.191 128.877  0.00  0.00    +0.000 C 
ATOM      9  C   UNL     1     -10.698   6.930 130.349  0.00  0.00    +0.000 C 
ATOM     10  C   UNL     1      -9.907   5.700 130.548  0.00  0.00    +0.000 A 
ATOM     11  C   UNL     1      -9.790   4.999 131.739  0.00  0.00    +0.000 A 
ATOM     12  C   UNL     1      -8.976   3.860 131.724  0.00  0.00    +0.000 A 
ATOM     13 CL   UNL     1      -8.765   2.935 133.170  0.00  0.00    +0.000 Cl
ATOM     14  C   UNL     1      -8.306   3.454 130.556  0.00  0.00    +0.000 A 
BRANCH  11  15
ATOM     15  N   UNL     1     -10.495   5.416 132.855  0.00  0.00    +0.000 N 
ATOM     16  H   UNL     1     -11.500   5.325 132.906  0.00  0.00    +0.000 HD
ATOM     17  H   UNL     1     -10.012   5.915 133.590  0.00  0.00    +0.000 HD
ENDBRANCH  11  15
ENDBRANCH   2   5
BRANCH   1  21
ATOM     18  N   UNL     1      -7.652  -0.990 126.422  0.00  0.00    +0.000 NA
ATOM     19  C   UNL     1      -8.647   0.052 126.116  0.00  0.00    +0.000 C 
ATOM     20  C   UNL     1      -8.003   1.316 125.586  0.00  0.00    +0.000 C 
ATOM     21  C   UNL     1      -7.015   1.873 126.619  0.00  0.00    +0.000 C 
ATOM     22  C   UNL     1      -5.996   0.769 126.962  0.00  0.00    +0.000 C 
ATOM     23  C   UNL     1      -6.686  -0.517 127.421  0.00  0.00    +0.000 C 
BRANCH  18  24
ATOM     24  C   UNL     1      -8.311  -2.224 126.877  0.00  0.00    +0.000 C 
BRANCH  24  25
ATOM     25  C   UNL     1      -9.454  -2.671 125.965  0.00  0.00    +0.000 C 
BRANCH  25  26
ATOM     26  C   UNL     1      -8.939  -3.366 124.735  0.00  0.00    +0.000 C 
BRANCH  26  28
ATOM     27  C   UNL     1      -8.939  -1.838 122.977  0.00  0.00    +0.000 C 
ATOM     28  O   UNL     1      -9.677  -2.858 123.627  0.00  0.00    +0.000 OA
ENDBRANCH  26  28
ENDBRANCH  25  26
ENDBRANCH  24  25
ENDBRANCH  18  24
ENDBRANCH   1  21
TORSDOF 7
ENDMDL
