MODEL 1
REMARK VINA RESULT:      -5.7      0.000      0.000
REMARK  Name = Pseudoephedrine
REMARK  6 active torsions:
REMARK  status: ('A' for Active; 'I' for Inactive)
REMARK    1  A    between atoms: C_1  and  N_2
REMARK    2  A    between atoms: N_2  and  C_3
REMARK    3  A    between atoms: C_3  and  C_4
REMARK    4  A    between atoms: C_3  and  C_5
REMARK    5  A    between atoms: C_5  and  O_6
REMARK    6  A    between atoms: C_5  and  C_7
REMARK                            x       y       z     vdW  Elec       q    Type
REMARK                         _______ _______ _______ _____ _____    ______ ____
ROOT
ATOM      1  C   UNL     1     -11.440   7.826 128.633  0.00  0.00    +0.000 C 
ENDROOT
BRANCH   1   2
ATOM      2  C   UNL     1     -10.787   7.383 129.943  0.00  0.00    +0.000 A 
ATOM      3  C   UNL     1      -9.392   7.305 130.077  0.00  0.00    +0.000 A 
ATOM      4  C   UNL     1      -8.829   6.682 131.199  0.00  0.00    +0.000 A 
ATOM      5  C   UNL     1      -9.633   6.099 132.178  0.00  0.00    +0.000 A 
ATOM      6  C   UNL     1     -11.011   6.216 132.083  0.00  0.00    +0.000 A 
ATOM      7  C   UNL     1     -11.548   6.937 131.031  0.00  0.00    +0.000 A 
ENDBRANCH   1   2
BRANCH   1   8
ATOM      8  C   UNL     1     -12.929   8.313 128.790  0.00  0.00    +0.000 C 
ATOM      9  C   UNL     1     -13.886   7.683 127.751  0.00  0.00    +0.000 C 
BRANCH   8  11
ATOM     10  C   UNL     1     -13.271  10.419 129.963  0.00  0.00    +0.000 C 
ATOM     11  N   UNL     1     -13.052   9.785 128.669  0.00  0.00    +0.000 NA
ATOM     12  H   UNL     1     -12.204  10.147 128.228  0.00  0.00    +0.000 HD
ENDBRANCH   8  11
ENDBRANCH   1   8
BRANCH   1  13
ATOM     13  O   UNL     1     -10.655   8.874 128.037  0.00  0.00    +0.000 OA
ATOM     14  H   UNL     1     -10.067   8.456 127.389  0.00  0.00    +0.000 HD
ENDBRANCH   1  13
TORSDOF 4
ENDMDL
MODEL 2
REMARK VINA RESULT:      -5.6      2.573      4.898
REMARK  Name = Pseudoephedrine
REMARK  6 active torsions:
REMARK  status: ('A' for Active; 'I' for Inactive)
REMARK    1  A    between atoms: C_1  and  N_2
REMARK    2  A    between atoms: N_2  and  C_3
REMARK    3  A    between atoms: C_3  and  C_4
REMARK    4  A    between atoms: C_3  and  C_5
REMARK    5  A    between atoms: C_5  and  O_6
REMARK    6  A    between atoms: C_5  and  C_7
REMARK                            x       y       z     vdW  Elec       q    Type
REMARK                         _______ _______ _______ _____ _____    ______ ____
ROOT
ATOM      1  C   UNL     1     -11.565   6.170 130.794  0.00  0.00    +0.000 C 
ENDROOT
BRANCH   1   2
ATOM      2  C   UNL     1     -12.426   7.086 129.924  0.00  0.00    +0.000 A 
ATOM      3  C   UNL     1     -13.091   6.606 128.785  0.00  0.00    +0.000 A 
ATOM      4  C   UNL     1     -13.679   7.504 127.884  0.00  0.00    +0.000 A 
ATOM      5  C   UNL     1     -13.586   8.881 128.078  0.00  0.00    +0.000 A 
ATOM      6  C   UNL     1     -12.979   9.367 129.225  0.00  0.00    +0.000 A 
ATOM      7  C   UNL     1     -12.508   8.465 130.163  0.00  0.00    +0.000 A 
ENDBRANCH   1   2
BRANCH   1   8
ATOM      8  C   UNL     1     -10.056   6.606 130.890  0.00  0.00    +0.000 C 
ATOM      9  C   UNL     1      -9.138   5.836 129.912  0.00  0.00    +0.000 C 
BRANCH   8  11
ATOM     10  C   UNL     1      -8.096   6.048 132.223  0.00  0.00    +0.000 C 
ATOM     11  N   UNL     1      -9.505   6.420 132.253  0.00  0.00    +0.000 NA
ATOM     12  H   UNL     1      -9.640   7.285 132.780  0.00  0.00    +0.000 HD
ENDBRANCH   8  11
ENDBRANCH   1   8
BRANCH   1  13
ATOM     13  O   UNL     1     -12.127   6.099 132.116  0.00  0.00    +0.000 OA
ATOM     14  H   UNL     1     -11.483   6.497 132.721  0.00  0.00    +0.000 HD
ENDBRANCH   1  13
TORSDOF 4
ENDMDL
MODEL 3
REMARK VINA RESULT:      -5.5      2.685      4.863
REMARK  Name = Pseudoephedrine
REMARK  6 active torsions:
REMARK  status: ('A' for Active; 'I' for Inactive)
REMARK    1  A    between atoms: C_1  and  N_2
REMARK    2  A    between atoms: N_2  and  C_3
REMARK    3  A    between atoms: C_3  and  C_4
REMARK    4  A    between atoms: C_3  and  C_5
REMARK    5  A    between atoms: C_5  and  O_6
REMARK    6  A    between atoms: C_5  and  C_7
REMARK                            x       y       z     vdW  Elec       q    Type
REMARK                         _______ _______ _______ _____ _____    ______ ____
ROOT
ATOM      1  C   UNL     1     -11.859   5.999 130.896  0.00  0.00    +0.000 C 
ENDROOT
BRANCH   1   2
ATOM      2  C   UNL     1     -12.571   7.039 130.030  0.00  0.00    +0.000 A 
ATOM      3  C   UNL     1     -13.062   6.720 128.755  0.00  0.00    +0.000 A 
ATOM      4  C   UNL     1     -13.499   7.738 127.896  0.00  0.00    +0.000 A 
ATOM      5  C   UNL     1     -13.424   9.078 128.272  0.00  0.00    +0.000 A 
ATOM      6  C   UNL     1     -12.990   9.402 129.548  0.00  0.00    +0.000 A 
ATOM      7  C   UNL     1     -12.674   8.380 130.425  0.00  0.00    +0.000 A 
ENDBRANCH   1   2
BRANCH   1   8
ATOM      8  C   UNL     1     -10.315   5.875 130.613  0.00  0.00    +0.000 C 
ATOM      9  C   UNL     1      -9.705   7.157 130.002  0.00  0.00    +0.000 C 
BRANCH   8  11
ATOM     10  C   UNL     1     -10.111   3.462 130.357  0.00  0.00    +0.000 C 
ATOM     11  N   UNL     1     -10.005   4.755 129.693  0.00  0.00    +0.000 NA
ATOM     12  H   UNL     1     -10.640   4.804 128.893  0.00  0.00    +0.000 HD
ENDBRANCH   8  11
ENDBRANCH   1   8
BRANCH   1  13
ATOM     13  O   UNL     1     -12.066   6.311 132.285  0.00  0.00    +0.000 OA
ATOM     14  H   UNL     1     -11.361   5.870 132.785  0.00  0.00    +0.000 HD
ENDBRANCH   1  13
TORSDOF 4
ENDMDL
MODEL 4
REMARK VINA RESULT:      -5.3      1.827      2.512
REMARK  Name = Pseudoephedrine
REMARK  6 active torsions:
REMARK  status: ('A' for Active; 'I' for Inactive)
REMARK    1  A    between atoms: C_1  and  N_2
REMARK    2  A    between atoms: N_2  and  C_3
REMARK    3  A    between atoms: C_3  and  C_4
REMARK    4  A    between atoms: C_3  and  C_5
REMARK    5  A    between atoms: C_5  and  O_6
REMARK    6  A    between atoms: C_5  and  C_7
REMARK                            x       y       z     vdW  Elec       q    Type
REMARK                         _______ _______ _______ _____ _____    ______ ____
ROOT
ATOM      1  C   UNL     1     -11.651   6.642 130.081  0.00  0.00    +0.000 C 
ENDROOT
BRANCH   1   2
ATOM      2  C   UNL     1     -10.370   6.631 130.916  0.00  0.00    +0.000 A 
ATOM      3  C   UNL     1      -9.142   7.052 130.383  0.00  0.00    +0.000 A 
ATOM      4  C   UNL     1      -7.953   6.816 131.087  0.00  0.00    +0.000 A 
ATOM      5  C   UNL     1      -7.960   6.133 132.301  0.00  0.00    +0.000 A 
ATOM      6  C   UNL     1      -9.170   5.758 132.864  0.00  0.00    +0.000 A 
ATOM      7  C   UNL     1     -10.342   6.103 132.214  0.00  0.00    +0.000 A 
ENDBRANCH   1   2
BRANCH   1   8
ATOM      8  C   UNL     1     -11.625   7.656 128.877  0.00  0.00    +0.000 C 
ATOM      9  C   UNL     1     -12.684   8.775 129.003  0.00  0.00    +0.000 C 
BRANCH   8  11
ATOM     10  C   UNL     1     -10.972   7.515 126.535  0.00  0.00    +0.000 C 
ATOM     11  N   UNL     1     -11.845   6.983 127.575  0.00  0.00    +0.000 NA
ATOM     12  H   UNL     1     -11.691   5.980 127.697  0.00  0.00    +0.000 HD
ENDBRANCH   8  11
ENDBRANCH   1   8
BRANCH   1  13
ATOM     13  O   UNL     1     -11.910   5.317 129.585  0.00  0.00    +0.000 OA
ATOM     14  H   UNL     1     -12.199   5.409 128.664  0.00  0.00    +0.000 HD
ENDBRANCH   1  13
TORSDOF 4
ENDMDL
MODEL 5
REMARK VINA RESULT:      -5.3      2.895      5.259
REMARK  Name = Pseudoephedrine
REMARK  6 active torsions:
REMARK  status: ('A' for Active; 'I' for Inactive)
REMARK    1  A    between atoms: C_1  and  N_2
REMARK    2  A    between atoms: N_2  and  C_3
REMARK    3  A    between atoms: C_3  and  C_4
REMARK    4  A    between atoms: C_3  and  C_5
REMARK    5  A    between atoms: C_5  and  O_6
REMARK    6  A    between atoms: C_5  and  C_7
REMARK                            x       y       z     vdW  Elec       q    Type
REMARK                         _______ _______ _______ _____ _____    ______ ____
ROOT
ATOM      1  C   UNL     1     -10.272   5.662 130.936  0.00  0.00    +0.000 C 
ENDROOT
BRANCH   1   2
ATOM      2  C   UNL     1     -10.862   6.907 130.273  0.00  0.00    +0.000 A 
ATOM      3  C   UNL     1     -12.142   7.380 130.605  0.00  0.00    +0.000 A 
ATOM      4  C   UNL     1     -12.746   8.375 129.825  0.00  0.00    +0.000 A 
ATOM      5  C   UNL     1     -12.113   8.886 128.694  0.00  0.00    +0.000 A 
ATOM      6  C   UNL     1     -10.828   8.466 128.386  0.00  0.00    +0.000 A 
ATOM      7  C   UNL     1     -10.199   7.571 129.232  0.00  0.00    +0.000 A 
ENDBRANCH   1   2
BRANCH   1   8
ATOM      8  C   UNL     1      -9.708   5.911 132.385  0.00  0.00    +0.000 C 
ATOM      9  C   UNL     1      -8.165   6.014 132.425  0.00  0.00    +0.000 C 
BRANCH   8  11
ATOM     10  C   UNL     1      -8.974   4.006 133.711  0.00  0.00    +0.000 C 
ATOM     11  N   UNL     1     -10.105   4.843 133.331  0.00  0.00    +0.000 NA
ATOM     12  H   UNL     1     -10.526   5.277 134.155  0.00  0.00    +0.000 HD
ENDBRANCH   8  11
ENDBRANCH   1   8
BRANCH   1  13
ATOM     13  O   UNL     1     -11.270   4.628 130.984  0.00  0.00    +0.000 OA
ATOM     14  H   UNL     1     -11.574   4.482 130.075  0.00  0.00    +0.000 HD
ENDBRANCH   1  13
TORSDOF 4
ENDMDL
MODEL 6
REMARK VINA RESULT:      -5.3     12.131     12.873
REMARK  Name = Pseudoephedrine
REMARK  6 active torsions:
REMARK  status: ('A' for Active; 'I' for Inactive)
REMARK    1  A    between atoms: C_1  and  N_2
REMARK    2  A    between atoms: N_2  and  C_3
REMARK    3  A    between atoms: C_3  and  C_4
REMARK    4  A    between atoms: C_3  and  C_5
REMARK    5  A    between atoms: C_5  and  O_6
REMARK    6  A    between atoms: C_5  and  C_7
REMARK                            x       y       z     vdW  Elec       q    Type
REMARK                         _______ _______ _______ _____ _____    ______ ____
ROOT
ATOM      1  C   UNL     1      -9.082  -3.487 124.460  0.00  0.00    +0.000 C 
ENDROOT
BRANCH   1   2
ATOM      2  C   UNL     1      -7.690  -3.049 124.003  0.00  0.00    +0.000 A 
ATOM      3  C   UNL     1      -7.516  -2.112 122.972  0.00  0.00    +0.000 A 
ATOM      4  C   UNL     1      -6.245  -1.903 122.420  0.00  0.00    +0.000 A 
ATOM      5  C   UNL     1      -5.143  -2.638 122.854  0.00  0.00    +0.000 A 
ATOM      6  C   UNL     1      -5.291  -3.527 123.907  0.00  0.00    +0.000 A 
ATOM      7  C   UNL     1      -6.527  -3.636 124.519  0.00  0.00    +0.000 A 
ENDBRANCH   1   2
BRANCH   1   8
ATOM      8  C   UNL     1      -9.539  -2.854 125.827  0.00  0.00    +0.000 C 
ATOM      9  C   UNL     1      -9.039  -1.404 126.022  0.00  0.00    +0.000 C 
BRANCH   8  11
ATOM     10  C   UNL     1      -8.179  -2.873 127.847  0.00  0.00    +0.000 C 
ATOM     11  N   UNL     1      -9.073  -3.643 126.991  0.00  0.00    +0.000 NA
ATOM     12  H   UNL     1      -9.890  -3.962 127.517  0.00  0.00    +0.000 HD
ENDBRANCH   8  11
ENDBRANCH   1   8
BRANCH   1  13
ATOM     13  O   UNL     1     -10.043  -3.165 123.439  0.00  0.00    +0.000 OA
ATOM     14  H   UNL     1     -10.825  -3.715 123.601  0.00  0.00    +0.000 HD
ENDBRANCH   1  13
TORSDOF 4
ENDMDL
MODEL 7
REMARK VINA RESULT:      -5.0     11.662     12.571
REMARK  Name = Pseudoephedrine
REMARK  6 active torsions:
REMARK  status: ('A' for Active; 'I' for Inactive)
REMARK    1  A    between atoms: C_1  and  N_2
REMARK    2  A    between atoms: N_2  and  C_3
REMARK    3  A    between atoms: C_3  and  C_4
REMARK    4  A    between atoms: C_3  and  C_5
REMARK    5  A    between atoms: C_5  and  O_6
REMARK    6  A    between atoms: C_5  and  C_7
REMARK                            x       y       z     vdW  Elec       q    Type
REMARK                         _______ _______ _______ _____ _____    ______ ____
ROOT
ATOM      1  C   UNL     1      -8.738  -3.521 125.664  0.00  0.00    +0.000 C 
ENDROOT
BRANCH   1   2
ATOM      2  C   UNL     1      -7.871  -3.128 124.467  0.00  0.00    +0.000 A 
ATOM      3  C   UNL     1      -6.474  -3.267 124.495  0.00  0.00    +0.000 A 
ATOM      4  C   UNL     1      -5.691  -2.690 123.486  0.00  0.00    +0.000 A 
ATOM      5  C   UNL     1      -6.272  -1.943 122.463  0.00  0.00    +0.000 A 
ATOM      6  C   UNL     1      -7.653  -1.842 122.395  0.00  0.00    +0.000 A 
ATOM      7  C   UNL     1      -8.418  -2.516 123.331  0.00  0.00    +0.000 A 
ENDBRANCH   1   2
BRANCH   1   8
ATOM      8  C   UNL     1      -8.136  -3.106 127.058  0.00  0.00    +0.000 C 
ATOM      9  C   UNL     1      -8.871  -3.755 128.254  0.00  0.00    +0.000 C 
BRANCH   8  11
ATOM     10  C   UNL     1      -6.849  -1.114 127.609  0.00  0.00    +0.000 C 
ATOM     11  N   UNL     1      -8.165  -1.639 127.265  0.00  0.00    +0.000 NA
ATOM     12  H   UNL     1      -8.519  -1.197 126.414  0.00  0.00    +0.000 HD
ENDBRANCH   8  11
ENDBRANCH   1   8
BRANCH   1  13
ATOM     13  O   UNL     1     -10.046  -2.942 125.517  0.00  0.00    +0.000 OA
ATOM     14  H   UNL     1     -10.418  -3.283 124.689  0.00  0.00    +0.000 HD
ENDBRANCH   1  13
TORSDOF 4
ENDMDL
MODEL 8
REMARK VINA RESULT:      -4.9      2.574      4.638
REMARK  Name = Pseudoephedrine
REMARK  6 active torsions:
REMARK  status: ('A' for Active; 'I' for Inactive)
REMARK    1  A    between atoms: C_1  and  N_2
REMARK    2  A    between atoms: N_2  and  C_3
REMARK    3  A    between atoms: C_3  and  C_4
REMARK    4  A    between atoms: C_3  and  C_5
REMARK    5  A    between atoms: C_5  and  O_6
REMARK    6  A    between atoms: C_5  and  C_7
REMARK                            x       y       z     vdW  Elec       q    Type
REMARK                         _______ _______ _______ _____ _____    ______ ____
ROOT
ATOM      1  C   UNL     1      -9.573   6.773 130.976  0.00  0.00    +0.000 C 
ENDROOT
BRANCH   1   2
ATOM      2  C   UNL     1     -10.639   7.315 130.022  0.00  0.00    +0.000 A 
ATOM      3  C   UNL     1     -10.338   7.632 128.688  0.00  0.00    +0.000 A 
ATOM      4  C   UNL     1     -11.264   8.337 127.908  0.00  0.00    +0.000 A 
ATOM      5  C   UNL     1     -12.476   8.767 128.444  0.00  0.00    +0.000 A 
ATOM      6  C   UNL     1     -12.808   8.415 129.743  0.00  0.00    +0.000 A 
ATOM      7  C   UNL     1     -11.934   7.618 130.461  0.00  0.00    +0.000 A 
ENDBRANCH   1   2
BRANCH   1   8
ATOM      8  C   UNL     1      -9.763   5.257 131.357  0.00  0.00    +0.000 C 
ATOM      9  C   UNL     1     -10.815   4.538 130.481  0.00  0.00    +0.000 C 
BRANCH   8  11
ATOM     10  C   UNL     1      -9.245   4.226 133.501  0.00  0.00    +0.000 C 
ATOM     11  N   UNL     1     -10.171   5.084 132.771  0.00  0.00    +0.000 NA
ATOM     12  H   UNL     1     -10.230   6.005 133.208  0.00  0.00    +0.000 HD
ENDBRANCH   8  11
ENDBRANCH   1   8
BRANCH   1  13
ATOM     13  O   UNL     1      -8.271   6.960 130.394  0.00  0.00    +0.000 OA
ATOM     14  H   UNL     1      -8.072   7.908 130.439  0.00  0.00    +0.000 HD
ENDBRANCH   1  13
TORSDOF 4
ENDMDL
MODEL 9
REMARK VINA RESULT:      -4.9     11.255     11.911
REMARK  Name = Pseudoephedrine
REMARK  6 active torsions:
REMARK  status: ('A' for Active; 'I' for Inactive)
REMARK    1  A    between atoms: C_1  and  N_2
REMARK    2  A    between atoms: N_2  and  C_3
REMARK    3  A    between atoms: C_3  and  C_4
REMARK    4  A    between atoms: C_3  and  C_5
REMARK    5  A    between atoms: C_5  and  O_6
REMARK    6  A    between atoms: C_5  and  C_7
REMARK                            x       y       z     vdW  Elec       q    Type
REMARK                         _______ _______ _______ _____ _____    ______ ____
ROOT
ATOM      1  C   UNL     1      -8.960  -1.770 124.233  0.00  0.00    +0.000 C 
ENDROOT
BRANCH   1   2
ATOM      2  C   UNL     1      -7.633  -2.384 123.784  0.00  0.00    +0.000 A 
ATOM      3  C   UNL     1      -7.027  -3.427 124.502  0.00  0.00    +0.000 A 
ATOM      4  C   UNL     1      -5.712  -3.811 124.206  0.00  0.00    +0.000 A 
ATOM      5  C   UNL     1      -4.973  -3.149 123.227  0.00  0.00    +0.000 A 
ATOM      6  C   UNL     1      -5.577  -2.154 122.475  0.00  0.00    +0.000 A 
ATOM      7  C   UNL     1      -6.912  -1.867 122.700  0.00  0.00    +0.000 A 
ENDBRANCH   1   2
BRANCH   1   8
ATOM      8  C   UNL     1      -8.815  -0.369 124.937  0.00  0.00    +0.000 C 
ATOM      9  C   UNL     1      -8.321  -0.472 126.399  0.00  0.00    +0.000 C 
BRANCH   8  11
ATOM     10  C   UNL     1      -9.980   1.657 124.254  0.00  0.00    +0.000 C 
ATOM     11  N   UNL     1     -10.091   0.383 124.953  0.00  0.00    +0.000 NA
ATOM     12  H   UNL     1     -10.818  -0.199 124.531  0.00  0.00    +0.000 HD
ENDBRANCH   8  11
ENDBRANCH   1   8
BRANCH   1  13
ATOM     13  O   UNL     1      -9.837  -1.646 123.100  0.00  0.00    +0.000 OA
ATOM     14  H   UNL     1     -10.411  -2.428 123.097  0.00  0.00    +0.000 HD
ENDBRANCH   1  13
TORSDOF 4
ENDMDL
