MODEL 1
REMARK VINA RESULT:      -5.7      0.000      0.000
REMARK  Name = Pyrantel
REMARK  3 active torsions:
REMARK  status: ('A' for Active; 'I' for Inactive)
REMARK    1  A    between atoms: C_2  and  C_12
REMARK    2  A    between atoms: C_3  and  C_5
REMARK    3  A    between atoms: N_10  and  C_11
REMARK                            x       y       z     vdW  Elec       q    Type
REMARK                         _______ _______ _______ _____ _____    ______ ____
ROOT
ATOM      1  C   UNL     1      -8.000   6.988 130.714  0.00  0.00    +0.000 C 
ATOM      2  C   UNL     1      -9.297   6.753 130.959  0.00  0.00    +0.000 C 
ENDROOT
BRANCH   2   3
ATOM      3  C   UNL     1     -10.340   7.325 130.036  0.00  0.00    +0.000 C 
ATOM      4  N   UNL     1      -9.829   7.864 128.978  0.00  0.00    +0.000 NA
ATOM      5  C   UNL     1     -10.650   8.448 127.936  0.00  0.00    +0.000 C 
ATOM      6  C   UNL     1     -12.146   8.441 128.137  0.00  0.00    +0.000 C 
ATOM      7  C   UNL     1     -12.680   7.857 129.417  0.00  0.00    +0.000 C 
ATOM      8  N   UNL     1     -11.695   7.261 130.297  0.00  0.00    +0.000 N 
ATOM      9  C   UNL     1     -12.254   6.808 131.566  0.00  0.00    +0.000 C 
ENDBRANCH   2   3
BRANCH   1  10
ATOM     10  C   UNL     1      -6.928   6.568 131.548  0.00  0.00    +0.000 A 
ATOM     11  C   UNL     1      -5.581   6.767 131.296  0.00  0.00    +0.000 A 
ATOM     12  C   UNL     1      -4.730   6.137 132.246  0.00  0.00    +0.000 A 
ATOM     13  C   UNL     1      -5.449   5.462 133.204  0.00  0.00    +0.000 A 
ATOM     14  S   UNL     1      -7.140   5.617 132.965  0.00  0.00    +0.000 S 
ENDBRANCH   1  10
TORSDOF 2
ENDMDL
MODEL 2
REMARK VINA RESULT:      -5.5      2.423      6.017
REMARK  Name = Pyrantel
REMARK  3 active torsions:
REMARK  status: ('A' for Active; 'I' for Inactive)
REMARK    1  A    between atoms: C_2  and  C_12
REMARK    2  A    between atoms: C_3  and  C_5
REMARK    3  A    between atoms: N_10  and  C_11
REMARK                            x       y       z     vdW  Elec       q    Type
REMARK                         _______ _______ _______ _____ _____    ______ ____
ROOT
ATOM      1  C   UNL     1      -9.466   7.378 129.924  0.00  0.00    +0.000 C 
ATOM      2  C   UNL     1      -9.170   6.726 131.058  0.00  0.00    +0.000 C 
ENDROOT
BRANCH   2   3
ATOM      3  C   UNL     1      -7.732   6.585 131.477  0.00  0.00    +0.000 C 
ATOM      4  N   UNL     1      -6.911   7.118 130.634  0.00  0.00    +0.000 NA
ATOM      5  C   UNL     1      -5.478   7.128 130.852  0.00  0.00    +0.000 C 
ATOM      6  C   UNL     1      -4.955   6.455 132.097  0.00  0.00    +0.000 C 
ATOM      7  C   UNL     1      -5.952   5.795 133.010  0.00  0.00    +0.000 C 
ATOM      8  N   UNL     1      -7.345   5.960 132.648  0.00  0.00    +0.000 N 
ATOM      9  C   UNL     1      -8.258   5.211 133.505  0.00  0.00    +0.000 C 
ENDBRANCH   2   3
BRANCH   1  10
ATOM     10  C   UNL     1     -10.774   7.515 129.384  0.00  0.00    +0.000 A 
ATOM     11  C   UNL     1     -11.183   8.494 128.495  0.00  0.00    +0.000 A 
ATOM     12  C   UNL     1     -12.578   8.456 128.216  0.00  0.00    +0.000 A 
ATOM     13  C   UNL     1     -13.207   7.447 128.907  0.00  0.00    +0.000 A 
ATOM     14  S   UNL     1     -12.108   6.542 129.862  0.00  0.00    +0.000 S 
ENDBRANCH   1  10
TORSDOF 2
ENDMDL
MODEL 3
REMARK VINA RESULT:      -5.2      3.163      6.311
REMARK  Name = Pyrantel
REMARK  3 active torsions:
REMARK  status: ('A' for Active; 'I' for Inactive)
REMARK    1  A    between atoms: C_2  and  C_12
REMARK    2  A    between atoms: C_3  and  C_5
REMARK    3  A    between atoms: N_10  and  C_11
REMARK                            x       y       z     vdW  Elec       q    Type
REMARK                         _______ _______ _______ _____ _____    ______ ____
ROOT
ATOM      1  C   UNL     1     -10.596   6.847 131.059  0.00  0.00    +0.000 C 
ATOM      2  C   UNL     1     -10.377   5.532 131.206  0.00  0.00    +0.000 C 
ENDROOT
BRANCH   2   3
ATOM      3  C   UNL     1      -9.519   5.047 132.344  0.00  0.00    +0.000 C 
ATOM      4  N   UNL     1      -9.038   6.013 133.054  0.00  0.00    +0.000 NA
ATOM      5  C   UNL     1      -8.211   5.777 134.221  0.00  0.00    +0.000 C 
ATOM      6  C   UNL     1      -7.889   4.344 134.572  0.00  0.00    +0.000 C 
ATOM      7  C   UNL     1      -8.423   3.264 133.671  0.00  0.00    +0.000 C 
ATOM      8  N   UNL     1      -9.288   3.708 132.597  0.00  0.00    +0.000 N 
ATOM      9  C   UNL     1      -9.688   2.633 131.695  0.00  0.00    +0.000 C 
ENDBRANCH   2   3
BRANCH   1  10
ATOM     10  C   UNL     1     -11.324   7.433 129.989  0.00  0.00    +0.000 A 
ATOM     11  C   UNL     1     -12.704   7.507 129.893  0.00  0.00    +0.000 A 
ATOM     12  C   UNL     1     -13.156   8.043 128.656  0.00  0.00    +0.000 A 
ATOM     13  C   UNL     1     -12.106   8.364 127.827  0.00  0.00    +0.000 A 
ATOM     14  S   UNL     1     -10.590   8.040 128.558  0.00  0.00    +0.000 S 
ENDBRANCH   1  10
TORSDOF 2
ENDMDL
MODEL 4
REMARK VINA RESULT:      -5.2      2.827      3.212
REMARK  Name = Pyrantel
REMARK  3 active torsions:
REMARK  status: ('A' for Active; 'I' for Inactive)
REMARK    1  A    between atoms: C_2  and  C_12
REMARK    2  A    between atoms: C_3  and  C_5
REMARK    3  A    between atoms: N_10  and  C_11
REMARK                            x       y       z     vdW  Elec       q    Type
REMARK                         _______ _______ _______ _____ _____    ______ ____
ROOT
ATOM      1  C   UNL     1      -9.955   4.860 130.564  0.00  0.00    +0.000 C 
ATOM      2  C   UNL     1     -11.249   5.122 130.330  0.00  0.00    +0.000 C 
ENDROOT
BRANCH   2   3
ATOM      3  C   UNL     1     -11.629   6.378 129.593  0.00  0.00    +0.000 C 
ATOM      4  N   UNL     1     -11.133   6.426 128.400  0.00  0.00    +0.000 NA
ATOM      5  C   UNL     1     -11.396   7.530 127.498  0.00  0.00    +0.000 C 
ATOM      6  C   UNL     1     -12.253   8.663 128.010  0.00  0.00    +0.000 C 
ATOM      7  C   UNL     1     -12.749   8.582 129.429  0.00  0.00    +0.000 C 
ATOM      8  N   UNL     1     -12.432   7.361 130.140  0.00  0.00    +0.000 N 
ATOM      9  C   UNL     1     -12.844   7.383 131.539  0.00  0.00    +0.000 C 
ENDBRANCH   2   3
BRANCH   1  10
ATOM     10  C   UNL     1      -9.474   3.750 131.311  0.00  0.00    +0.000 A 
ATOM     11  C   UNL     1     -10.058   2.495 131.362  0.00  0.00    +0.000 A 
ATOM     12  C   UNL     1      -9.426   1.615 132.282  0.00  0.00    +0.000 A 
ATOM     13  C   UNL     1      -8.370   2.221 132.922  0.00  0.00    +0.000 A 
ATOM     14  S   UNL     1      -8.137   3.833 132.387  0.00  0.00    +0.000 S 
ENDBRANCH   1  10
TORSDOF 2
ENDMDL
MODEL 5
REMARK VINA RESULT:      -5.2      2.451      6.156
REMARK  Name = Pyrantel
REMARK  3 active torsions:
REMARK  status: ('A' for Active; 'I' for Inactive)
REMARK    1  A    between atoms: C_2  and  C_12
REMARK    2  A    between atoms: C_3  and  C_5
REMARK    3  A    between atoms: N_10  and  C_11
REMARK                            x       y       z     vdW  Elec       q    Type
REMARK                         _______ _______ _______ _____ _____    ______ ____
ROOT
ATOM      1  C   UNL     1      -8.242   7.137 130.733  0.00  0.00    +0.000 C 
ATOM      2  C   UNL     1      -7.376   6.515 131.547  0.00  0.00    +0.000 C 
ENDROOT
BRANCH   2   3
ATOM      3  C   UNL     1      -5.903   6.788 131.409  0.00  0.00    +0.000 C 
ATOM      4  N   UNL     1      -5.617   7.457 130.341  0.00  0.00    +0.000 NA
ATOM      5  C   UNL     1      -4.261   7.860 130.022  0.00  0.00    +0.000 C 
ATOM      6  C   UNL     1      -3.165   7.439 130.969  0.00  0.00    +0.000 C 
ATOM      7  C   UNL     1      -3.549   6.606 132.162  0.00  0.00    +0.000 C 
ATOM      8  N   UNL     1      -4.968   6.371 132.337  0.00  0.00    +0.000 N 
ATOM      9  C   UNL     1      -5.272   5.472 133.445  0.00  0.00    +0.000 C 
ENDBRANCH   2   3
BRANCH   1  10
ATOM     10  C   UNL     1      -9.645   6.911 130.715  0.00  0.00    +0.000 A 
ATOM     11  C   UNL     1     -10.529   7.385 129.761  0.00  0.00    +0.000 A 
ATOM     12  C   UNL     1     -11.890   7.101 130.061  0.00  0.00    +0.000 A 
ATOM     13  C   UNL     1     -12.017   6.417 131.247  0.00  0.00    +0.000 A 
ATOM     14  S   UNL     1     -10.495   6.101 131.971  0.00  0.00    +0.000 S 
ENDBRANCH   1  10
TORSDOF 2
ENDMDL
MODEL 6
REMARK VINA RESULT:      -5.2      9.845     10.583
REMARK  Name = Pyrantel
REMARK  3 active torsions:
REMARK  status: ('A' for Active; 'I' for Inactive)
REMARK    1  A    between atoms: C_2  and  C_12
REMARK    2  A    between atoms: C_3  and  C_5
REMARK    3  A    between atoms: N_10  and  C_11
REMARK                            x       y       z     vdW  Elec       q    Type
REMARK                         _______ _______ _______ _____ _____    ______ ____
ROOT
ATOM      1  C   UNL     1      -7.114  -0.294 123.421  0.00  0.00    +0.000 C 
ATOM      2  C   UNL     1      -7.617   0.891 123.797  0.00  0.00    +0.000 C 
ENDROOT
BRANCH   2   3
ATOM      3  C   UNL     1      -6.801   2.139 123.597  0.00  0.00    +0.000 C 
ATOM      4  N   UNL     1      -6.713   2.484 122.354  0.00  0.00    +0.000 NA
ATOM      5  C   UNL     1      -6.002   3.675 121.932  0.00  0.00    +0.000 C 
ATOM      6  C   UNL     1      -5.322   4.499 122.998  0.00  0.00    +0.000 C 
ATOM      7  C   UNL     1      -5.404   4.013 124.420  0.00  0.00    +0.000 C 
ATOM      8  N   UNL     1      -6.223   2.838 124.639  0.00  0.00    +0.000 N 
ATOM      9  C   UNL     1      -6.179   2.351 126.014  0.00  0.00    +0.000 C 
ENDBRANCH   2   3
BRANCH   1  10
ATOM     10  C   UNL     1      -7.752  -1.548 123.624  0.00  0.00    +0.000 A 
ATOM     11  C   UNL     1      -8.924  -1.967 123.016  0.00  0.00    +0.000 A 
ATOM     12  C   UNL     1      -9.392  -3.221 123.496  0.00  0.00    +0.000 A 
ATOM     13  C   UNL     1      -8.567  -3.732 124.470  0.00  0.00    +0.000 A 
ATOM     14  S   UNL     1      -7.225  -2.711 124.775  0.00  0.00    +0.000 S 
ENDBRANCH   1  10
TORSDOF 2
ENDMDL
MODEL 7
REMARK VINA RESULT:      -5.1      9.087     10.174
REMARK  Name = Pyrantel
REMARK  3 active torsions:
REMARK  status: ('A' for Active; 'I' for Inactive)
REMARK    1  A    between atoms: C_2  and  C_12
REMARK    2  A    between atoms: C_3  and  C_5
REMARK    3  A    between atoms: N_10  and  C_11
REMARK                            x       y       z     vdW  Elec       q    Type
REMARK                         _______ _______ _______ _____ _____    ______ ____
ROOT
ATOM      1  C   UNL     1      -7.523   2.396 123.204  0.00  0.00    +0.000 C 
ATOM      2  C   UNL     1      -8.146   3.071 122.227  0.00  0.00    +0.000 C 
ENDROOT
BRANCH   2   3
ATOM      3  C   UNL     1      -7.329   3.773 121.175  0.00  0.00    +0.000 C 
ATOM      4  N   UNL     1      -6.116   4.001 121.555  0.00  0.00    +0.000 NA
ATOM      5  C   UNL     1      -5.142   4.638 120.689  0.00  0.00    +0.000 C 
ATOM      6  C   UNL     1      -5.601   5.067 119.317  0.00  0.00    +0.000 C 
ATOM      7  C   UNL     1      -7.043   4.833 118.954  0.00  0.00    +0.000 C 
ATOM      8  N   UNL     1      -7.833   4.119 119.935  0.00  0.00    +0.000 N 
ATOM      9  C   UNL     1      -9.243   4.015 119.578  0.00  0.00    +0.000 C 
ENDBRANCH   2   3
BRANCH   1  10
ATOM     10  C   UNL     1      -8.177   1.757 124.292  0.00  0.00    +0.000 A 
ATOM     11  C   UNL     1      -7.558   1.247 125.422  0.00  0.00    +0.000 A 
ATOM     12  C   UNL     1      -8.448   0.558 126.291  0.00  0.00    +0.000 A 
ATOM     13  C   UNL     1      -9.733   0.551 125.801  0.00  0.00    +0.000 A 
ATOM     14  S   UNL     1      -9.858   1.397 124.316  0.00  0.00    +0.000 S 
ENDBRANCH   1  10
TORSDOF 2
ENDMDL
MODEL 8
REMARK VINA RESULT:      -5.1      9.531     10.767
REMARK  Name = Pyrantel
REMARK  3 active torsions:
REMARK  status: ('A' for Active; 'I' for Inactive)
REMARK    1  A    between atoms: C_2  and  C_12
REMARK    2  A    between atoms: C_3  and  C_5
REMARK    3  A    between atoms: N_10  and  C_11
REMARK                            x       y       z     vdW  Elec       q    Type
REMARK                         _______ _______ _______ _____ _____    ______ ____
ROOT
ATOM      1  C   UNL     1      -7.465   2.879 122.148  0.00  0.00    +0.000 C 
ATOM      2  C   UNL     1      -6.824   1.907 122.813  0.00  0.00    +0.000 C 
ENDROOT
BRANCH   2   3
ATOM      3  C   UNL     1      -7.559   1.120 123.865  0.00  0.00    +0.000 C 
ATOM      4  N   UNL     1      -8.164   1.874 124.722  0.00  0.00    +0.000 NA
ATOM      5  C   UNL     1      -8.961   1.328 125.803  0.00  0.00    +0.000 C 
ATOM      6  C   UNL     1      -9.039  -0.174 125.926  0.00  0.00    +0.000 C 
ATOM      7  C   UNL     1      -8.262  -1.001 124.937  0.00  0.00    +0.000 C 
ATOM      8  N   UNL     1      -7.585  -0.262 123.891  0.00  0.00    +0.000 N 
ATOM      9  C   UNL     1      -6.764  -1.103 123.028  0.00  0.00    +0.000 C 
ENDBRANCH   2   3
BRANCH   1  10
ATOM     10  C   UNL     1      -6.865   3.739 121.189  0.00  0.00    +0.000 A 
ATOM     11  C   UNL     1      -7.424   4.119 119.980  0.00  0.00    +0.000 A 
ATOM     12  C   UNL     1      -6.547   4.892 119.171  0.00  0.00    +0.000 A 
ATOM     13  C   UNL     1      -5.329   5.083 119.780  0.00  0.00    +0.000 A 
ATOM     14  S   UNL     1      -5.265   4.352 121.329  0.00  0.00    +0.000 S 
ENDBRANCH   1  10
TORSDOF 2
ENDMDL
MODEL 9
REMARK VINA RESULT:      -5.0      9.117     10.184
REMARK  Name = Pyrantel
REMARK  3 active torsions:
REMARK  status: ('A' for Active; 'I' for Inactive)
REMARK    1  A    between atoms: C_2  and  C_12
REMARK    2  A    between atoms: C_3  and  C_5
REMARK    3  A    between atoms: N_10  and  C_11
REMARK                            x       y       z     vdW  Elec       q    Type
REMARK                         _______ _______ _______ _____ _____    ______ ____
ROOT
ATOM      1  C   UNL     1      -6.704   2.929 122.262  0.00  0.00    +0.000 C 
ATOM      2  C   UNL     1      -7.947   2.918 122.765  0.00  0.00    +0.000 C 
ENDROOT
BRANCH   2   3
ATOM      3  C   UNL     1      -8.304   1.921 123.835  0.00  0.00    +0.000 C 
ATOM      4  N   UNL     1      -8.628   0.766 123.353  0.00  0.00    +0.000 NA
ATOM      5  C   UNL     1      -8.976  -0.355 124.203  0.00  0.00    +0.000 C 
ATOM      6  C   UNL     1      -8.986  -0.126 125.695  0.00  0.00    +0.000 C 
ATOM      7  C   UNL     1      -8.664   1.256 126.195  0.00  0.00    +0.000 C 
ATOM      8  N   UNL     1      -8.273   2.218 125.184  0.00  0.00    +0.000 N 
ATOM      9  C   UNL     1      -8.076   3.563 125.712  0.00  0.00    +0.000 C 
ENDBRANCH   2   3
BRANCH   1  10
ATOM     10  C   UNL     1      -6.265   3.768 121.202  0.00  0.00    +0.000 A 
ATOM     11  C   UNL     1      -5.093   4.506 121.187  0.00  0.00    +0.000 A 
ATOM     12  C   UNL     1      -4.970   5.346 120.046  0.00  0.00    +0.000 A 
ATOM     13  C   UNL     1      -6.058   5.235 119.213  0.00  0.00    +0.000 A 
ATOM     14  S   UNL     1      -7.203   4.103 119.801  0.00  0.00    +0.000 S 
ENDBRANCH   1  10
TORSDOF 2
ENDMDL
