MODEL 1
REMARK VINA RESULT:      -4.7      0.000      0.000
REMARK  Name = Pyrazinamide
REMARK  1 active torsions:
REMARK  status: ('A' for Active; 'I' for Inactive)
REMARK    1  A    between atoms: C_2  and  C_4
REMARK                            x       y       z     vdW  Elec       q    Type
REMARK                         _______ _______ _______ _____ _____    ______ ____
ROOT
ATOM      1  C   UNL     1     -11.812   7.149 129.796  0.00  0.00    +0.000 A 
ATOM      2  N   UNL     1     -12.701   7.001 128.774  0.00  0.00    +0.000 NA
ATOM      3  C   UNL     1     -12.253   7.434 127.570  0.00  0.00    +0.000 A 
ATOM      4  C   UNL     1     -10.971   7.931 127.378  0.00  0.00    +0.000 A 
ATOM      5  N   UNL     1     -10.075   8.033 128.386  0.00  0.00    +0.000 NA
ATOM      6  C   UNL     1     -10.531   7.648 129.607  0.00  0.00    +0.000 A 
ENDROOT
BRANCH   1   8
ATOM      7  N   UNL     1     -11.457   5.962 131.888  0.00  0.00    +0.000 N 
ATOM      8  C   UNL     1     -12.263   6.799 131.165  0.00  0.00    +0.000 C 
ATOM      9  O   UNL     1     -13.300   7.257 131.635  0.00  0.00    +0.000 OA
ATOM     10  H   UNL     1     -11.755   5.685 132.814  0.00  0.00    +0.000 HD
ATOM     11  H   UNL     1     -10.594   5.592 131.511  0.00  0.00    +0.000 HD
ENDBRANCH   1   8
TORSDOF 1
ENDMDL
MODEL 2
REMARK VINA RESULT:      -4.5      2.216      3.843
REMARK  Name = Pyrazinamide
REMARK  1 active torsions:
REMARK  status: ('A' for Active; 'I' for Inactive)
REMARK    1  A    between atoms: C_2  and  C_4
REMARK                            x       y       z     vdW  Elec       q    Type
REMARK                         _______ _______ _______ _____ _____    ______ ____
ROOT
ATOM      1  C   UNL     1     -11.359   7.692 129.724  0.00  0.00    +0.000 A 
ATOM      2  N   UNL     1     -10.084   7.302 130.008  0.00  0.00    +0.000 NA
ATOM      3  C   UNL     1      -9.952   6.606 131.164  0.00  0.00    +0.000 A 
ATOM      4  C   UNL     1     -11.033   6.262 131.963  0.00  0.00    +0.000 A 
ATOM      5  N   UNL     1     -12.303   6.610 131.654  0.00  0.00    +0.000 NA
ATOM      6  C   UNL     1     -12.441   7.351 130.523  0.00  0.00    +0.000 A 
ENDROOT
BRANCH   1   8
ATOM      7  N   UNL     1     -12.612   9.440 128.590  0.00  0.00    +0.000 N 
ATOM      8  C   UNL     1     -11.575   8.549 128.533  0.00  0.00    +0.000 C 
ATOM      9  O   UNL     1     -10.843   8.477 127.550  0.00  0.00    +0.000 OA
ATOM     10  H   UNL     1     -12.798  10.018 127.781  0.00  0.00    +0.000 HD
ATOM     11  H   UNL     1     -13.209   9.515 129.404  0.00  0.00    +0.000 HD
ENDBRANCH   1   8
TORSDOF 1
ENDMDL
MODEL 3
REMARK VINA RESULT:      -4.5      2.030      2.061
REMARK  Name = Pyrazinamide
REMARK  1 active torsions:
REMARK  status: ('A' for Active; 'I' for Inactive)
REMARK    1  A    between atoms: C_2  and  C_4
REMARK                            x       y       z     vdW  Elec       q    Type
REMARK                         _______ _______ _______ _____ _____    ______ ____
ROOT
ATOM      1  C   UNL     1     -12.180   6.661 129.683  0.00  0.00    +0.000 A 
ATOM      2  N   UNL     1     -12.711   6.342 128.469  0.00  0.00    +0.000 NA
ATOM      3  C   UNL     1     -13.302   7.378 127.824  0.00  0.00    +0.000 A 
ATOM      4  C   UNL     1     -13.311   8.672 128.326  0.00  0.00    +0.000 A 
ATOM      5  N   UNL     1     -12.741   8.993 129.510  0.00  0.00    +0.000 NA
ATOM      6  C   UNL     1     -12.190   7.953 130.189  0.00  0.00    +0.000 A 
ENDROOT
BRANCH   1   8
ATOM      7  N   UNL     1     -11.460   5.802 131.841  0.00  0.00    +0.000 N 
ATOM      8  C   UNL     1     -11.610   5.563 130.502  0.00  0.00    +0.000 C 
ATOM      9  O   UNL     1     -11.307   4.483 130.004  0.00  0.00    +0.000 OA
ATOM     10  H   UNL     1     -11.048   5.080 132.418  0.00  0.00    +0.000 HD
ATOM     11  H   UNL     1     -11.721   6.685 132.260  0.00  0.00    +0.000 HD
ENDBRANCH   1   8
TORSDOF 1
ENDMDL
MODEL 4
REMARK VINA RESULT:      -4.4      2.080      3.120
REMARK  Name = Pyrazinamide
REMARK  1 active torsions:
REMARK  status: ('A' for Active; 'I' for Inactive)
REMARK    1  A    between atoms: C_2  and  C_4
REMARK                            x       y       z     vdW  Elec       q    Type
REMARK                         _______ _______ _______ _____ _____    ______ ____
ROOT
ATOM      1  C   UNL     1     -11.875   8.153 129.288  0.00  0.00    +0.000 A 
ATOM      2  N   UNL     1     -12.131   7.392 130.389  0.00  0.00    +0.000 NA
ATOM      3  C   UNL     1     -11.047   6.759 130.901  0.00  0.00    +0.000 A 
ATOM      4  C   UNL     1      -9.768   6.920 130.386  0.00  0.00    +0.000 A 
ATOM      5  N   UNL     1      -9.510   7.714 129.321  0.00  0.00    +0.000 NA
ATOM      6  C   UNL     1     -10.597   8.314 128.770  0.00  0.00    +0.000 A 
ENDROOT
BRANCH   1   8
ATOM      7  N   UNL     1     -13.209  10.131 128.823  0.00  0.00    +0.000 N 
ATOM      8  C   UNL     1     -13.024   8.794 128.603  0.00  0.00    +0.000 C 
ATOM      9  O   UNL     1     -13.762   8.156 127.858  0.00  0.00    +0.000 OA
ATOM     10  H   UNL     1     -14.002  10.587 128.390  0.00  0.00    +0.000 HD
ATOM     11  H   UNL     1     -12.596  10.665 129.425  0.00  0.00    +0.000 HD
ENDBRANCH   1   8
TORSDOF 1
ENDMDL
MODEL 5
REMARK VINA RESULT:      -4.3      2.317      2.832
REMARK  Name = Pyrazinamide
REMARK  1 active torsions:
REMARK  status: ('A' for Active; 'I' for Inactive)
REMARK    1  A    between atoms: C_2  and  C_4
REMARK                            x       y       z     vdW  Elec       q    Type
REMARK                         _______ _______ _______ _____ _____    ______ ____
ROOT
ATOM      1  C   UNL     1     -11.107   6.246 131.226  0.00  0.00    +0.000 A 
ATOM      2  N   UNL     1     -12.227   6.876 131.680  0.00  0.00    +0.000 NA
ATOM      3  C   UNL     1     -13.123   7.197 130.714  0.00  0.00    +0.000 A 
ATOM      4  C   UNL     1     -12.946   6.858 129.380  0.00  0.00    +0.000 A 
ATOM      5  N   UNL     1     -11.854   6.191 128.940  0.00  0.00    +0.000 NA
ATOM      6  C   UNL     1     -10.927   5.908 129.892  0.00  0.00    +0.000 A 
ENDROOT
BRANCH   1   8
ATOM      7  N   UNL     1     -10.261   4.952 133.102  0.00  0.00    +0.000 N 
ATOM      8  C   UNL     1     -10.028   5.956 132.202  0.00  0.00    +0.000 C 
ATOM      9  O   UNL     1      -8.968   6.575 132.189  0.00  0.00    +0.000 OA
ATOM     10  H   UNL     1      -9.553   4.752 133.797  0.00  0.00    +0.000 HD
ATOM     11  H   UNL     1     -11.127   4.428 133.109  0.00  0.00    +0.000 HD
ENDBRANCH   1   8
TORSDOF 1
ENDMDL
MODEL 6
REMARK VINA RESULT:      -4.3      1.510      1.512
REMARK  Name = Pyrazinamide
REMARK  1 active torsions:
REMARK  status: ('A' for Active; 'I' for Inactive)
REMARK    1  A    between atoms: C_2  and  C_4
REMARK                            x       y       z     vdW  Elec       q    Type
REMARK                         _______ _______ _______ _____ _____    ______ ____
ROOT
ATOM      1  C   UNL     1     -11.053   6.879 130.046  0.00  0.00    +0.000 A 
ATOM      2  N   UNL     1     -11.937   7.913 129.963  0.00  0.00    +0.000 NA
ATOM      3  C   UNL     1     -11.833   8.654 128.833  0.00  0.00    +0.000 A 
ATOM      4  C   UNL     1     -10.943   8.350 127.812  0.00  0.00    +0.000 A 
ATOM      5  N   UNL     1     -10.098   7.295 127.877  0.00  0.00    +0.000 NA
ATOM      6  C   UNL     1     -10.160   6.575 129.028  0.00  0.00    +0.000 A 
ENDROOT
BRANCH   1   8
ATOM      7  N   UNL     1     -11.142   4.726 131.173  0.00  0.00    +0.000 N 
ATOM      8  C   UNL     1     -11.028   6.084 131.298  0.00  0.00    +0.000 C 
ATOM      9  O   UNL     1     -10.890   6.619 132.394  0.00  0.00    +0.000 OA
ATOM     10  H   UNL     1     -11.156   4.163 132.013  0.00  0.00    +0.000 HD
ATOM     11  H   UNL     1     -11.241   4.278 130.271  0.00  0.00    +0.000 HD
ENDBRANCH   1   8
TORSDOF 1
ENDMDL
MODEL 7
REMARK VINA RESULT:      -4.2      1.738      2.421
REMARK  Name = Pyrazinamide
REMARK  1 active torsions:
REMARK  status: ('A' for Active; 'I' for Inactive)
REMARK    1  A    between atoms: C_2  and  C_4
REMARK                            x       y       z     vdW  Elec       q    Type
REMARK                         _______ _______ _______ _____ _____    ______ ____
ROOT
ATOM      1  C   UNL     1     -10.457   7.066 129.783  0.00  0.00    +0.000 A 
ATOM      2  N   UNL     1      -9.956   7.997 128.924  0.00  0.00    +0.000 NA
ATOM      3  C   UNL     1     -10.651   8.127 127.767  0.00  0.00    +0.000 A 
ATOM      4  C   UNL     1     -11.814   7.417 127.503  0.00  0.00    +0.000 A 
ATOM      5  N   UNL     1     -12.334   6.527 128.379  0.00  0.00    +0.000 NA
ATOM      6  C   UNL     1     -11.618   6.352 129.520  0.00  0.00    +0.000 A 
ENDROOT
BRANCH   1   8
ATOM      7  N   UNL     1      -8.331   6.860 130.945  0.00  0.00    +0.000 N 
ATOM      8  C   UNL     1      -9.695   6.785 131.025  0.00  0.00    +0.000 C 
ATOM      9  O   UNL     1     -10.264   6.517 132.079  0.00  0.00    +0.000 OA
ATOM     10  H   UNL     1      -7.786   6.646 131.771  0.00  0.00    +0.000 HD
ATOM     11  H   UNL     1      -7.857   7.094 130.082  0.00  0.00    +0.000 HD
ENDBRANCH   1   8
TORSDOF 1
ENDMDL
MODEL 8
REMARK VINA RESULT:      -4.1      2.736      4.051
REMARK  Name = Pyrazinamide
REMARK  1 active torsions:
REMARK  status: ('A' for Active; 'I' for Inactive)
REMARK    1  A    between atoms: C_2  and  C_4
REMARK                            x       y       z     vdW  Elec       q    Type
REMARK                         _______ _______ _______ _____ _____    ______ ____
ROOT
ATOM      1  C   UNL     1     -10.033   6.715 128.742  0.00  0.00    +0.000 A 
ATOM      2  N   UNL     1      -9.260   5.604 128.590  0.00  0.00    +0.000 NA
ATOM      3  C   UNL     1      -8.678   5.161 129.732  0.00  0.00    +0.000 A 
ATOM      4  C   UNL     1      -8.900   5.753 130.968  0.00  0.00    +0.000 A 
ATOM      5  N   UNL     1      -9.705   6.829 131.123  0.00  0.00    +0.000 NA
ATOM      6  C   UNL     1     -10.254   7.310 129.977  0.00  0.00    +0.000 A 
ENDROOT
BRANCH   1   8
ATOM      7  N   UNL     1     -11.085   8.608 127.637  0.00  0.00    +0.000 N 
ATOM      8  C   UNL     1     -10.619   7.327 127.524  0.00  0.00    +0.000 C 
ATOM      9  O   UNL     1     -10.664   6.717 126.460  0.00  0.00    +0.000 OA
ATOM     10  H   UNL     1     -11.515   9.039 126.828  0.00  0.00    +0.000 HD
ATOM     11  H   UNL     1     -11.037   9.121 128.508  0.00  0.00    +0.000 HD
ENDBRANCH   1   8
TORSDOF 1
ENDMDL
MODEL 9
REMARK VINA RESULT:      -3.9     10.090     10.599
REMARK  Name = Pyrazinamide
REMARK  1 active torsions:
REMARK  status: ('A' for Active; 'I' for Inactive)
REMARK    1  A    between atoms: C_2  and  C_4
REMARK                            x       y       z     vdW  Elec       q    Type
REMARK                         _______ _______ _______ _____ _____    ______ ____
ROOT
ATOM      1  C   UNL     1      -9.061  -0.223 123.294  0.00  0.00    +0.000 A 
ATOM      2  N   UNL     1      -9.439  -1.522 123.133  0.00  0.00    +0.000 NA
ATOM      3  C   UNL     1      -8.411  -2.405 123.075  0.00  0.00    +0.000 A 
ATOM      4  C   UNL     1      -7.085  -2.027 123.229  0.00  0.00    +0.000 A 
ATOM      5  N   UNL     1      -6.717  -0.741 123.436  0.00  0.00    +0.000 NA
ATOM      6  C   UNL     1      -7.735   0.158 123.446  0.00  0.00    +0.000 A 
ENDROOT
BRANCH   1   8
ATOM      7  N   UNL     1      -9.835   2.008 123.872  0.00  0.00    +0.000 N 
ATOM      8  C   UNL     1     -10.118   0.817 123.260  0.00  0.00    +0.000 C 
ATOM      9  O   UNL     1     -11.189   0.625 122.692  0.00  0.00    +0.000 OA
ATOM     10  H   UNL     1     -10.550   2.725 123.887  0.00  0.00    +0.000 HD
ATOM     11  H   UNL     1      -8.949   2.178 124.330  0.00  0.00    +0.000 HD
ENDBRANCH   1   8
TORSDOF 1
ENDMDL
