MODEL 1
REMARK VINA RESULT:      -5.7      0.000      0.000
REMARK  Name = Pyridoxal phosphate
REMARK  8 active torsions:
REMARK  status: ('A' for Active; 'I' for Inactive)
REMARK    1  A    between atoms: C_1  and  C_2
REMARK    2  A    between atoms: C_5  and  C_6
REMARK    3  A    between atoms: C_6  and  O_7
REMARK    4  A    between atoms: O_7  and  P_8
REMARK    5  A    between atoms: P_8  and  O_9
REMARK    6  A    between atoms: P_8  and  O_10
REMARK    7  A    between atoms: C_12  and  C_13
REMARK    8  A    between atoms: C_15  and  O_16
REMARK                            x       y       z     vdW  Elec       q    Type
REMARK                         _______ _______ _______ _____ _____    ______ ____
ROOT
ATOM      1  C   UNL     1     -13.401  10.067 128.851  0.00  0.00    +0.000 C 
ATOM      2  C   UNL     1     -12.706   8.951 129.566  0.00  0.00    +0.000 A 
ATOM      3  N   UNL     1     -13.218   8.582 130.762  0.00  0.00    +0.000 NA
ATOM      4  C   UNL     1     -12.609   7.571 131.400  0.00  0.00    +0.000 A 
ATOM      5  C   UNL     1     -11.493   6.887 130.906  0.00  0.00    +0.000 A 
ATOM      6  C   UNL     1     -10.968   7.291 129.667  0.00  0.00    +0.000 A 
ATOM      7  C   UNL     1     -11.596   8.338 128.993  0.00  0.00    +0.000 A 
ENDROOT
BRANCH   6   8
ATOM      8  C   UNL     1      -9.771   6.687 129.018  0.00  0.00    +0.000 C 
ATOM      9  O   UNL     1      -9.786   6.348 127.827  0.00  0.00    +0.000 OA
ENDBRANCH   6   8
BRANCH   7  10
ATOM     10  O   UNL     1     -11.161   8.792 127.776  0.00  0.00    +0.000 OA
ATOM     11  H   UNL     1     -10.732   9.670 127.908  0.00  0.00    +0.000 HD
ENDBRANCH   7  10
BRANCH   5  12
ATOM     12  C   UNL     1     -10.939   5.834 131.799  0.00  0.00    +0.000 C 
BRANCH  12  13
ATOM     13  O   UNL     1     -10.024   6.397 132.724  0.00  0.00    +0.000 OA
BRANCH  13  14
ATOM     14  P   UNL     1      -8.765   5.317 133.216  0.00  0.00    +0.000 P 
ATOM     15  O   UNL     1      -7.639   4.350 133.655  0.00  0.00    +0.000 OA
BRANCH  14  16
ATOM     16  O   UNL     1      -8.728   6.263 134.548  0.00  0.00    +0.000 OA
ATOM     17  H   UNL     1      -9.003   5.760 135.338  0.00  0.00    +0.000 HD
ENDBRANCH  14  16
BRANCH  14  18
ATOM     18  O   UNL     1      -9.957   4.303 133.715  0.00  0.00    +0.000 OA
ATOM     19  H   UNL     1     -10.830   4.452 133.316  0.00  0.00    +0.000 HD
ENDBRANCH  14  18
ENDBRANCH  13  14
ENDBRANCH  12  13
ENDBRANCH   5  12
TORSDOF 7
ENDMDL
MODEL 2
REMARK VINA RESULT:      -5.7      9.301     11.096
REMARK  Name = Pyridoxal phosphate
REMARK  8 active torsions:
REMARK  status: ('A' for Active; 'I' for Inactive)
REMARK    1  A    between atoms: C_1  and  C_2
REMARK    2  A    between atoms: C_5  and  C_6
REMARK    3  A    between atoms: C_6  and  O_7
REMARK    4  A    between atoms: O_7  and  P_8
REMARK    5  A    between atoms: P_8  and  O_9
REMARK    6  A    between atoms: P_8  and  O_10
REMARK    7  A    between atoms: C_12  and  C_13
REMARK    8  A    between atoms: C_15  and  O_16
REMARK                            x       y       z     vdW  Elec       q    Type
REMARK                         _______ _______ _______ _____ _____    ______ ____
ROOT
ATOM      1  C   UNL     1      -8.083  -4.041 124.674  0.00  0.00    +0.000 C 
ATOM      2  C   UNL     1      -8.040  -2.591 124.309  0.00  0.00    +0.000 A 
ATOM      3  N   UNL     1      -6.967  -1.887 124.738  0.00  0.00    +0.000 NA
ATOM      4  C   UNL     1      -6.915  -0.590 124.400  0.00  0.00    +0.000 A 
ATOM      5  C   UNL     1      -7.890   0.066 123.640  0.00  0.00    +0.000 A 
ATOM      6  C   UNL     1      -9.002  -0.678 123.212  0.00  0.00    +0.000 A 
ATOM      7  C   UNL     1      -9.065  -2.029 123.555  0.00  0.00    +0.000 A 
ENDROOT
BRANCH   6   8
ATOM      8  C   UNL     1     -10.138  -0.124 122.423  0.00  0.00    +0.000 C 
ATOM      9  O   UNL     1     -11.005   0.585 122.952  0.00  0.00    +0.000 OA
ENDBRANCH   6   8
BRANCH   7  10
ATOM     10  O   UNL     1     -10.105  -2.834 123.173  0.00  0.00    +0.000 OA
ATOM     11  H   UNL     1      -9.867  -3.263 122.317  0.00  0.00    +0.000 HD
ENDBRANCH   7  10
BRANCH   5  12
ATOM     12  C   UNL     1      -7.666   1.520 123.425  0.00  0.00    +0.000 C 
BRANCH  12  13
ATOM     13  O   UNL     1      -7.207   2.135 124.618  0.00  0.00    +0.000 OA
BRANCH  13  14
ATOM     14  P   UNL     1      -8.099   3.546 125.071  0.00  0.00    +0.000 P 
ATOM     15  O   UNL     1      -8.897   4.809 125.478  0.00  0.00    +0.000 OA
BRANCH  14  16
ATOM     16  O   UNL     1      -7.924   3.938 123.494  0.00  0.00    +0.000 OA
ATOM     17  H   UNL     1      -8.276   4.830 123.317  0.00  0.00    +0.000 HD
ENDBRANCH  14  16
BRANCH  14  18
ATOM     18  O   UNL     1      -9.452   2.630 124.908  0.00  0.00    +0.000 OA
ATOM     19  H   UNL     1      -9.457   1.794 125.403  0.00  0.00    +0.000 HD
ENDBRANCH  14  18
ENDBRANCH  13  14
ENDBRANCH  12  13
ENDBRANCH   5  12
TORSDOF 7
ENDMDL
MODEL 3
REMARK VINA RESULT:      -5.7      1.859      2.676
REMARK  Name = Pyridoxal phosphate
REMARK  8 active torsions:
REMARK  status: ('A' for Active; 'I' for Inactive)
REMARK    1  A    between atoms: C_1  and  C_2
REMARK    2  A    between atoms: C_5  and  C_6
REMARK    3  A    between atoms: C_6  and  O_7
REMARK    4  A    between atoms: O_7  and  P_8
REMARK    5  A    between atoms: P_8  and  O_9
REMARK    6  A    between atoms: P_8  and  O_10
REMARK    7  A    between atoms: C_12  and  C_13
REMARK    8  A    between atoms: C_15  and  O_16
REMARK                            x       y       z     vdW  Elec       q    Type
REMARK                         _______ _______ _______ _____ _____    ______ ____
ROOT
ATOM      1  C   UNL     1     -10.919   7.588 126.319  0.00  0.00    +0.000 C 
ATOM      2  C   UNL     1     -10.874   7.295 127.785  0.00  0.00    +0.000 A 
ATOM      3  N   UNL     1      -9.866   6.504 128.217  0.00  0.00    +0.000 NA
ATOM      4  C   UNL     1      -9.811   6.251 129.534  0.00  0.00    +0.000 A 
ATOM      5  C   UNL     1     -10.722   6.752 130.470  0.00  0.00    +0.000 A 
ATOM      6  C   UNL     1     -11.770   7.562 130.002  0.00  0.00    +0.000 A 
ATOM      7  C   UNL     1     -11.834   7.835 128.635  0.00  0.00    +0.000 A 
ENDROOT
BRANCH   6   8
ATOM      8  C   UNL     1     -12.835   8.148 130.862  0.00  0.00    +0.000 C 
ATOM      9  O   UNL     1     -13.126   9.351 130.799  0.00  0.00    +0.000 OA
ENDBRANCH   6   8
BRANCH   7  10
ATOM     10  O   UNL     1     -12.813   8.623 128.091  0.00  0.00    +0.000 OA
ATOM     11  H   UNL     1     -12.548   8.853 127.169  0.00  0.00    +0.000 HD
ENDBRANCH   7  10
BRANCH   5  12
ATOM     12  C   UNL     1     -10.511   6.304 131.873  0.00  0.00    +0.000 C 
BRANCH  12  13
ATOM     13  O   UNL     1      -9.141   6.392 132.223  0.00  0.00    +0.000 OA
BRANCH  13  14
ATOM     14  P   UNL     1      -8.623   5.186 133.351  0.00  0.00    +0.000 P 
ATOM     15  O   UNL     1      -8.159   4.106 134.359  0.00  0.00    +0.000 OA
BRANCH  14  16
ATOM     16  O   UNL     1      -8.877   6.369 134.450  0.00  0.00    +0.000 OA
ATOM     17  H   UNL     1      -9.210   5.997 135.288  0.00  0.00    +0.000 HD
ENDBRANCH  14  16
BRANCH  14  18
ATOM     18  O   UNL     1     -10.161   4.614 133.304  0.00  0.00    +0.000 OA
ATOM     19  H   UNL     1     -10.379   3.939 133.969  0.00  0.00    +0.000 HD
ENDBRANCH  14  18
ENDBRANCH  13  14
ENDBRANCH  12  13
ENDBRANCH   5  12
TORSDOF 7
ENDMDL
MODEL 4
REMARK VINA RESULT:      -5.6      2.254      2.994
REMARK  Name = Pyridoxal phosphate
REMARK  8 active torsions:
REMARK  status: ('A' for Active; 'I' for Inactive)
REMARK    1  A    between atoms: C_1  and  C_2
REMARK    2  A    between atoms: C_5  and  C_6
REMARK    3  A    between atoms: C_6  and  O_7
REMARK    4  A    between atoms: O_7  and  P_8
REMARK    5  A    between atoms: P_8  and  O_9
REMARK    6  A    between atoms: P_8  and  O_10
REMARK    7  A    between atoms: C_12  and  C_13
REMARK    8  A    between atoms: C_15  and  O_16
REMARK                            x       y       z     vdW  Elec       q    Type
REMARK                         _______ _______ _______ _____ _____    ______ ____
ROOT
ATOM      1  C   UNL     1     -11.234   7.637 126.612  0.00  0.00    +0.000 C 
ATOM      2  C   UNL     1     -10.877   7.141 127.977  0.00  0.00    +0.000 A 
ATOM      3  N   UNL     1      -9.764   6.379 128.075  0.00  0.00    +0.000 NA
ATOM      4  C   UNL     1      -9.430   5.944 129.300  0.00  0.00    +0.000 A 
ATOM      5  C   UNL     1     -10.154   6.232 130.462  0.00  0.00    +0.000 A 
ATOM      6  C   UNL     1     -11.313   7.015 130.340  0.00  0.00    +0.000 A 
ATOM      7  C   UNL     1     -11.668   7.476 129.072  0.00  0.00    +0.000 A 
ENDROOT
BRANCH   6   8
ATOM      8  C   UNL     1     -12.207   7.386 131.471  0.00  0.00    +0.000 C 
ATOM      9  O   UNL     1     -13.410   7.088 131.466  0.00  0.00    +0.000 OA
ENDBRANCH   6   8
BRANCH   7  10
ATOM     10  O   UNL     1     -12.774   8.255 128.858  0.00  0.00    +0.000 OA
ATOM     11  H   UNL     1     -13.407   7.747 128.297  0.00  0.00    +0.000 HD
ENDBRANCH   7  10
BRANCH   5  12
ATOM     12  C   UNL     1      -9.640   5.605 131.709  0.00  0.00    +0.000 C 
BRANCH  12  13
ATOM     13  O   UNL     1     -10.105   4.270 131.824  0.00  0.00    +0.000 OA
BRANCH  13  14
ATOM     14  P   UNL     1      -9.068   3.240 132.749  0.00  0.00    +0.000 P 
ATOM     15  O   UNL     1      -8.140   2.317 133.576  0.00  0.00    +0.000 OA
BRANCH  14  16
ATOM     16  O   UNL     1      -9.874   3.879 134.020  0.00  0.00    +0.000 OA
ATOM     17  H   UNL     1      -9.253   4.170 134.713  0.00  0.00    +0.000 HD
ENDBRANCH  14  16
BRANCH  14  18
ATOM     18  O   UNL     1     -10.129   2.031 132.419  0.00  0.00    +0.000 OA
ATOM     19  H   UNL     1     -10.078   1.659 131.523  0.00  0.00    +0.000 HD
ENDBRANCH  14  18
ENDBRANCH  13  14
ENDBRANCH  12  13
ENDBRANCH   5  12
TORSDOF 7
ENDMDL
MODEL 5
REMARK VINA RESULT:      -5.4     10.027     11.306
REMARK  Name = Pyridoxal phosphate
REMARK  8 active torsions:
REMARK  status: ('A' for Active; 'I' for Inactive)
REMARK    1  A    between atoms: C_1  and  C_2
REMARK    2  A    between atoms: C_5  and  C_6
REMARK    3  A    between atoms: C_6  and  O_7
REMARK    4  A    between atoms: O_7  and  P_8
REMARK    5  A    between atoms: P_8  and  O_9
REMARK    6  A    between atoms: P_8  and  O_10
REMARK    7  A    between atoms: C_12  and  C_13
REMARK    8  A    between atoms: C_15  and  O_16
REMARK                            x       y       z     vdW  Elec       q    Type
REMARK                         _______ _______ _______ _____ _____    ______ ____
ROOT
ATOM      1  C   UNL     1      -8.922  -3.593 127.303  0.00  0.00    +0.000 C 
ATOM      2  C   UNL     1      -8.471  -2.519 126.366  0.00  0.00    +0.000 A 
ATOM      3  N   UNL     1      -7.539  -1.657 126.831  0.00  0.00    +0.000 NA
ATOM      4  C   UNL     1      -7.118  -0.701 125.989  0.00  0.00    +0.000 A 
ATOM      5  C   UNL     1      -7.580  -0.549 124.677  0.00  0.00    +0.000 A 
ATOM      6  C   UNL     1      -8.556  -1.446 124.214  0.00  0.00    +0.000 A 
ATOM      7  C   UNL     1      -8.997  -2.447 125.079  0.00  0.00    +0.000 A 
ENDROOT
BRANCH   6   8
ATOM      8  C   UNL     1      -9.170  -1.403 122.857  0.00  0.00    +0.000 C 
ATOM      9  O   UNL     1     -10.064  -0.591 122.580  0.00  0.00    +0.000 OA
ENDBRANCH   6   8
BRANCH   7  10
ATOM     10  O   UNL     1      -9.938  -3.373 124.711  0.00  0.00    +0.000 OA
ATOM     11  H   UNL     1      -9.542  -4.271 124.806  0.00  0.00    +0.000 HD
ENDBRANCH   7  10
BRANCH   5  12
ATOM     12  C   UNL     1      -7.022   0.611 123.931  0.00  0.00    +0.000 C 
BRANCH  12  13
ATOM     13  O   UNL     1      -7.694   1.806 124.294  0.00  0.00    +0.000 OA
BRANCH  13  14
ATOM     14  P   UNL     1      -8.307   2.706 122.950  0.00  0.00    +0.000 P 
ATOM     15  O   UNL     1      -8.855   3.512 121.748  0.00  0.00    +0.000 OA
BRANCH  14  16
ATOM     16  O   UNL     1      -9.753   2.156 123.479  0.00  0.00    +0.000 OA
ATOM     17  H   UNL     1     -10.439   2.272 122.795  0.00  0.00    +0.000 HD
ENDBRANCH  14  16
BRANCH  14  18
ATOM     18  O   UNL     1      -8.224   4.030 123.918  0.00  0.00    +0.000 OA
ATOM     19  H   UNL     1      -8.647   3.942 124.789  0.00  0.00    +0.000 HD
ENDBRANCH  14  18
ENDBRANCH  13  14
ENDBRANCH  12  13
ENDBRANCH   5  12
TORSDOF 7
ENDMDL
MODEL 6
REMARK VINA RESULT:      -5.3      2.012      2.869
REMARK  Name = Pyridoxal phosphate
REMARK  8 active torsions:
REMARK  status: ('A' for Active; 'I' for Inactive)
REMARK    1  A    between atoms: C_1  and  C_2
REMARK    2  A    between atoms: C_5  and  C_6
REMARK    3  A    between atoms: C_6  and  O_7
REMARK    4  A    between atoms: O_7  and  P_8
REMARK    5  A    between atoms: P_8  and  O_9
REMARK    6  A    between atoms: P_8  and  O_10
REMARK    7  A    between atoms: C_12  and  C_13
REMARK    8  A    between atoms: C_15  and  O_16
REMARK                            x       y       z     vdW  Elec       q    Type
REMARK                         _______ _______ _______ _____ _____    ______ ____
ROOT
ATOM      1  C   UNL     1     -13.315   9.742 128.850  0.00  0.00    +0.000 C 
ATOM      2  C   UNL     1     -12.318   8.649 129.067  0.00  0.00    +0.000 A 
ATOM      3  N   UNL     1     -11.490   8.367 128.035  0.00  0.00    +0.000 NA
ATOM      4  C   UNL     1     -10.582   7.399 128.230  0.00  0.00    +0.000 A 
ATOM      5  C   UNL     1     -10.444   6.676 129.420  0.00  0.00    +0.000 A 
ATOM      6  C   UNL     1     -11.319   6.974 130.477  0.00  0.00    +0.000 A 
ATOM      7  C   UNL     1     -12.265   7.983 130.287  0.00  0.00    +0.000 A 
ENDROOT
BRANCH   6   8
ATOM      8  C   UNL     1     -11.322   6.280 131.794  0.00  0.00    +0.000 C 
ATOM      9  O   UNL     1     -10.417   6.462 132.621  0.00  0.00    +0.000 OA
ENDBRANCH   6   8
BRANCH   7  10
ATOM     10  O   UNL     1     -13.152   8.349 131.265  0.00  0.00    +0.000 OA
ATOM     11  H   UNL     1     -12.644   8.536 132.090  0.00  0.00    +0.000 HD
ENDBRANCH   7  10
BRANCH   5  12
ATOM     12  C   UNL     1      -9.409   5.607 129.405  0.00  0.00    +0.000 C 
BRANCH  12  13
ATOM     13  O   UNL     1      -8.131   6.147 129.694  0.00  0.00    +0.000 OA
BRANCH  13  14
ATOM     14  P   UNL     1      -7.250   5.267 130.895  0.00  0.00    +0.000 P 
ATOM     15  O   UNL     1      -6.461   4.479 131.969  0.00  0.00    +0.000 OA
BRANCH  14  16
ATOM     16  O   UNL     1      -7.689   6.509 131.863  0.00  0.00    +0.000 OA
ATOM     17  H   UNL     1      -7.027   7.225 131.830  0.00  0.00    +0.000 HD
ENDBRANCH  14  16
BRANCH  14  18
ATOM     18  O   UNL     1      -8.606   4.362 131.094  0.00  0.00    +0.000 OA
ATOM     19  H   UNL     1      -9.366   4.617 130.545  0.00  0.00    +0.000 HD
ENDBRANCH  14  18
ENDBRANCH  13  14
ENDBRANCH  12  13
ENDBRANCH   5  12
TORSDOF 7
ENDMDL
MODEL 7
REMARK VINA RESULT:      -5.2      1.888      2.287
REMARK  Name = Pyridoxal phosphate
REMARK  8 active torsions:
REMARK  status: ('A' for Active; 'I' for Inactive)
REMARK    1  A    between atoms: C_1  and  C_2
REMARK    2  A    between atoms: C_5  and  C_6
REMARK    3  A    between atoms: C_6  and  O_7
REMARK    4  A    between atoms: O_7  and  P_8
REMARK    5  A    between atoms: P_8  and  O_9
REMARK    6  A    between atoms: P_8  and  O_10
REMARK    7  A    between atoms: C_12  and  C_13
REMARK    8  A    between atoms: C_15  and  O_16
REMARK                            x       y       z     vdW  Elec       q    Type
REMARK                         _______ _______ _______ _____ _____    ______ ____
ROOT
ATOM      1  C   UNL     1     -13.269  10.030 129.000  0.00  0.00    +0.000 C 
ATOM      2  C   UNL     1     -12.562   8.827 129.539  0.00  0.00    +0.000 A 
ATOM      3  N   UNL     1     -13.023   8.322 130.706  0.00  0.00    +0.000 NA
ATOM      4  C   UNL     1     -12.403   7.233 131.186  0.00  0.00    +0.000 A 
ATOM      5  C   UNL     1     -11.326   6.599 130.558  0.00  0.00    +0.000 A 
ATOM      6  C   UNL     1     -10.853   7.144 129.353  0.00  0.00    +0.000 A 
ATOM      7  C   UNL     1     -11.493   8.273 128.842  0.00  0.00    +0.000 A 
ENDROOT
BRANCH   6   8
ATOM      8  C   UNL     1      -9.700   6.607 128.577  0.00  0.00    +0.000 C 
ATOM      9  O   UNL     1      -9.797   6.362 127.366  0.00  0.00    +0.000 OA
ENDBRANCH   6   8
BRANCH   7  10
ATOM     10  O   UNL     1     -11.108   8.866 127.668  0.00  0.00    +0.000 OA
ATOM     11  H   UNL     1     -11.022   9.836 127.825  0.00  0.00    +0.000 HD
ENDBRANCH   7  10
BRANCH   5  12
ATOM     12  C   UNL     1     -10.750   5.439 131.288  0.00  0.00    +0.000 C 
BRANCH  12  13
ATOM     13  O   UNL     1     -10.994   4.234 130.582  0.00  0.00    +0.000 OA
BRANCH  13  14
ATOM     14  P   UNL     1      -9.810   3.004 130.856  0.00  0.00    +0.000 P 
ATOM     15  O   UNL     1      -8.750   1.902 131.102  0.00  0.00    +0.000 OA
BRANCH  14  16
ATOM     16  O   UNL     1      -9.587   3.117 129.240  0.00  0.00    +0.000 OA
ATOM     17  H   UNL     1      -9.234   3.994 129.000  0.00  0.00    +0.000 HD
ENDBRANCH  14  16
BRANCH  14  18
ATOM     18  O   UNL     1      -8.788   4.213 131.291  0.00  0.00    +0.000 OA
ATOM     19  H   UNL     1      -8.750   4.410 132.242  0.00  0.00    +0.000 HD
ENDBRANCH  14  18
ENDBRANCH  13  14
ENDBRANCH  12  13
ENDBRANCH   5  12
TORSDOF 7
ENDMDL
MODEL 8
REMARK VINA RESULT:      -5.2      8.304     10.136
REMARK  Name = Pyridoxal phosphate
REMARK  8 active torsions:
REMARK  status: ('A' for Active; 'I' for Inactive)
REMARK    1  A    between atoms: C_1  and  C_2
REMARK    2  A    between atoms: C_5  and  C_6
REMARK    3  A    between atoms: C_6  and  O_7
REMARK    4  A    between atoms: O_7  and  P_8
REMARK    5  A    between atoms: P_8  and  O_9
REMARK    6  A    between atoms: P_8  and  O_10
REMARK    7  A    between atoms: C_12  and  C_13
REMARK    8  A    between atoms: C_15  and  O_16
REMARK                            x       y       z     vdW  Elec       q    Type
REMARK                         _______ _______ _______ _____ _____    ______ ____
ROOT
ATOM      1  C   UNL     1      -9.352  -3.105 123.330  0.00  0.00    +0.000 C 
ATOM      2  C   UNL     1      -9.072  -1.641 123.457  0.00  0.00    +0.000 A 
ATOM      3  N   UNL     1      -9.939  -0.801 122.848  0.00  0.00    +0.000 NA
ATOM      4  C   UNL     1      -9.702   0.514 122.973  0.00  0.00    +0.000 A 
ATOM      5  C   UNL     1      -8.628   1.057 123.686  0.00  0.00    +0.000 A 
ATOM      6  C   UNL     1      -7.732   0.169 124.303  0.00  0.00    +0.000 A 
ATOM      7  C   UNL     1      -7.970  -1.201 124.184  0.00  0.00    +0.000 A 
ENDROOT
BRANCH   6   8
ATOM      8  C   UNL     1      -6.526   0.583 125.073  0.00  0.00    +0.000 C 
ATOM      9  O   UNL     1      -6.452   0.408 126.298  0.00  0.00    +0.000 OA
ENDBRANCH   6   8
BRANCH   7  10
ATOM     10  O   UNL     1      -7.157  -2.140 124.760  0.00  0.00    +0.000 OA
ATOM     11  H   UNL     1      -7.581  -2.446 125.596  0.00  0.00    +0.000 HD
ENDBRANCH   7  10
BRANCH   5  12
ATOM     12  C   UNL     1      -8.519   2.540 123.652  0.00  0.00    +0.000 C 
BRANCH  12  13
ATOM     13  O   UNL     1      -8.958   3.100 124.878  0.00  0.00    +0.000 OA
BRANCH  13  14
ATOM     14  P   UNL     1      -7.806   4.152 125.625  0.00  0.00    +0.000 P 
ATOM     15  O   UNL     1      -6.774   5.094 126.292  0.00  0.00    +0.000 OA
BRANCH  14  16
ATOM     16  O   UNL     1      -9.045   5.219 125.607  0.00  0.00    +0.000 OA
ATOM     17  H   UNL     1      -9.062   5.717 124.769  0.00  0.00    +0.000 HD
ENDBRANCH  14  16
BRANCH  14  18
ATOM     18  O   UNL     1      -8.188   3.415 127.041  0.00  0.00    +0.000 OA
ATOM     19  H   UNL     1      -8.406   2.469 126.977  0.00  0.00    +0.000 HD
ENDBRANCH  14  18
ENDBRANCH  13  14
ENDBRANCH  12  13
ENDBRANCH   5  12
TORSDOF 7
ENDMDL
MODEL 9
REMARK VINA RESULT:      -5.1      8.671     10.993
REMARK  Name = Pyridoxal phosphate
REMARK  8 active torsions:
REMARK  status: ('A' for Active; 'I' for Inactive)
REMARK    1  A    between atoms: C_1  and  C_2
REMARK    2  A    between atoms: C_5  and  C_6
REMARK    3  A    between atoms: C_6  and  O_7
REMARK    4  A    between atoms: O_7  and  P_8
REMARK    5  A    between atoms: P_8  and  O_9
REMARK    6  A    between atoms: P_8  and  O_10
REMARK    7  A    between atoms: C_12  and  C_13
REMARK    8  A    between atoms: C_15  and  O_16
REMARK                            x       y       z     vdW  Elec       q    Type
REMARK                         _______ _______ _______ _____ _____    ______ ____
ROOT
ATOM      1  C   UNL     1      -8.729  -3.689 124.495  0.00  0.00    +0.000 C 
ATOM      2  C   UNL     1      -8.932  -2.209 124.428  0.00  0.00    +0.000 A 
ATOM      3  N   UNL     1      -9.281  -1.697 123.226  0.00  0.00    +0.000 NA
ATOM      4  C   UNL     1      -9.480  -0.371 123.163  0.00  0.00    +0.000 A 
ATOM      5  C   UNL     1      -9.350   0.497 124.252  0.00  0.00    +0.000 A 
ATOM      6  C   UNL     1      -8.974  -0.051 125.490  0.00  0.00    +0.000 A 
ATOM      7  C   UNL     1      -8.770  -1.428 125.568  0.00  0.00    +0.000 A 
ENDROOT
BRANCH   6   8
ATOM      8  C   UNL     1      -8.766   0.738 126.736  0.00  0.00    +0.000 C 
ATOM      9  O   UNL     1      -7.714   0.651 127.385  0.00  0.00    +0.000 OA
ENDBRANCH   6   8
BRANCH   7  10
ATOM     10  O   UNL     1      -8.413  -2.051 126.735  0.00  0.00    +0.000 OA
ATOM     11  H   UNL     1      -7.727  -2.729 126.527  0.00  0.00    +0.000 HD
ENDBRANCH   7  10
BRANCH   5  12
ATOM     12  C   UNL     1      -9.561   1.939 123.952  0.00  0.00    +0.000 C 
BRANCH  12  13
ATOM     13  O   UNL     1      -9.233   2.220 122.602  0.00  0.00    +0.000 OA
BRANCH  13  14
ATOM     14  P   UNL     1      -7.756   3.098 122.403  0.00  0.00    +0.000 P 
ATOM     15  O   UNL     1      -6.434   3.883 122.225  0.00  0.00    +0.000 OA
BRANCH  14  16
ATOM     16  O   UNL     1      -8.651   4.008 121.381  0.00  0.00    +0.000 OA
ATOM     17  H   UNL     1      -9.510   3.583 121.201  0.00  0.00    +0.000 HD
ENDBRANCH  14  16
BRANCH  14  18
ATOM     18  O   UNL     1      -8.149   3.892 123.785  0.00  0.00    +0.000 OA
ATOM     19  H   UNL     1      -8.715   4.674 123.674  0.00  0.00    +0.000 HD
ENDBRANCH  14  18
ENDBRANCH  13  14
ENDBRANCH  12  13
ENDBRANCH   5  12
TORSDOF 7
ENDMDL
