MODEL 1
REMARK VINA RESULT:      -4.3      0.000      0.000
REMARK  Name = Pyrithione
REMARK  1 active torsions:
REMARK  status: ('A' for Active; 'I' for Inactive)
REMARK    1  A    between atoms: C_3  and  S_4
REMARK                            x       y       z     vdW  Elec       q    Type
REMARK                         _______ _______ _______ _____ _____    ______ ____
ROOT
ATOM      1  O   UNL     1     -13.154   7.171 131.519  0.00  0.00    +0.000 OA
ATOM      2  N   UNL     1     -12.323   7.469 130.596  0.00  0.00    +0.000 N 
ATOM      3  C   UNL     1     -10.995   7.028 130.622  0.00  0.00    +0.000 A 
ATOM      4  C   UNL     1     -10.120   7.381 129.583  0.00  0.00    +0.000 A 
ATOM      5  C   UNL     1     -10.542   8.241 128.571  0.00  0.00    +0.000 A 
ATOM      6  C   UNL     1     -11.853   8.688 128.544  0.00  0.00    +0.000 A 
ATOM      7  C   UNL     1     -12.741   8.263 129.533  0.00  0.00    +0.000 A 
ENDROOT
BRANCH   3   8
ATOM      8  S   UNL     1     -10.380   6.049 131.986  0.00  0.00    +0.000 S 
ATOM      9  H   UNL     1      -9.926   7.104 132.688  0.00  0.00    +0.000 HD
ENDBRANCH   3   8
TORSDOF 1
ENDMDL
MODEL 2
REMARK VINA RESULT:      -4.3      2.729      3.565
REMARK  Name = Pyrithione
REMARK  1 active torsions:
REMARK  status: ('A' for Active; 'I' for Inactive)
REMARK    1  A    between atoms: C_3  and  S_4
REMARK                            x       y       z     vdW  Elec       q    Type
REMARK                         _______ _______ _______ _____ _____    ______ ____
ROOT
ATOM      1  O   UNL     1     -10.007   8.396 128.479  0.00  0.00    +0.000 OA
ATOM      2  N   UNL     1     -10.571   7.815 129.467  0.00  0.00    +0.000 N 
ATOM      3  C   UNL     1     -11.935   7.968 129.737  0.00  0.00    +0.000 A 
ATOM      4  C   UNL     1     -12.509   7.308 130.834  0.00  0.00    +0.000 A 
ATOM      5  C   UNL     1     -11.710   6.572 131.708  0.00  0.00    +0.000 A 
ATOM      6  C   UNL     1     -10.356   6.423 131.450  0.00  0.00    +0.000 A 
ATOM      7  C   UNL     1      -9.810   7.011 130.309  0.00  0.00    +0.000 A 
ENDROOT
BRANCH   3   8
ATOM      8  S   UNL     1     -12.958   9.028 128.725  0.00  0.00    +0.000 S 
ATOM      9  H   UNL     1     -13.417   9.761 129.756  0.00  0.00    +0.000 HD
ENDBRANCH   3   8
TORSDOF 1
ENDMDL
MODEL 3
REMARK VINA RESULT:      -4.2      1.892      2.346
REMARK  Name = Pyrithione
REMARK  1 active torsions:
REMARK  status: ('A' for Active; 'I' for Inactive)
REMARK    1  A    between atoms: C_3  and  S_4
REMARK                            x       y       z     vdW  Elec       q    Type
REMARK                         _______ _______ _______ _____ _____    ______ ____
ROOT
ATOM      1  O   UNL     1      -9.047   7.551 129.900  0.00  0.00    +0.000 OA
ATOM      2  N   UNL     1     -10.279   7.682 129.587  0.00  0.00    +0.000 N 
ATOM      3  C   UNL     1     -11.306   7.157 130.379  0.00  0.00    +0.000 A 
ATOM      4  C   UNL     1     -12.645   7.328 129.994  0.00  0.00    +0.000 A 
ATOM      5  C   UNL     1     -12.953   7.940 128.780  0.00  0.00    +0.000 A 
ATOM      6  C   UNL     1     -11.940   8.455 127.986  0.00  0.00    +0.000 A 
ATOM      7  C   UNL     1     -10.617   8.358 128.419  0.00  0.00    +0.000 A 
ENDROOT
BRANCH   3   8
ATOM      8  S   UNL     1     -10.938   6.233 131.865  0.00  0.00    +0.000 S 
ATOM      9  H   UNL     1     -11.276   5.040 131.343  0.00  0.00    +0.000 HD
ENDBRANCH   3   8
TORSDOF 1
ENDMDL
MODEL 4
REMARK VINA RESULT:      -4.2      1.935      2.744
REMARK  Name = Pyrithione
REMARK  1 active torsions:
REMARK  status: ('A' for Active; 'I' for Inactive)
REMARK    1  A    between atoms: C_3  and  S_4
REMARK                            x       y       z     vdW  Elec       q    Type
REMARK                         _______ _______ _______ _____ _____    ______ ____
ROOT
ATOM      1  O   UNL     1     -13.312   7.143 131.471  0.00  0.00    +0.000 OA
ATOM      2  N   UNL     1     -12.086   7.114 131.113  0.00  0.00    +0.000 N 
ATOM      3  C   UNL     1     -11.641   7.725 129.937  0.00  0.00    +0.000 A 
ATOM      4  C   UNL     1     -10.283   7.666 129.587  0.00  0.00    +0.000 A 
ATOM      5  C   UNL     1      -9.390   6.925 130.360  0.00  0.00    +0.000 A 
ATOM      6  C   UNL     1      -9.826   6.310 131.523  0.00  0.00    +0.000 A 
ATOM      7  C   UNL     1     -11.160   6.446 131.910  0.00  0.00    +0.000 A 
ENDROOT
BRANCH   3   8
ATOM      8  S   UNL     1     -12.787   8.553 128.843  0.00  0.00    +0.000 S 
ATOM      9  H   UNL     1     -13.789   8.597 129.740  0.00  0.00    +0.000 HD
ENDBRANCH   3   8
TORSDOF 1
ENDMDL
MODEL 5
REMARK VINA RESULT:      -4.1      2.530      3.178
REMARK  Name = Pyrithione
REMARK  1 active torsions:
REMARK  status: ('A' for Active; 'I' for Inactive)
REMARK    1  A    between atoms: C_3  and  S_4
REMARK                            x       y       z     vdW  Elec       q    Type
REMARK                         _______ _______ _______ _____ _____    ______ ____
ROOT
ATOM      1  O   UNL     1     -10.635   5.607 129.205  0.00  0.00    +0.000 OA
ATOM      2  N   UNL     1     -11.397   6.553 129.600  0.00  0.00    +0.000 N 
ATOM      3  C   UNL     1     -11.647   7.683 128.813  0.00  0.00    +0.000 A 
ATOM      4  C   UNL     1     -12.493   8.696 129.291  0.00  0.00    +0.000 A 
ATOM      5  C   UNL     1     -13.015   8.624 130.581  0.00  0.00    +0.000 A 
ATOM      6  C   UNL     1     -12.765   7.511 131.369  0.00  0.00    +0.000 A 
ATOM      7  C   UNL     1     -11.994   6.469 130.854  0.00  0.00    +0.000 A 
ENDROOT
BRANCH   3   8
ATOM      8  S   UNL     1     -10.871   7.878 127.215  0.00  0.00    +0.000 S 
ATOM      9  H   UNL     1      -9.954   8.766 127.641  0.00  0.00    +0.000 HD
ENDBRANCH   3   8
TORSDOF 1
ENDMDL
MODEL 6
REMARK VINA RESULT:      -3.9      2.063      2.572
REMARK  Name = Pyrithione
REMARK  1 active torsions:
REMARK  status: ('A' for Active; 'I' for Inactive)
REMARK    1  A    between atoms: C_3  and  S_4
REMARK                            x       y       z     vdW  Elec       q    Type
REMARK                         _______ _______ _______ _____ _____    ______ ____
ROOT
ATOM      1  O   UNL     1      -9.258   7.045 129.289  0.00  0.00    +0.000 OA
ATOM      2  N   UNL     1     -10.357   7.181 129.926  0.00  0.00    +0.000 N 
ATOM      3  C   UNL     1     -10.623   6.477 131.105  0.00  0.00    +0.000 A 
ATOM      4  C   UNL     1     -11.845   6.661 131.771  0.00  0.00    +0.000 A 
ATOM      5  C   UNL     1     -12.831   7.475 131.215  0.00  0.00    +0.000 A 
ATOM      6  C   UNL     1     -12.577   8.169 130.042  0.00  0.00    +0.000 A 
ATOM      7  C   UNL     1     -11.327   8.047 129.433  0.00  0.00    +0.000 A 
ENDROOT
BRANCH   3   8
ATOM      8  S   UNL     1      -9.441   5.309 131.764  0.00  0.00    +0.000 S 
ATOM      9  H   UNL     1      -8.370   5.902 131.204  0.00  0.00    +0.000 HD
ENDBRANCH   3   8
TORSDOF 1
ENDMDL
MODEL 7
REMARK VINA RESULT:      -3.9     10.315     10.882
REMARK  Name = Pyrithione
REMARK  1 active torsions:
REMARK  status: ('A' for Active; 'I' for Inactive)
REMARK    1  A    between atoms: C_3  and  S_4
REMARK                            x       y       z     vdW  Elec       q    Type
REMARK                         _______ _______ _______ _____ _____    ______ ____
ROOT
ATOM      1  O   UNL     1      -5.681   3.709 123.377  0.00  0.00    +0.000 OA
ATOM      2  N   UNL     1      -6.028   3.959 122.174  0.00  0.00    +0.000 N 
ATOM      3  C   UNL     1      -7.283   3.597 121.672  0.00  0.00    +0.000 A 
ATOM      4  C   UNL     1      -7.618   3.896 120.342  0.00  0.00    +0.000 A 
ATOM      5  C   UNL     1      -6.675   4.471 119.493  0.00  0.00    +0.000 A 
ATOM      6  C   UNL     1      -5.427   4.825 119.981  0.00  0.00    +0.000 A 
ATOM      7  C   UNL     1      -5.132   4.604 121.327  0.00  0.00    +0.000 A 
ENDROOT
BRANCH   3   8
ATOM      8  S   UNL     1      -8.461   2.720 122.692  0.00  0.00    +0.000 S 
ATOM      9  H   UNL     1      -9.520   3.005 121.912  0.00  0.00    +0.000 HD
ENDBRANCH   3   8
TORSDOF 1
ENDMDL
MODEL 8
REMARK VINA RESULT:      -3.6      3.162      4.245
REMARK  Name = Pyrithione
REMARK  1 active torsions:
REMARK  status: ('A' for Active; 'I' for Inactive)
REMARK    1  A    between atoms: C_3  and  S_4
REMARK                            x       y       z     vdW  Elec       q    Type
REMARK                         _______ _______ _______ _____ _____    ______ ____
ROOT
ATOM      1  O   UNL     1      -9.389   7.657 129.555  0.00  0.00    +0.000 OA
ATOM      2  N   UNL     1      -9.112   7.012 130.622  0.00  0.00    +0.000 N 
ATOM      3  C   UNL     1     -10.107   6.478 131.447  0.00  0.00    +0.000 A 
ATOM      4  C   UNL     1      -9.752   5.775 132.609  0.00  0.00    +0.000 A 
ATOM      5  C   UNL     1      -8.415   5.684 132.993  0.00  0.00    +0.000 A 
ATOM      6  C   UNL     1      -7.424   6.219 132.184  0.00  0.00    +0.000 A 
ATOM      7  C   UNL     1      -7.780   6.839 130.986  0.00  0.00    +0.000 A 
ENDROOT
BRANCH   3   8
ATOM      8  S   UNL     1     -11.838   6.709 131.064  0.00  0.00    +0.000 S 
ATOM      9  H   UNL     1     -11.666   7.909 130.480  0.00  0.00    +0.000 HD
ENDBRANCH   3   8
TORSDOF 1
ENDMDL
MODEL 9
REMARK VINA RESULT:      -3.6     11.804     12.308
REMARK  Name = Pyrithione
REMARK  1 active torsions:
REMARK  status: ('A' for Active; 'I' for Inactive)
REMARK    1  A    between atoms: C_3  and  S_4
REMARK                            x       y       z     vdW  Elec       q    Type
REMARK                         _______ _______ _______ _____ _____    ______ ____
ROOT
ATOM      1  O   UNL     1      -9.613  -2.422 124.953  0.00  0.00    +0.000 OA
ATOM      2  N   UNL     1      -8.439  -2.370 124.453  0.00  0.00    +0.000 N 
ATOM      3  C   UNL     1      -8.010  -1.290 123.675  0.00  0.00    +0.000 A 
ATOM      4  C   UNL     1      -6.709  -1.278 123.149  0.00  0.00    +0.000 A 
ATOM      5  C   UNL     1      -5.872  -2.379 123.323  0.00  0.00    +0.000 A 
ATOM      6  C   UNL     1      -6.294  -3.457 124.085  0.00  0.00    +0.000 A 
ATOM      7  C   UNL     1      -7.557  -3.423 124.678  0.00  0.00    +0.000 A 
ENDROOT
BRANCH   3   8
ATOM      8  S   UNL     1      -9.111   0.069 123.305  0.00  0.00    +0.000 S 
ATOM      9  H   UNL     1     -10.053  -0.304 124.191  0.00  0.00    +0.000 HD
ENDBRANCH   3   8
TORSDOF 1
ENDMDL
