MODEL 1
REMARK VINA RESULT:      -6.6      0.000      0.000
REMARK  Name = Pyrimethamine
REMARK  3 active torsions:
REMARK  status: ('A' for Active; 'I' for Inactive)
REMARK    1  A    between atoms: C_1  and  C_2
REMARK    2  A    between atoms: C_2  and  C_3
REMARK    3  A    between atoms: C_4  and  C_11
REMARK                            x       y       z     vdW  Elec       q    Type
REMARK                         _______ _______ _______ _____ _____    ______ ____
ROOT
ATOM      1  C   UNL     1      -8.188   1.145 124.314  0.00  0.00    +0.000 A 
ATOM      2  C   UNL     1      -7.942   2.473 123.926  0.00  0.00    +0.000 A 
ATOM      3  C   UNL     1      -7.964   3.402 124.973  0.00  0.00    +0.000 A 
ATOM      4  N   UNL     1      -7.591   4.730 124.758  0.00  0.00    +0.000 N 
ATOM      5  N   UNL     1      -8.194   3.074 126.257  0.00  0.00    +0.000 NA
ATOM      6  C   UNL     1      -8.407   1.790 126.524  0.00  0.00    +0.000 A 
ATOM      7  N   UNL     1      -8.640   1.447 127.833  0.00  0.00    +0.000 N 
ATOM      8  N   UNL     1      -8.412   0.814 125.618  0.00  0.00    +0.000 NA
ATOM      9  H   UNL     1      -7.781   5.111 123.840  0.00  0.00    +0.000 HD
ATOM     10  H   UNL     1      -7.809   5.325 125.547  0.00  0.00    +0.000 HD
ATOM     11  H   UNL     1      -8.542   2.171 128.521  0.00  0.00    +0.000 HD
ATOM     12  H   UNL     1      -8.740   0.475 128.060  0.00  0.00    +0.000 HD
ENDROOT
BRANCH   2  13
ATOM     13  C   UNL     1      -7.653   2.928 122.545  0.00  0.00    +0.000 A 
ATOM     14  C   UNL     1      -8.695   3.310 121.684  0.00  0.00    +0.000 A 
ATOM     15  C   UNL     1      -8.423   3.871 120.431  0.00  0.00    +0.000 A 
ATOM     16  C   UNL     1      -7.107   4.132 120.060  0.00  0.00    +0.000 A 
ATOM     17 CL   UNL     1      -6.769   4.930 118.576  0.00  0.00    +0.000 Cl
ATOM     18  C   UNL     1      -6.061   3.737 120.885  0.00  0.00    +0.000 A 
ATOM     19  C   UNL     1      -6.336   3.029 122.060  0.00  0.00    +0.000 A 
ENDBRANCH   2  13
BRANCH   1  21
ATOM     20  C   UNL     1      -6.805  -0.755 123.222  0.00  0.00    +0.000 C 
ATOM     21  C   UNL     1      -8.144  -0.083 123.415  0.00  0.00    +0.000 C 
ENDBRANCH   1  21
TORSDOF 2
ENDMDL
MODEL 2
REMARK VINA RESULT:      -6.4      5.255      7.453
REMARK  Name = Pyrimethamine
REMARK  3 active torsions:
REMARK  status: ('A' for Active; 'I' for Inactive)
REMARK    1  A    between atoms: C_1  and  C_2
REMARK    2  A    between atoms: C_2  and  C_3
REMARK    3  A    between atoms: C_4  and  C_11
REMARK                            x       y       z     vdW  Elec       q    Type
REMARK                         _______ _______ _______ _____ _____    ______ ____
ROOT
ATOM      1  C   UNL     1      -8.879  -1.405 125.439  0.00  0.00    +0.000 A 
ATOM      2  C   UNL     1      -8.287  -1.021 126.654  0.00  0.00    +0.000 A 
ATOM      3  C   UNL     1      -8.438   0.333 126.976  0.00  0.00    +0.000 A 
ATOM      4  N   UNL     1      -8.032   0.821 128.220  0.00  0.00    +0.000 N 
ATOM      5  N   UNL     1      -9.097   1.215 126.203  0.00  0.00    +0.000 NA
ATOM      6  C   UNL     1      -9.630   0.752 125.077  0.00  0.00    +0.000 A 
ATOM      7  N   UNL     1     -10.305   1.645 124.285  0.00  0.00    +0.000 N 
ATOM      8  N   UNL     1      -9.554  -0.511 124.662  0.00  0.00    +0.000 NA
ATOM      9  H   UNL     1      -7.239   0.361 128.650  0.00  0.00    +0.000 HD
ATOM     10  H   UNL     1      -8.042   1.832 128.259  0.00  0.00    +0.000 HD
ATOM     11  H   UNL     1     -10.439   2.571 124.648  0.00  0.00    +0.000 HD
ATOM     12  H   UNL     1     -10.767   1.300 123.463  0.00  0.00    +0.000 HD
ENDROOT
BRANCH   2  13
ATOM     13  C   UNL     1      -7.565  -1.923 127.583  0.00  0.00    +0.000 A 
ATOM     14  C   UNL     1      -6.161  -1.945 127.614  0.00  0.00    +0.000 A 
ATOM     15  C   UNL     1      -5.475  -2.687 128.582  0.00  0.00    +0.000 A 
ATOM     16  C   UNL     1      -6.185  -3.349 129.580  0.00  0.00    +0.000 A 
ATOM     17 CL   UNL     1      -5.349  -4.163 130.842  0.00  0.00    +0.000 Cl
ATOM     18  C   UNL     1      -7.574  -3.362 129.552  0.00  0.00    +0.000 A 
ATOM     19  C   UNL     1      -8.251  -2.755 128.488  0.00  0.00    +0.000 A 
ENDBRANCH   2  13
BRANCH   1  21
ATOM     20  C   UNL     1      -9.371  -2.968 123.430  0.00  0.00    +0.000 C 
ATOM     21  C   UNL     1      -8.950  -2.817 124.874  0.00  0.00    +0.000 C 
ENDBRANCH   1  21
TORSDOF 2
ENDMDL
MODEL 3
REMARK VINA RESULT:      -5.9      5.266      7.760
REMARK  Name = Pyrimethamine
REMARK  3 active torsions:
REMARK  status: ('A' for Active; 'I' for Inactive)
REMARK    1  A    between atoms: C_1  and  C_2
REMARK    2  A    between atoms: C_2  and  C_3
REMARK    3  A    between atoms: C_4  and  C_11
REMARK                            x       y       z     vdW  Elec       q    Type
REMARK                         _______ _______ _______ _____ _____    ______ ____
ROOT
ATOM      1  C   UNL     1      -9.038  -0.272 125.598  0.00  0.00    +0.000 A 
ATOM      2  C   UNL     1      -8.593  -1.604 125.625  0.00  0.00    +0.000 A 
ATOM      3  C   UNL     1      -8.738  -2.293 124.414  0.00  0.00    +0.000 A 
ATOM      4  N   UNL     1      -8.203  -3.573 124.253  0.00  0.00    +0.000 N 
ATOM      5  N   UNL     1      -9.253  -1.744 123.300  0.00  0.00    +0.000 NA
ATOM      6  C   UNL     1      -9.637  -0.474 123.374  0.00  0.00    +0.000 A 
ATOM      7  N   UNL     1     -10.162   0.094 122.240  0.00  0.00    +0.000 N 
ATOM      8  N   UNL     1      -9.552   0.285 124.464  0.00  0.00    +0.000 NA
ATOM      9  H   UNL     1      -8.167  -4.156 125.079  0.00  0.00    +0.000 HD
ATOM     10  H   UNL     1      -8.519  -4.018 123.401  0.00  0.00    +0.000 HD
ATOM     11  H   UNL     1     -10.136  -0.453 121.399  0.00  0.00    +0.000 HD
ATOM     12  H   UNL     1     -10.398   1.068 122.260  0.00  0.00    +0.000 HD
ENDROOT
BRANCH   2  13
ATOM     13  C   UNL     1      -7.989  -2.288 126.793  0.00  0.00    +0.000 A 
ATOM     14  C   UNL     1      -6.660  -2.028 127.166  0.00  0.00    +0.000 A 
ATOM     15  C   UNL     1      -6.128  -2.560 128.346  0.00  0.00    +0.000 A 
ATOM     16  C   UNL     1      -6.943  -3.290 129.206  0.00  0.00    +0.000 A 
ATOM     17 CL   UNL     1      -6.333  -3.845 130.714  0.00  0.00    +0.000 Cl
ATOM     18  C   UNL     1      -8.252  -3.581 128.843  0.00  0.00    +0.000 A 
ATOM     19  C   UNL     1      -8.726  -3.185 127.588  0.00  0.00    +0.000 A 
ENDBRANCH   2  13
BRANCH   1  21
ATOM     20  C   UNL     1      -7.691   1.602 126.778  0.00  0.00    +0.000 C 
ATOM     21  C   UNL     1      -8.932   0.740 126.731  0.00  0.00    +0.000 C 
ENDBRANCH   1  21
TORSDOF 2
ENDMDL
MODEL 4
REMARK VINA RESULT:      -5.8      3.691      5.587
REMARK  Name = Pyrimethamine
REMARK  3 active torsions:
REMARK  status: ('A' for Active; 'I' for Inactive)
REMARK    1  A    between atoms: C_1  and  C_2
REMARK    2  A    between atoms: C_2  and  C_3
REMARK    3  A    between atoms: C_4  and  C_11
REMARK                            x       y       z     vdW  Elec       q    Type
REMARK                         _______ _______ _______ _____ _____    ______ ____
ROOT
ATOM      1  C   UNL     1      -6.402   3.802 122.114  0.00  0.00    +0.000 A 
ATOM      2  C   UNL     1      -6.879   3.396 123.372  0.00  0.00    +0.000 A 
ATOM      3  C   UNL     1      -8.239   3.066 123.402  0.00  0.00    +0.000 A 
ATOM      4  N   UNL     1      -8.812   2.506 124.546  0.00  0.00    +0.000 N 
ATOM      5  N   UNL     1      -9.045   3.121 122.326  0.00  0.00    +0.000 NA
ATOM      6  C   UNL     1      -8.497   3.508 121.180  0.00  0.00    +0.000 A 
ATOM      7  N   UNL     1      -9.312   3.564 120.078  0.00  0.00    +0.000 N 
ATOM      8  N   UNL     1      -7.219   3.848 121.023  0.00  0.00    +0.000 NA
ATOM      9  H   UNL     1      -8.416   2.785 125.434  0.00  0.00    +0.000 HD
ATOM     10  H   UNL     1      -9.822   2.472 124.493  0.00  0.00    +0.000 HD
ATOM     11  H   UNL     1     -10.248   3.218 120.181  0.00  0.00    +0.000 HD
ATOM     12  H   UNL     1      -8.901   3.794 119.192  0.00  0.00    +0.000 HD
ENDROOT
BRANCH   2  13
ATOM     13  C   UNL     1      -6.065   3.280 124.605  0.00  0.00    +0.000 A 
ATOM     14  C   UNL     1      -5.725   2.019 125.123  0.00  0.00    +0.000 A 
ATOM     15  C   UNL     1      -4.844   1.900 126.203  0.00  0.00    +0.000 A 
ATOM     16  C   UNL     1      -4.229   3.035 126.724  0.00  0.00    +0.000 A 
ATOM     17 CL   UNL     1      -3.054   2.887 127.970  0.00  0.00    +0.000 Cl
ATOM     18  C   UNL     1      -4.571   4.293 126.245  0.00  0.00    +0.000 A 
ATOM     19  C   UNL     1      -5.575   4.415 125.277  0.00  0.00    +0.000 A 
ENDBRANCH   2  13
BRANCH   1  21
ATOM     20  C   UNL     1      -4.732   5.112 120.626  0.00  0.00    +0.000 C 
ATOM     21  C   UNL     1      -4.959   4.138 121.758  0.00  0.00    +0.000 C 
ENDBRANCH   1  21
TORSDOF 2
ENDMDL
MODEL 5
REMARK VINA RESULT:      -5.7      3.495      5.308
REMARK  Name = Pyrimethamine
REMARK  3 active torsions:
REMARK  status: ('A' for Active; 'I' for Inactive)
REMARK    1  A    between atoms: C_1  and  C_2
REMARK    2  A    between atoms: C_2  and  C_3
REMARK    3  A    between atoms: C_4  and  C_11
REMARK                            x       y       z     vdW  Elec       q    Type
REMARK                         _______ _______ _______ _____ _____    ______ ____
ROOT
ATOM      1  C   UNL     1      -6.218   2.712 124.730  0.00  0.00    +0.000 A 
ATOM      2  C   UNL     1      -6.190   1.372 125.153  0.00  0.00    +0.000 A 
ATOM      3  C   UNL     1      -5.200   1.079 126.099  0.00  0.00    +0.000 A 
ATOM      4  N   UNL     1      -5.152  -0.172 126.717  0.00  0.00    +0.000 N 
ATOM      5  N   UNL     1      -4.337   1.990 126.583  0.00  0.00    +0.000 NA
ATOM      6  C   UNL     1      -4.451   3.233 126.127  0.00  0.00    +0.000 A 
ATOM      7  N   UNL     1      -3.575   4.168 126.619  0.00  0.00    +0.000 N 
ATOM      8  N   UNL     1      -5.347   3.635 125.229  0.00  0.00    +0.000 NA
ATOM      9  H   UNL     1      -5.472  -0.961 126.169  0.00  0.00    +0.000 HD
ATOM     10  H   UNL     1      -4.300  -0.308 127.247  0.00  0.00    +0.000 HD
ATOM     11  H   UNL     1      -2.965   3.880 127.362  0.00  0.00    +0.000 HD
ATOM     12  H   UNL     1      -3.687   5.123 126.332  0.00  0.00    +0.000 HD
ENDROOT
BRANCH   2  13
ATOM     13  C   UNL     1      -7.113   0.306 124.698  0.00  0.00    +0.000 A 
ATOM     14  C   UNL     1      -6.846  -0.420 123.526  0.00  0.00    +0.000 A 
ATOM     15  C   UNL     1      -7.635  -1.519 123.165  0.00  0.00    +0.000 A 
ATOM     16  C   UNL     1      -8.647  -1.954 124.016  0.00  0.00    +0.000 A 
ATOM     17 CL   UNL     1      -9.542  -3.373 123.642  0.00  0.00    +0.000 Cl
ATOM     18  C   UNL     1      -8.945  -1.234 125.166  0.00  0.00    +0.000 A 
ATOM     19  C   UNL     1      -8.260  -0.044 125.435  0.00  0.00    +0.000 A 
ENDBRANCH   2  13
BRANCH   1  21
ATOM     20  C   UNL     1      -6.938   3.255 122.299  0.00  0.00    +0.000 C 
ATOM     21  C   UNL     1      -7.230   3.340 123.780  0.00  0.00    +0.000 C 
ENDBRANCH   1  21
TORSDOF 2
ENDMDL
MODEL 6
REMARK VINA RESULT:      -5.7      9.015     10.559
REMARK  Name = Pyrimethamine
REMARK  3 active torsions:
REMARK  status: ('A' for Active; 'I' for Inactive)
REMARK    1  A    between atoms: C_1  and  C_2
REMARK    2  A    between atoms: C_2  and  C_3
REMARK    3  A    between atoms: C_4  and  C_11
REMARK                            x       y       z     vdW  Elec       q    Type
REMARK                         _______ _______ _______ _____ _____    ______ ____
ROOT
ATOM      1  C   UNL     1      -3.284   4.168 130.623  0.00  0.00    +0.000 A 
ATOM      2  C   UNL     1      -2.651   5.341 130.179  0.00  0.00    +0.000 A 
ATOM      3  C   UNL     1      -2.477   5.423 128.792  0.00  0.00    +0.000 A 
ATOM      4  N   UNL     1      -2.000   6.594 128.200  0.00  0.00    +0.000 N 
ATOM      5  N   UNL     1      -2.879   4.470 127.932  0.00  0.00    +0.000 NA
ATOM      6  C   UNL     1      -3.476   3.401 128.449  0.00  0.00    +0.000 A 
ATOM      7  N   UNL     1      -3.891   2.426 127.578  0.00  0.00    +0.000 N 
ATOM      8  N   UNL     1      -3.699   3.207 129.747  0.00  0.00    +0.000 NA
ATOM      9  H   UNL     1      -1.356   7.149 128.748  0.00  0.00    +0.000 HD
ATOM     10  H   UNL     1      -1.765   6.464 127.224  0.00  0.00    +0.000 HD
ATOM     11  H   UNL     1      -3.806   2.620 126.597  0.00  0.00    +0.000 HD
ATOM     12  H   UNL     1      -4.399   1.643 127.945  0.00  0.00    +0.000 HD
ENDROOT
BRANCH   2  13
ATOM     13  C   UNL     1      -2.198   6.455 131.044  0.00  0.00    +0.000 A 
ATOM     14  C   UNL     1      -3.069   7.506 131.374  0.00  0.00    +0.000 A 
ATOM     15  C   UNL     1      -2.695   8.487 132.300  0.00  0.00    +0.000 A 
ATOM     16  C   UNL     1      -1.478   8.380 132.968  0.00  0.00    +0.000 A 
ATOM     17 CL   UNL     1      -1.062   9.510 134.194  0.00  0.00    +0.000 Cl
ATOM     18  C   UNL     1      -0.590   7.364 132.637  0.00  0.00    +0.000 A 
ATOM     19  C   UNL     1      -0.903   6.484 131.594  0.00  0.00    +0.000 A 
ENDBRANCH   2  13
BRANCH   1  21
ATOM     20  C   UNL     1      -2.595   3.339 132.980  0.00  0.00    +0.000 C 
ATOM     21  C   UNL     1      -3.681   3.840 132.056  0.00  0.00    +0.000 C 
ENDBRANCH   1  21
TORSDOF 2
ENDMDL
MODEL 7
REMARK VINA RESULT:      -5.7      7.174      8.853
REMARK  Name = Pyrimethamine
REMARK  3 active torsions:
REMARK  status: ('A' for Active; 'I' for Inactive)
REMARK    1  A    between atoms: C_1  and  C_2
REMARK    2  A    between atoms: C_2  and  C_3
REMARK    3  A    between atoms: C_4  and  C_11
REMARK                            x       y       z     vdW  Elec       q    Type
REMARK                         _______ _______ _______ _____ _____    ______ ____
ROOT
ATOM      1  C   UNL     1      -7.428  -1.513 131.216  0.00  0.00    +0.000 A 
ATOM      2  C   UNL     1      -7.021  -2.605 130.432  0.00  0.00    +0.000 A 
ATOM      3  C   UNL     1      -6.133  -3.482 131.067  0.00  0.00    +0.000 A 
ATOM      4  N   UNL     1      -5.764  -4.686 130.463  0.00  0.00    +0.000 N 
ATOM      5  N   UNL     1      -5.695  -3.317 132.328  0.00  0.00    +0.000 NA
ATOM      6  C   UNL     1      -6.145  -2.257 132.991  0.00  0.00    +0.000 A 
ATOM      7  N   UNL     1      -5.704  -2.082 134.278  0.00  0.00    +0.000 N 
ATOM      8  N   UNL     1      -6.989  -1.352 132.497  0.00  0.00    +0.000 NA
ATOM      9  H   UNL     1      -5.726  -4.692 129.452  0.00  0.00    +0.000 HD
ATOM     10  H   UNL     1      -4.998  -5.140 130.946  0.00  0.00    +0.000 HD
ATOM     11  H   UNL     1      -5.144  -2.815 134.674  0.00  0.00    +0.000 HD
ATOM     12  H   UNL     1      -6.082  -1.323 134.813  0.00  0.00    +0.000 HD
ENDROOT
BRANCH   2  13
ATOM     13  C   UNL     1      -7.468  -2.886 129.047  0.00  0.00    +0.000 A 
ATOM     14  C   UNL     1      -8.622  -3.651 128.809  0.00  0.00    +0.000 A 
ATOM     15  C   UNL     1      -9.128  -3.803 127.513  0.00  0.00    +0.000 A 
ATOM     16  C   UNL     1      -8.534  -3.124 126.453  0.00  0.00    +0.000 A 
ATOM     17 CL   UNL     1      -9.219  -3.207 124.879  0.00  0.00    +0.000 Cl
ATOM     18  C   UNL     1      -7.377  -2.384 126.663  0.00  0.00    +0.000 A 
ATOM     19  C   UNL     1      -6.784  -2.371 127.930  0.00  0.00    +0.000 A 
ENDBRANCH   2  13
BRANCH   1  21
ATOM     20  C   UNL     1      -7.984   0.644 129.890  0.00  0.00    +0.000 C 
ATOM     21  C   UNL     1      -8.445  -0.449 130.826  0.00  0.00    +0.000 C 
ENDBRANCH   1  21
TORSDOF 2
ENDMDL
MODEL 8
REMARK VINA RESULT:      -5.6      3.904      5.412
REMARK  Name = Pyrimethamine
REMARK  3 active torsions:
REMARK  status: ('A' for Active; 'I' for Inactive)
REMARK    1  A    between atoms: C_1  and  C_2
REMARK    2  A    between atoms: C_2  and  C_3
REMARK    3  A    between atoms: C_4  and  C_11
REMARK                            x       y       z     vdW  Elec       q    Type
REMARK                         _______ _______ _______ _____ _____    ______ ____
ROOT
ATOM      1  C   UNL     1      -6.717   2.064 125.519  0.00  0.00    +0.000 A 
ATOM      2  C   UNL     1      -7.887   1.436 125.060  0.00  0.00    +0.000 A 
ATOM      3  C   UNL     1      -8.919   2.312 124.701  0.00  0.00    +0.000 A 
ATOM      4  N   UNL     1     -10.080   1.836 124.090  0.00  0.00    +0.000 N 
ATOM      5  N   UNL     1      -8.820   3.652 124.777  0.00  0.00    +0.000 NA
ATOM      6  C   UNL     1      -7.669   4.150 125.215  0.00  0.00    +0.000 A 
ATOM      7  N   UNL     1      -7.561   5.515 125.292  0.00  0.00    +0.000 N 
ATOM      8  N   UNL     1      -6.617   3.423 125.586  0.00  0.00    +0.000 NA
ATOM      9  H   UNL     1     -10.377   0.903 124.346  0.00  0.00    +0.000 HD
ATOM     10  H   UNL     1     -10.805   2.540 124.038  0.00  0.00    +0.000 HD
ATOM     11  H   UNL     1      -8.321   6.058 124.924  0.00  0.00    +0.000 HD
ATOM     12  H   UNL     1      -6.678   5.909 125.561  0.00  0.00    +0.000 HD
ENDROOT
BRANCH   2  13
ATOM     13  C   UNL     1      -8.081  -0.026 124.917  0.00  0.00    +0.000 A 
ATOM     14  C   UNL     1      -7.633  -0.699 123.769  0.00  0.00    +0.000 A 
ATOM     15  C   UNL     1      -7.686  -2.096 123.687  0.00  0.00    +0.000 A 
ATOM     16  C   UNL     1      -8.110  -2.838 124.786  0.00  0.00    +0.000 A 
ATOM     17 CL   UNL     1      -8.063  -4.555 124.740  0.00  0.00    +0.000 Cl
ATOM     18  C   UNL     1      -8.582  -2.192 125.922  0.00  0.00    +0.000 A 
ATOM     19  C   UNL     1      -8.680  -0.796 125.933  0.00  0.00    +0.000 A 
ENDBRANCH   2  13
BRANCH   1  21
ATOM     20  C   UNL     1      -4.553   2.047 126.946  0.00  0.00    +0.000 C 
ATOM     21  C   UNL     1      -5.411   1.379 125.897  0.00  0.00    +0.000 C 
ENDBRANCH   1  21
TORSDOF 2
ENDMDL
MODEL 9
REMARK VINA RESULT:      -5.6      2.825      3.923
REMARK  Name = Pyrimethamine
REMARK  3 active torsions:
REMARK  status: ('A' for Active; 'I' for Inactive)
REMARK    1  A    between atoms: C_1  and  C_2
REMARK    2  A    between atoms: C_2  and  C_3
REMARK    3  A    between atoms: C_4  and  C_11
REMARK                            x       y       z     vdW  Elec       q    Type
REMARK                         _______ _______ _______ _____ _____    ______ ____
ROOT
ATOM      1  C   UNL     1      -8.055  -2.207 125.734  0.00  0.00    +0.000 A 
ATOM      2  C   UNL     1      -8.087  -0.806 125.825  0.00  0.00    +0.000 A 
ATOM      3  C   UNL     1      -7.964  -0.301 127.125  0.00  0.00    +0.000 A 
ATOM      4  N   UNL     1      -7.830   1.071 127.349  0.00  0.00    +0.000 N 
ATOM      5  N   UNL     1      -7.818  -1.075 128.216  0.00  0.00    +0.000 NA
ATOM      6  C   UNL     1      -7.790  -2.389 128.025  0.00  0.00    +0.000 A 
ATOM      7  N   UNL     1      -7.640  -3.185 129.132  0.00  0.00    +0.000 N 
ATOM      8  N   UNL     1      -7.898  -2.989 126.841  0.00  0.00    +0.000 NA
ATOM      9  H   UNL     1      -8.294   1.684 126.691  0.00  0.00    +0.000 HD
ATOM     10  H   UNL     1      -7.917   1.312 128.328  0.00  0.00    +0.000 HD
ATOM     11  H   UNL     1      -7.465  -2.726 130.007  0.00  0.00    +0.000 HD
ATOM     12  H   UNL     1      -7.553  -4.176 128.999  0.00  0.00    +0.000 HD
ENDROOT
BRANCH   2  13
ATOM     13  C   UNL     1      -8.217   0.129 124.682  0.00  0.00    +0.000 A 
ATOM     14  C   UNL     1      -9.477   0.611 124.291  0.00  0.00    +0.000 A 
ATOM     15  C   UNL     1      -9.594   1.599 123.306  0.00  0.00    +0.000 A 
ATOM     16  C   UNL     1      -8.449   2.173 122.761  0.00  0.00    +0.000 A 
ATOM     17 CL   UNL     1      -8.581   3.469 121.640  0.00  0.00    +0.000 Cl
ATOM     18  C   UNL     1      -7.195   1.692 123.114  0.00  0.00    +0.000 A 
ATOM     19  C   UNL     1      -7.092   0.594 123.975  0.00  0.00    +0.000 A 
ENDBRANCH   2  13
BRANCH   1  21
ATOM     20  C   UNL     1      -9.427  -3.261 123.804  0.00  0.00    +0.000 C 
ATOM     21  C   UNL     1      -8.082  -3.032 124.454  0.00  0.00    +0.000 C 
ENDBRANCH   1  21
TORSDOF 2
ENDMDL
