MODEL 1
REMARK VINA RESULT:      -5.3      0.000      0.000
REMARK  Name = Pyridoxine
REMARK  6 active torsions:
REMARK  status: ('A' for Active; 'I' for Inactive)
REMARK    1  A    between atoms: C_1  and  C_2
REMARK    2  A    between atoms: C_3  and  O_4
REMARK    3  A    between atoms: C_5  and  C_6
REMARK    4  A    between atoms: C_6  and  O_7
REMARK    5  A    between atoms: C_8  and  C_9
REMARK    6  A    between atoms: C_9  and  O_10
REMARK                            x       y       z     vdW  Elec       q    Type
REMARK                         _______ _______ _______ _____ _____    ______ ____
ROOT
ATOM      1  C   UNL     1     -10.170   5.216 131.352  0.00  0.00    +0.000 C 
ATOM      2  C   UNL     1     -10.879   6.249 130.528  0.00  0.00    +0.000 A 
ATOM      3  C   UNL     1     -10.554   6.540 129.199  0.00  0.00    +0.000 A 
ATOM      4  C   UNL     1     -11.296   7.496 128.474  0.00  0.00    +0.000 A 
ATOM      5  C   UNL     1     -12.347   8.167 129.146  0.00  0.00    +0.000 A 
ATOM      6  C   UNL     1     -12.564   7.832 130.487  0.00  0.00    +0.000 A 
ATOM      7  N   UNL     1     -11.873   6.902 131.178  0.00  0.00    +0.000 NA
ENDROOT
BRANCH   3   8
ATOM      8  O   UNL     1      -9.489   5.956 128.562  0.00  0.00    +0.000 OA
ATOM      9  H   UNL     1      -8.759   5.793 129.173  0.00  0.00    +0.000 HD
ENDBRANCH   3   8
BRANCH   4  10
ATOM     10  C   UNL     1     -10.995   7.802 127.014  0.00  0.00    +0.000 C 
BRANCH  10  11
ATOM     11  O   UNL     1     -10.842   6.708 126.120  0.00  0.00    +0.000 OA
ATOM     12  H   UNL     1      -9.897   6.691 125.880  0.00  0.00    +0.000 HD
ENDBRANCH  10  11
ENDBRANCH   4  10
BRANCH   5  13
ATOM     13  C   UNL     1     -13.277   9.213 128.570  0.00  0.00    +0.000 C 
BRANCH  13  14
ATOM     14  O   UNL     1     -13.114  10.526 129.073  0.00  0.00    +0.000 OA
ATOM     15  H   UNL     1     -12.662  10.450 129.930  0.00  0.00    +0.000 HD
ENDBRANCH  13  14
ENDBRANCH   5  13
TORSDOF 5
ENDMDL
MODEL 2
REMARK VINA RESULT:      -5.1      8.972     10.482
REMARK  Name = Pyridoxine
REMARK  6 active torsions:
REMARK  status: ('A' for Active; 'I' for Inactive)
REMARK    1  A    between atoms: C_1  and  C_2
REMARK    2  A    between atoms: C_3  and  O_4
REMARK    3  A    between atoms: C_5  and  C_6
REMARK    4  A    between atoms: C_6  and  O_7
REMARK    5  A    between atoms: C_8  and  C_9
REMARK    6  A    between atoms: C_9  and  O_10
REMARK                            x       y       z     vdW  Elec       q    Type
REMARK                         _______ _______ _______ _____ _____    ______ ____
ROOT
ATOM      1  C   UNL     1      -8.826   2.602 122.800  0.00  0.00    +0.000 C 
ATOM      2  C   UNL     1      -7.985   3.317 121.785  0.00  0.00    +0.000 A 
ATOM      3  C   UNL     1      -6.656   3.695 122.004  0.00  0.00    +0.000 A 
ATOM      4  C   UNL     1      -5.914   4.326 120.984  0.00  0.00    +0.000 A 
ATOM      5  C   UNL     1      -6.569   4.591 119.755  0.00  0.00    +0.000 A 
ATOM      6  C   UNL     1      -7.911   4.210 119.653  0.00  0.00    +0.000 A 
ATOM      7  N   UNL     1      -8.618   3.585 120.617  0.00  0.00    +0.000 NA
ENDROOT
BRANCH   3   8
ATOM      8  O   UNL     1      -6.035   3.516 123.215  0.00  0.00    +0.000 OA
ATOM      9  H   UNL     1      -6.615   3.071 123.845  0.00  0.00    +0.000 HD
ENDBRANCH   3   8
BRANCH   4  10
ATOM     10  C   UNL     1      -4.454   4.708 121.177  0.00  0.00    +0.000 C 
BRANCH  10  11
ATOM     11  O   UNL     1      -4.116   6.089 121.144  0.00  0.00    +0.000 OA
ATOM     12  H   UNL     1      -4.942   6.560 120.928  0.00  0.00    +0.000 HD
ENDBRANCH  10  11
ENDBRANCH   4  10
BRANCH   5  13
ATOM     13  C   UNL     1      -5.973   5.242 118.526  0.00  0.00    +0.000 C 
BRANCH  13  14
ATOM     14  O   UNL     1      -5.603   6.601 118.667  0.00  0.00    +0.000 OA
ATOM     15  H   UNL     1      -5.745   6.841 119.598  0.00  0.00    +0.000 HD
ENDBRANCH  13  14
ENDBRANCH   5  13
TORSDOF 5
ENDMDL
MODEL 3
REMARK VINA RESULT:      -5.1      1.381      3.199
REMARK  Name = Pyridoxine
REMARK  6 active torsions:
REMARK  status: ('A' for Active; 'I' for Inactive)
REMARK    1  A    between atoms: C_1  and  C_2
REMARK    2  A    between atoms: C_3  and  O_4
REMARK    3  A    between atoms: C_5  and  C_6
REMARK    4  A    between atoms: C_6  and  O_7
REMARK    5  A    between atoms: C_8  and  C_9
REMARK    6  A    between atoms: C_9  and  O_10
REMARK                            x       y       z     vdW  Elec       q    Type
REMARK                         _______ _______ _______ _____ _____    ______ ____
ROOT
ATOM      1  C   UNL     1     -10.839   6.250 132.366  0.00  0.00    +0.000 C 
ATOM      2  C   UNL     1     -10.997   6.679 130.938  0.00  0.00    +0.000 A 
ATOM      3  C   UNL     1     -11.989   7.560 130.496  0.00  0.00    +0.000 A 
ATOM      4  C   UNL     1     -12.047   7.951 129.142  0.00  0.00    +0.000 A 
ATOM      5  C   UNL     1     -11.096   7.396 128.250  0.00  0.00    +0.000 A 
ATOM      6  C   UNL     1     -10.172   6.491 128.786  0.00  0.00    +0.000 A 
ATOM      7  N   UNL     1     -10.097   6.132 130.084  0.00  0.00    +0.000 NA
ENDROOT
BRANCH   3   8
ATOM      8  O   UNL     1     -12.964   8.042 131.332  0.00  0.00    +0.000 OA
ATOM      9  H   UNL     1     -13.074   8.996 131.232  0.00  0.00    +0.000 HD
ENDBRANCH   3   8
BRANCH   4  10
ATOM     10  C   UNL     1     -13.086   8.942 128.639  0.00  0.00    +0.000 C 
BRANCH  10  11
ATOM     11  O   UNL     1     -13.069  10.258 129.177  0.00  0.00    +0.000 OA
ATOM     12  H   UNL     1     -12.132  10.531 129.182  0.00  0.00    +0.000 HD
ENDBRANCH  10  11
ENDBRANCH   4  10
BRANCH   5  13
ATOM     13  C   UNL     1     -10.960   7.676 126.770  0.00  0.00    +0.000 C 
BRANCH  13  14
ATOM     14  O   UNL     1     -11.742   6.863 125.915  0.00  0.00    +0.000 OA
ATOM     15  H   UNL     1     -12.668   7.130 126.034  0.00  0.00    +0.000 HD
ENDBRANCH  13  14
ENDBRANCH   5  13
TORSDOF 5
ENDMDL
MODEL 4
REMARK VINA RESULT:      -4.9      1.844      3.656
REMARK  Name = Pyridoxine
REMARK  6 active torsions:
REMARK  status: ('A' for Active; 'I' for Inactive)
REMARK    1  A    between atoms: C_1  and  C_2
REMARK    2  A    between atoms: C_3  and  O_4
REMARK    3  A    between atoms: C_5  and  C_6
REMARK    4  A    between atoms: C_6  and  O_7
REMARK    5  A    between atoms: C_8  and  C_9
REMARK    6  A    between atoms: C_9  and  O_10
REMARK                            x       y       z     vdW  Elec       q    Type
REMARK                         _______ _______ _______ _____ _____    ______ ____
ROOT
ATOM      1  C   UNL     1     -13.507  10.145 128.860  0.00  0.00    +0.000 C 
ATOM      2  C   UNL     1     -12.765   9.017 129.514  0.00  0.00    +0.000 A 
ATOM      3  C   UNL     1     -11.672   8.366 128.934  0.00  0.00    +0.000 A 
ATOM      4  C   UNL     1     -10.998   7.342 129.630  0.00  0.00    +0.000 A 
ATOM      5  C   UNL     1     -11.486   6.977 130.909  0.00  0.00    +0.000 A 
ATOM      6  C   UNL     1     -12.611   7.662 131.381  0.00  0.00    +0.000 A 
ATOM      7  N   UNL     1     -13.245   8.659 130.730  0.00  0.00    +0.000 NA
ENDROOT
BRANCH   3   8
ATOM      8  O   UNL     1     -11.239   8.654 127.664  0.00  0.00    +0.000 OA
ATOM      9  H   UNL     1     -11.940   8.521 127.014  0.00  0.00    +0.000 HD
ENDBRANCH   3   8
BRANCH   4  10
ATOM     10  C   UNL     1      -9.778   6.645 129.044  0.00  0.00    +0.000 C 
BRANCH  10  11
ATOM     11  O   UNL     1      -9.770   6.374 127.649  0.00  0.00    +0.000 OA
ATOM     12  H   UNL     1      -8.985   5.817 127.491  0.00  0.00    +0.000 HD
ENDBRANCH  10  11
ENDBRANCH   4  10
BRANCH   5  13
ATOM     13  C   UNL     1     -10.920   5.923 131.836  0.00  0.00    +0.000 C 
BRANCH  13  14
ATOM     14  O   UNL     1     -10.317   6.405 133.022  0.00  0.00    +0.000 OA
ATOM     15  H   UNL     1     -10.988   6.355 133.724  0.00  0.00    +0.000 HD
ENDBRANCH  13  14
ENDBRANCH   5  13
TORSDOF 5
ENDMDL
MODEL 5
REMARK VINA RESULT:      -4.9      2.214      4.124
REMARK  Name = Pyridoxine
REMARK  6 active torsions:
REMARK  status: ('A' for Active; 'I' for Inactive)
REMARK    1  A    between atoms: C_1  and  C_2
REMARK    2  A    between atoms: C_3  and  O_4
REMARK    3  A    between atoms: C_5  and  C_6
REMARK    4  A    between atoms: C_6  and  O_7
REMARK    5  A    between atoms: C_8  and  C_9
REMARK    6  A    between atoms: C_9  and  O_10
REMARK                            x       y       z     vdW  Elec       q    Type
REMARK                         _______ _______ _______ _____ _____    ______ ____
ROOT
ATOM      1  C   UNL     1     -12.801   8.655 128.785  0.00  0.00    +0.000 C 
ATOM      2  C   UNL     1     -11.976   7.843 129.738  0.00  0.00    +0.000 A 
ATOM      3  C   UNL     1     -10.616   7.572 129.553  0.00  0.00    +0.000 A 
ATOM      4  C   UNL     1      -9.895   6.837 130.516  0.00  0.00    +0.000 A 
ATOM      5  C   UNL     1     -10.601   6.358 131.648  0.00  0.00    +0.000 A 
ATOM      6  C   UNL     1     -11.968   6.648 131.717  0.00  0.00    +0.000 A 
ATOM      7  N   UNL     1     -12.657   7.371 130.811  0.00  0.00    +0.000 NA
ENDROOT
BRANCH   3   8
ATOM      8  O   UNL     1      -9.940   7.961 128.424  0.00  0.00    +0.000 OA
ATOM      9  H   UNL     1     -10.547   8.266 127.737  0.00  0.00    +0.000 HD
ENDBRANCH   3   8
BRANCH   4  10
ATOM     10  C   UNL     1      -8.406   6.564 130.365  0.00  0.00    +0.000 C 
BRANCH  10  11
ATOM     11  O   UNL     1      -7.518   7.674 130.386  0.00  0.00    +0.000 OA
ATOM     12  H   UNL     1      -7.111   7.672 131.272  0.00  0.00    +0.000 HD
ENDBRANCH  10  11
ENDBRANCH   4  10
BRANCH   5  13
ATOM     13  C   UNL     1     -10.036   5.564 132.806  0.00  0.00    +0.000 C 
BRANCH  13  14
ATOM     14  O   UNL     1      -9.355   6.314 133.794  0.00  0.00    +0.000 OA
ATOM     15  H   UNL     1      -9.886   6.266 134.606  0.00  0.00    +0.000 HD
ENDBRANCH  13  14
ENDBRANCH   5  13
TORSDOF 5
ENDMDL
MODEL 6
REMARK VINA RESULT:      -4.7      2.201      4.630
REMARK  Name = Pyridoxine
REMARK  6 active torsions:
REMARK  status: ('A' for Active; 'I' for Inactive)
REMARK    1  A    between atoms: C_1  and  C_2
REMARK    2  A    between atoms: C_3  and  O_4
REMARK    3  A    between atoms: C_5  and  C_6
REMARK    4  A    between atoms: C_6  and  O_7
REMARK    5  A    between atoms: C_8  and  C_9
REMARK    6  A    between atoms: C_9  and  O_10
REMARK                            x       y       z     vdW  Elec       q    Type
REMARK                         _______ _______ _______ _____ _____    ______ ____
ROOT
ATOM      1  C   UNL     1     -13.402   9.759 128.942  0.00  0.00    +0.000 C 
ATOM      2  C   UNL     1     -12.362   8.714 129.219  0.00  0.00    +0.000 A 
ATOM      3  C   UNL     1     -12.310   7.962 130.397  0.00  0.00    +0.000 A 
ATOM      4  C   UNL     1     -11.327   6.966 130.567  0.00  0.00    +0.000 A 
ATOM      5  C   UNL     1     -10.384   6.781 129.526  0.00  0.00    +0.000 A 
ATOM      6  C   UNL     1     -10.498   7.613 128.407  0.00  0.00    +0.000 A 
ATOM      7  N   UNL     1     -11.450   8.551 128.229  0.00  0.00    +0.000 NA
ENDROOT
BRANCH   3   8
ATOM      8  O   UNL     1     -13.167   8.186 131.445  0.00  0.00    +0.000 OA
ATOM      9  H   UNL     1     -13.953   7.628 131.383  0.00  0.00    +0.000 HD
ENDBRANCH   3   8
BRANCH   4  10
ATOM     10  C   UNL     1     -11.272   6.102 131.818  0.00  0.00    +0.000 C 
BRANCH  10  11
ATOM     11  O   UNL     1     -10.375   6.482 132.854  0.00  0.00    +0.000 OA
ATOM     12  H   UNL     1     -10.109   7.398 132.652  0.00  0.00    +0.000 HD
ENDBRANCH  10  11
ENDBRANCH   4  10
BRANCH   5  13
ATOM     13  C   UNL     1      -9.257   5.771 129.484  0.00  0.00    +0.000 C 
BRANCH  13  14
ATOM     14  O   UNL     1      -8.054   6.164 130.117  0.00  0.00    +0.000 OA
ATOM     15  H   UNL     1      -8.299   6.621 130.939  0.00  0.00    +0.000 HD
ENDBRANCH  13  14
ENDBRANCH   5  13
TORSDOF 5
ENDMDL
MODEL 7
REMARK VINA RESULT:      -4.6      2.938      4.987
REMARK  Name = Pyridoxine
REMARK  6 active torsions:
REMARK  status: ('A' for Active; 'I' for Inactive)
REMARK    1  A    between atoms: C_1  and  C_2
REMARK    2  A    between atoms: C_3  and  O_4
REMARK    3  A    between atoms: C_5  and  C_6
REMARK    4  A    between atoms: C_6  and  O_7
REMARK    5  A    between atoms: C_8  and  C_9
REMARK    6  A    between atoms: C_9  and  O_10
REMARK                            x       y       z     vdW  Elec       q    Type
REMARK                         _______ _______ _______ _____ _____    ______ ____
ROOT
ATOM      1  C   UNL     1     -12.889   7.414 129.490  0.00  0.00    +0.000 C 
ATOM      2  C   UNL     1     -11.505   7.228 130.036  0.00  0.00    +0.000 A 
ATOM      3  C   UNL     1     -11.229   6.622 131.266  0.00  0.00    +0.000 A 
ATOM      4  C   UNL     1      -9.897   6.443 131.692  0.00  0.00    +0.000 A 
ATOM      5  C   UNL     1      -8.862   6.927 130.854  0.00  0.00    +0.000 A 
ATOM      6  C   UNL     1      -9.246   7.555 129.664  0.00  0.00    +0.000 A 
ATOM      7  N   UNL     1     -10.517   7.708 129.240  0.00  0.00    +0.000 NA
ENDROOT
BRANCH   3   8
ATOM      8  O   UNL     1     -12.223   6.221 132.122  0.00  0.00    +0.000 OA
ATOM      9  H   UNL     1     -12.539   5.335 131.906  0.00  0.00    +0.000 HD
ENDBRANCH   3   8
BRANCH   4  10
ATOM     10  C   UNL     1      -9.564   5.748 133.004  0.00  0.00    +0.000 C 
BRANCH  10  11
ATOM     11  O   UNL     1      -9.991   4.402 133.174  0.00  0.00    +0.000 OA
ATOM     12  H   UNL     1     -10.670   4.250 132.491  0.00  0.00    +0.000 HD
ENDBRANCH  10  11
ENDBRANCH   4  10
BRANCH   5  13
ATOM     13  C   UNL     1      -7.371   6.836 131.100  0.00  0.00    +0.000 C 
BRANCH  13  14
ATOM     14  O   UNL     1      -6.646   6.027 130.193  0.00  0.00    +0.000 OA
ATOM     15  H   UNL     1      -7.001   6.203 129.306  0.00  0.00    +0.000 HD
ENDBRANCH  13  14
ENDBRANCH   5  13
TORSDOF 5
ENDMDL
MODEL 8
REMARK VINA RESULT:      -4.5      8.870     10.217
REMARK  Name = Pyridoxine
REMARK  6 active torsions:
REMARK  status: ('A' for Active; 'I' for Inactive)
REMARK    1  A    between atoms: C_1  and  C_2
REMARK    2  A    between atoms: C_3  and  O_4
REMARK    3  A    between atoms: C_5  and  C_6
REMARK    4  A    between atoms: C_6  and  O_7
REMARK    5  A    between atoms: C_8  and  C_9
REMARK    6  A    between atoms: C_9  and  O_10
REMARK                            x       y       z     vdW  Elec       q    Type
REMARK                         _______ _______ _______ _____ _____    ______ ____
ROOT
ATOM      1  C   UNL     1      -7.194   4.586 118.528  0.00  0.00    +0.000 C 
ATOM      2  C   UNL     1      -7.042   4.199 119.968  0.00  0.00    +0.000 A 
ATOM      3  C   UNL     1      -8.078   3.671 120.745  0.00  0.00    +0.000 A 
ATOM      4  C   UNL     1      -7.847   3.289 122.083  0.00  0.00    +0.000 A 
ATOM      5  C   UNL     1      -6.549   3.491 122.615  0.00  0.00    +0.000 A 
ATOM      6  C   UNL     1      -5.594   4.064 121.767  0.00  0.00    +0.000 A 
ATOM      7  N   UNL     1      -5.804   4.409 120.480  0.00  0.00    +0.000 NA
ENDROOT
BRANCH   3   8
ATOM      8  O   UNL     1      -9.358   3.545 120.268  0.00  0.00    +0.000 OA
ATOM      9  H   UNL     1      -9.460   3.980 119.412  0.00  0.00    +0.000 HD
ENDBRANCH   3   8
BRANCH   4  10
ATOM     10  C   UNL     1      -8.942   2.671 122.939  0.00  0.00    +0.000 C 
BRANCH  10  11
ATOM     11  O   UNL     1      -9.624   1.531 122.432  0.00  0.00    +0.000 OA
ATOM     12  H   UNL     1     -10.202   1.224 123.155  0.00  0.00    +0.000 HD
ENDBRANCH  10  11
ENDBRANCH   4  10
BRANCH   5  13
ATOM     13  C   UNL     1      -6.071   3.148 124.009  0.00  0.00    +0.000 C 
BRANCH  13  14
ATOM     14  O   UNL     1      -5.178   4.075 124.599  0.00  0.00    +0.000 OA
ATOM     15  H   UNL     1      -5.204   4.882 124.057  0.00  0.00    +0.000 HD
ENDBRANCH  13  14
ENDBRANCH   5  13
TORSDOF 5
ENDMDL
MODEL 9
REMARK VINA RESULT:      -4.4      7.573      8.295
REMARK  Name = Pyridoxine
REMARK  6 active torsions:
REMARK  status: ('A' for Active; 'I' for Inactive)
REMARK    1  A    between atoms: C_1  and  C_2
REMARK    2  A    between atoms: C_3  and  O_4
REMARK    3  A    between atoms: C_5  and  C_6
REMARK    4  A    between atoms: C_6  and  O_7
REMARK    5  A    between atoms: C_8  and  C_9
REMARK    6  A    between atoms: C_9  and  O_10
REMARK                            x       y       z     vdW  Elec       q    Type
REMARK                         _______ _______ _______ _____ _____    ______ ____
ROOT
ATOM      1  C   UNL     1      -8.534   1.427 127.370  0.00  0.00    +0.000 C 
ATOM      2  C   UNL     1      -8.602   1.764 125.910  0.00  0.00    +0.000 A 
ATOM      3  C   UNL     1      -9.299   1.000 124.968  0.00  0.00    +0.000 A 
ATOM      4  C   UNL     1      -9.354   1.404 123.618  0.00  0.00    +0.000 A 
ATOM      5  C   UNL     1      -8.654   2.580 123.250  0.00  0.00    +0.000 A 
ATOM      6  C   UNL     1      -7.954   3.248 124.260  0.00  0.00    +0.000 A 
ATOM      7  N   UNL     1      -7.917   2.879 125.557  0.00  0.00    +0.000 NA
ENDROOT
BRANCH   3   8
ATOM      8  O   UNL     1      -9.913  -0.182 125.296  0.00  0.00    +0.000 OA
ATOM      9  H   UNL     1      -9.365  -0.712 125.889  0.00  0.00    +0.000 HD
ENDBRANCH   3   8
BRANCH   4  10
ATOM     10  C   UNL     1     -10.140   0.619 122.579  0.00  0.00    +0.000 C 
BRANCH  10  11
ATOM     11  O   UNL     1     -11.555   0.570 122.709  0.00  0.00    +0.000 OA
ATOM     12  H   UNL     1     -11.808  -0.352 122.515  0.00  0.00    +0.000 HD
ENDBRANCH  10  11
ENDBRANCH   4  10
BRANCH   5  13
ATOM     13  C   UNL     1      -8.582   3.206 121.874  0.00  0.00    +0.000 C 
BRANCH  13  14
ATOM     14  O   UNL     1      -7.363   3.850 121.553  0.00  0.00    +0.000 OA
ATOM     15  H   UNL     1      -7.349   4.692 122.036  0.00  0.00    +0.000 HD
ENDBRANCH  13  14
ENDBRANCH   5  13
TORSDOF 5
ENDMDL
