MODEL 1
REMARK VINA RESULT:      -5.4      0.000      0.000
REMARK  Name = Pyridostigmine
REMARK  5 active torsions:
REMARK  status: ('A' for Active; 'I' for Inactive)
REMARK    1  A    between atoms: C_1  and  N_2
REMARK    2  A    between atoms: N_2  and  C_3
REMARK    3  A    between atoms: C_4  and  O_6
REMARK    4  A    between atoms: O_6  and  C_7
REMARK    5  A    between atoms: N_9  and  C_10
REMARK                            x       y       z     vdW  Elec       q    Type
REMARK                         _______ _______ _______ _____ _____    ______ ____
ROOT
ATOM      1  C   UNL     1      -9.655   7.212 130.279  0.00  0.00    +0.000 A 
ATOM      2  C   UNL     1      -8.374   7.009 130.790  0.00  0.00    +0.000 A 
ATOM      3  N   UNL     1      -8.178   6.277 131.910  0.00  0.00    +0.000 N 
ATOM      4  C   UNL     1      -6.808   5.882 132.280  0.00  0.00    +0.000 C 
ATOM      5  C   UNL     1      -9.226   5.837 132.642  0.00  0.00    +0.000 A 
ATOM      6  C   UNL     1     -10.530   6.039 132.189  0.00  0.00    +0.000 A 
ATOM      7  C   UNL     1     -10.748   6.709 130.981  0.00  0.00    +0.000 A 
ENDROOT
BRANCH   1   8
ATOM      8  O   UNL     1      -9.870   7.958 129.091  0.00  0.00    +0.000 OA
BRANCH   8  12
ATOM      9  C   UNL     1     -12.439   7.033 126.590  0.00  0.00    +0.000 C 
ATOM     10  N   UNL     1     -11.751   7.705 127.686  0.00  0.00    +0.000 N 
ATOM     11  C   UNL     1     -12.455   8.759 128.392  0.00  0.00    +0.000 C 
ATOM     12  C   UNL     1     -10.466   7.290 128.002  0.00  0.00    +0.000 C 
ATOM     13  O   UNL     1      -9.873   6.419 127.362  0.00  0.00    +0.000 OA
ENDBRANCH   8  12
ENDBRANCH   1   8
TORSDOF 2
ENDMDL
MODEL 2
REMARK VINA RESULT:      -5.3      2.369      5.029
REMARK  Name = Pyridostigmine
REMARK  5 active torsions:
REMARK  status: ('A' for Active; 'I' for Inactive)
REMARK    1  A    between atoms: C_1  and  N_2
REMARK    2  A    between atoms: N_2  and  C_3
REMARK    3  A    between atoms: C_4  and  O_6
REMARK    4  A    between atoms: O_6  and  C_7
REMARK    5  A    between atoms: N_9  and  C_10
REMARK                            x       y       z     vdW  Elec       q    Type
REMARK                         _______ _______ _______ _____ _____    ______ ____
ROOT
ATOM      1  C   UNL     1     -12.515   7.071 129.980  0.00  0.00    +0.000 A 
ATOM      2  C   UNL     1     -12.548   8.438 130.251  0.00  0.00    +0.000 A 
ATOM      3  N   UNL     1     -13.115   9.307 129.384  0.00  0.00    +0.000 N 
ATOM      4  C   UNL     1     -13.349  10.698 129.811  0.00  0.00    +0.000 C 
ATOM      5  C   UNL     1     -13.543   8.895 128.170  0.00  0.00    +0.000 A 
ATOM      6  C   UNL     1     -13.505   7.540 127.839  0.00  0.00    +0.000 A 
ATOM      7  C   UNL     1     -13.013   6.613 128.763  0.00  0.00    +0.000 A 
ENDROOT
BRANCH   1   8
ATOM      8  O   UNL     1     -11.944   6.147 130.894  0.00  0.00    +0.000 OA
BRANCH   8  12
ATOM      9  C   UNL     1      -8.782   4.607 129.735  0.00  0.00    +0.000 C 
ATOM     10  N   UNL     1      -9.737   5.556 130.295  0.00  0.00    +0.000 N 
ATOM     11  C   UNL     1      -9.244   6.851 130.726  0.00  0.00    +0.000 C 
ATOM     12  C   UNL     1     -11.068   5.173 130.374  0.00  0.00    +0.000 C 
ATOM     13  O   UNL     1     -11.457   4.053 130.038  0.00  0.00    +0.000 OA
ENDBRANCH   8  12
ENDBRANCH   1   8
TORSDOF 2
ENDMDL
MODEL 3
REMARK VINA RESULT:      -5.3      2.228      5.037
REMARK  Name = Pyridostigmine
REMARK  5 active torsions:
REMARK  status: ('A' for Active; 'I' for Inactive)
REMARK    1  A    between atoms: C_1  and  N_2
REMARK    2  A    between atoms: N_2  and  C_3
REMARK    3  A    between atoms: C_4  and  O_6
REMARK    4  A    between atoms: O_6  and  C_7
REMARK    5  A    between atoms: N_9  and  C_10
REMARK                            x       y       z     vdW  Elec       q    Type
REMARK                         _______ _______ _______ _____ _____    ______ ____
ROOT
ATOM      1  C   UNL     1     -11.919   6.933 130.323  0.00  0.00    +0.000 A 
ATOM      2  C   UNL     1     -11.458   6.807 129.014  0.00  0.00    +0.000 A 
ATOM      3  N   UNL     1     -11.630   7.802 128.115  0.00  0.00    +0.000 N 
ATOM      4  C   UNL     1     -10.922   7.734 126.825  0.00  0.00    +0.000 C 
ATOM      5  C   UNL     1     -12.372   8.890 128.419  0.00  0.00    +0.000 A 
ATOM      6  C   UNL     1     -12.880   9.052 129.708  0.00  0.00    +0.000 A 
ATOM      7  C   UNL     1     -12.628   8.078 130.680  0.00  0.00    +0.000 A 
ENDROOT
BRANCH   1   8
ATOM      8  O   UNL     1     -11.723   5.905 131.282  0.00  0.00    +0.000 OA
BRANCH   8  12
ATOM      9  C   UNL     1      -8.489   4.196 131.854  0.00  0.00    +0.000 C 
ATOM     10  N   UNL     1      -9.833   4.492 131.375  0.00  0.00    +0.000 N 
ATOM     11  C   UNL     1     -10.496   3.505 130.542  0.00  0.00    +0.000 C 
ATOM     12  C   UNL     1     -10.411   5.695 131.752  0.00  0.00    +0.000 C 
ATOM     13  O   UNL     1      -9.814   6.535 132.428  0.00  0.00    +0.000 OA
ENDBRANCH   8  12
ENDBRANCH   1   8
TORSDOF 2
ENDMDL
MODEL 4
REMARK VINA RESULT:      -5.1      1.687      2.239
REMARK  Name = Pyridostigmine
REMARK  5 active torsions:
REMARK  status: ('A' for Active; 'I' for Inactive)
REMARK    1  A    between atoms: C_1  and  N_2
REMARK    2  A    between atoms: N_2  and  C_3
REMARK    3  A    between atoms: C_4  and  O_6
REMARK    4  A    between atoms: O_6  and  C_7
REMARK    5  A    between atoms: N_9  and  C_10
REMARK                            x       y       z     vdW  Elec       q    Type
REMARK                         _______ _______ _______ _____ _____    ______ ____
ROOT
ATOM      1  C   UNL     1     -10.145   6.485 131.558  0.00  0.00    +0.000 A 
ATOM      2  C   UNL     1      -9.730   5.754 132.669  0.00  0.00    +0.000 A 
ATOM      3  N   UNL     1      -8.417   5.620 132.966  0.00  0.00    +0.000 N 
ATOM      4  C   UNL     1      -8.029   5.053 134.269  0.00  0.00    +0.000 C 
ATOM      5  C   UNL     1      -7.466   6.076 132.120  0.00  0.00    +0.000 A 
ATOM      6  C   UNL     1      -7.830   6.791 130.979  0.00  0.00    +0.000 A 
ATOM      7  C   UNL     1      -9.182   7.024 130.708  0.00  0.00    +0.000 A 
ENDROOT
BRANCH   1   8
ATOM      8  O   UNL     1     -11.521   6.652 131.251  0.00  0.00    +0.000 OA
BRANCH   8  12
ATOM      9  C   UNL     1     -12.983   7.039 127.872  0.00  0.00    +0.000 C 
ATOM     10  N   UNL     1     -12.494   7.338 129.211  0.00  0.00    +0.000 N 
ATOM     11  C   UNL     1     -12.619   8.700 129.698  0.00  0.00    +0.000 C 
ATOM     12  C   UNL     1     -11.946   6.303 129.954  0.00  0.00    +0.000 C 
ATOM     13  O   UNL     1     -11.814   5.162 129.505  0.00  0.00    +0.000 OA
ENDBRANCH   8  12
ENDBRANCH   1   8
TORSDOF 2
ENDMDL
MODEL 5
REMARK VINA RESULT:      -5.0      2.613      5.015
REMARK  Name = Pyridostigmine
REMARK  5 active torsions:
REMARK  status: ('A' for Active; 'I' for Inactive)
REMARK    1  A    between atoms: C_1  and  N_2
REMARK    2  A    between atoms: N_2  and  C_3
REMARK    3  A    between atoms: C_4  and  O_6
REMARK    4  A    between atoms: O_6  and  C_7
REMARK    5  A    between atoms: N_9  and  C_10
REMARK                            x       y       z     vdW  Elec       q    Type
REMARK                         _______ _______ _______ _____ _____    ______ ____
ROOT
ATOM      1  C   UNL     1     -10.525   6.159 130.928  0.00  0.00    +0.000 A 
ATOM      2  C   UNL     1     -10.327   6.809 129.710  0.00  0.00    +0.000 A 
ATOM      3  N   UNL     1     -11.205   7.736 129.264  0.00  0.00    +0.000 N 
ATOM      4  C   UNL     1     -10.842   8.570 128.105  0.00  0.00    +0.000 C 
ATOM      5  C   UNL     1     -12.367   7.961 129.918  0.00  0.00    +0.000 A 
ATOM      6  C   UNL     1     -12.625   7.315 131.127  0.00  0.00    +0.000 A 
ATOM      7  C   UNL     1     -11.683   6.426 131.654  0.00  0.00    +0.000 A 
ENDROOT
BRANCH   1   8
ATOM      8  O   UNL     1      -9.598   5.203 131.417  0.00  0.00    +0.000 OA
BRANCH   8  12
ATOM      9  C   UNL     1      -9.819   1.545 131.949  0.00  0.00    +0.000 C 
ATOM     10  N   UNL     1      -9.607   2.968 132.182  0.00  0.00    +0.000 N 
ATOM     11  C   UNL     1      -9.136   3.386 133.490  0.00  0.00    +0.000 C 
ATOM     12  C   UNL     1      -9.853   3.845 131.136  0.00  0.00    +0.000 C 
ATOM     13  O   UNL     1     -10.290   3.472 130.046  0.00  0.00    +0.000 OA
ENDBRANCH   8  12
ENDBRANCH   1   8
TORSDOF 2
ENDMDL
MODEL 6
REMARK VINA RESULT:      -4.8      2.149      4.761
REMARK  Name = Pyridostigmine
REMARK  5 active torsions:
REMARK  status: ('A' for Active; 'I' for Inactive)
REMARK    1  A    between atoms: C_1  and  N_2
REMARK    2  A    between atoms: N_2  and  C_3
REMARK    3  A    between atoms: C_4  and  O_6
REMARK    4  A    between atoms: O_6  and  C_7
REMARK    5  A    between atoms: N_9  and  C_10
REMARK                            x       y       z     vdW  Elec       q    Type
REMARK                         _______ _______ _______ _____ _____    ______ ____
ROOT
ATOM      1  C   UNL     1     -10.306   6.568 128.909  0.00  0.00    +0.000 A 
ATOM      2  C   UNL     1     -11.044   6.670 130.087  0.00  0.00    +0.000 A 
ATOM      3  N   UNL     1     -12.001   7.615 130.232  0.00  0.00    +0.000 N 
ATOM      4  C   UNL     1     -12.918   7.539 131.382  0.00  0.00    +0.000 C 
ATOM      5  C   UNL     1     -12.176   8.572 129.293  0.00  0.00    +0.000 A 
ATOM      6  C   UNL     1     -11.443   8.530 128.107  0.00  0.00    +0.000 A 
ATOM      7  C   UNL     1     -10.517   7.502 127.898  0.00  0.00    +0.000 A 
ENDROOT
BRANCH   1   8
ATOM      8  O   UNL     1      -9.316   5.565 128.739  0.00  0.00    +0.000 OA
BRANCH   8  12
ATOM      9  C   UNL     1      -7.666   3.812 131.551  0.00  0.00    +0.000 C 
ATOM     10  N   UNL     1      -8.535   4.098 130.417  0.00  0.00    +0.000 N 
ATOM     11  C   UNL     1      -9.474   3.074 129.997  0.00  0.00    +0.000 C 
ATOM     12  C   UNL     1      -8.426   5.340 129.808  0.00  0.00    +0.000 C 
ATOM     13  O   UNL     1      -7.593   6.179 130.157  0.00  0.00    +0.000 OA
ENDBRANCH   8  12
ENDBRANCH   1   8
TORSDOF 2
ENDMDL
MODEL 7
REMARK VINA RESULT:      -4.8      2.167      5.261
REMARK  Name = Pyridostigmine
REMARK  5 active torsions:
REMARK  status: ('A' for Active; 'I' for Inactive)
REMARK    1  A    between atoms: C_1  and  N_2
REMARK    2  A    between atoms: N_2  and  C_3
REMARK    3  A    between atoms: C_4  and  O_6
REMARK    4  A    between atoms: O_6  and  C_7
REMARK    5  A    between atoms: N_9  and  C_10
REMARK                            x       y       z     vdW  Elec       q    Type
REMARK                         _______ _______ _______ _____ _____    ______ ____
ROOT
ATOM      1  C   UNL     1     -11.319   6.264 129.928  0.00  0.00    +0.000 A 
ATOM      2  C   UNL     1     -12.540   6.589 129.339  0.00  0.00    +0.000 A 
ATOM      3  N   UNL     1     -12.637   7.601 128.448  0.00  0.00    +0.000 N 
ATOM      4  C   UNL     1     -13.878   7.757 127.670  0.00  0.00    +0.000 C 
ATOM      5  C   UNL     1     -11.584   8.414 128.205  0.00  0.00    +0.000 A 
ATOM      6  C   UNL     1     -10.346   8.148 128.791  0.00  0.00    +0.000 A 
ATOM      7  C   UNL     1     -10.203   7.045 129.640  0.00  0.00    +0.000 A 
ENDROOT
BRANCH   1   8
ATOM      8  O   UNL     1     -11.202   5.188 130.846  0.00  0.00    +0.000 OA
BRANCH   8  12
ATOM      9  C   UNL     1      -8.057   3.364 131.550  0.00  0.00    +0.000 C 
ATOM     10  N   UNL     1      -9.206   4.250 131.692  0.00  0.00    +0.000 N 
ATOM     11  C   UNL     1      -9.307   5.053 132.897  0.00  0.00    +0.000 C 
ATOM     12  C   UNL     1     -10.133   4.288 130.661  0.00  0.00    +0.000 C 
ATOM     13  O   UNL     1     -10.046   3.568 129.664  0.00  0.00    +0.000 OA
ENDBRANCH   8  12
ENDBRANCH   1   8
TORSDOF 2
ENDMDL
MODEL 8
REMARK VINA RESULT:      -4.7      9.664     10.336
REMARK  Name = Pyridostigmine
REMARK  5 active torsions:
REMARK  status: ('A' for Active; 'I' for Inactive)
REMARK    1  A    between atoms: C_1  and  N_2
REMARK    2  A    between atoms: N_2  and  C_3
REMARK    3  A    between atoms: C_4  and  O_6
REMARK    4  A    between atoms: O_6  and  C_7
REMARK    5  A    between atoms: N_9  and  C_10
REMARK                            x       y       z     vdW  Elec       q    Type
REMARK                         _______ _______ _______ _____ _____    ______ ____
ROOT
ATOM      1  C   UNL     1      -8.692  -1.555 124.558  0.00  0.00    +0.000 A 
ATOM      2  C   UNL     1      -7.384  -1.529 124.079  0.00  0.00    +0.000 A 
ATOM      3  N   UNL     1      -6.666  -2.668 123.952  0.00  0.00    +0.000 N 
ATOM      4  C   UNL     1      -5.387  -2.634 123.221  0.00  0.00    +0.000 C 
ATOM      5  C   UNL     1      -7.146  -3.846 124.411  0.00  0.00    +0.000 A 
ATOM      6  C   UNL     1      -8.441  -3.919 124.925  0.00  0.00    +0.000 A 
ATOM      7  C   UNL     1      -9.235  -2.768 124.974  0.00  0.00    +0.000 A 
ENDROOT
BRANCH   1   8
ATOM      8  O   UNL     1      -9.463  -0.368 124.673  0.00  0.00    +0.000 OA
BRANCH   8  12
ATOM      9  C   UNL     1      -9.017   2.564 122.458  0.00  0.00    +0.000 C 
ATOM     10  N   UNL     1      -8.911   1.659 123.595  0.00  0.00    +0.000 N 
ATOM     11  C   UNL     1      -8.123   2.083 124.737  0.00  0.00    +0.000 C 
ATOM     12  C   UNL     1      -9.580   0.446 123.529  0.00  0.00    +0.000 C 
ATOM     13  O   UNL     1     -10.212   0.090 122.532  0.00  0.00    +0.000 OA
ENDBRANCH   8  12
ENDBRANCH   1   8
TORSDOF 2
ENDMDL
MODEL 9
REMARK VINA RESULT:      -4.7      2.011      2.454
REMARK  Name = Pyridostigmine
REMARK  5 active torsions:
REMARK  status: ('A' for Active; 'I' for Inactive)
REMARK    1  A    between atoms: C_1  and  N_2
REMARK    2  A    between atoms: N_2  and  C_3
REMARK    3  A    between atoms: C_4  and  O_6
REMARK    4  A    between atoms: O_6  and  C_7
REMARK    5  A    between atoms: N_9  and  C_10
REMARK                            x       y       z     vdW  Elec       q    Type
REMARK                         _______ _______ _______ _____ _____    ______ ____
ROOT
ATOM      1  C   UNL     1      -9.737   5.661 130.024  0.00  0.00    +0.000 A 
ATOM      2  C   UNL     1      -8.848   4.662 129.632  0.00  0.00    +0.000 A 
ATOM      3  N   UNL     1      -7.552   4.690 130.017  0.00  0.00    +0.000 N 
ATOM      4  C   UNL     1      -6.709   3.503 129.790  0.00  0.00    +0.000 C 
ATOM      5  C   UNL     1      -7.049   5.757 130.678  0.00  0.00    +0.000 A 
ATOM      6  C   UNL     1      -7.891   6.797 131.070  0.00  0.00    +0.000 A 
ATOM      7  C   UNL     1      -9.255   6.738 130.766  0.00  0.00    +0.000 A 
ENDROOT
BRANCH   1   8
ATOM      8  O   UNL     1     -11.105   5.629 129.646  0.00  0.00    +0.000 OA
BRANCH   8  12
ATOM      9  C   UNL     1     -13.055   8.621 128.672  0.00  0.00    +0.000 C 
ATOM     10  N   UNL     1     -12.495   7.529 129.457  0.00  0.00    +0.000 N 
ATOM     11  C   UNL     1     -12.933   7.378 130.833  0.00  0.00    +0.000 C 
ATOM     12  C   UNL     1     -11.583   6.683 128.843  0.00  0.00    +0.000 C 
ATOM     13  O   UNL     1     -11.196   6.854 127.685  0.00  0.00    +0.000 OA
ENDBRANCH   8  12
ENDBRANCH   1   8
TORSDOF 2
ENDMDL
