MODEL 1
REMARK VINA RESULT:      -4.9      0.000      0.000
REMARK  Name = Pyrophosphoric acid
REMARK  6 active torsions:
REMARK  status: ('A' for Active; 'I' for Inactive)
REMARK    1  A    between atoms: O_1  and  P_2
REMARK    2  A    between atoms: P_2  and  O_3
REMARK    3  A    between atoms: P_2  and  O_5
REMARK    4  A    between atoms: O_5  and  P_6
REMARK    5  A    between atoms: P_6  and  O_7
REMARK    6  A    between atoms: P_6  and  O_8
REMARK                            x       y       z     vdW  Elec       q    Type
REMARK                         _______ _______ _______ _____ _____    ______ ____
ROOT
ATOM      1  O   UNL     1     -11.321   6.695 128.245  0.00  0.00    +0.000 OA
ENDROOT
BRANCH   1   2
ATOM      2  P   UNL     1     -11.028   7.408 126.696  0.00  0.00    +0.000 P 
ATOM      3  O   UNL     1      -9.849   6.483 126.397  0.00  0.00    +0.000 OA
BRANCH   2   4
ATOM      4  O   UNL     1     -10.734   8.121 125.147  0.00  0.00    +0.000 OA
ATOM      5  H   UNL     1     -11.422   8.829 125.131  0.00  0.00    +0.000 HD
ENDBRANCH   2   4
BRANCH   2   6
ATOM      6  O   UNL     1     -12.329   6.679 126.043  0.00  0.00    +0.000 OA
ATOM      7  H   UNL     1     -13.059   7.326 126.009  0.00  0.00    +0.000 HD
ENDBRANCH   2   6
ENDBRANCH   1   2
BRANCH   1   8
ATOM      8  P   UNL     1     -12.081   7.855 129.280  0.00  0.00    +0.000 P 
ATOM      9  O   UNL     1     -12.761   8.893 130.206  0.00  0.00    +0.000 OA
BRANCH   8  10
ATOM     10  O   UNL     1     -11.837   8.893 128.034  0.00  0.00    +0.000 OA
ATOM     11  H   UNL     1     -10.891   9.014 127.840  0.00  0.00    +0.000 HD
ENDBRANCH   8  10
BRANCH   8  12
ATOM     12  O   UNL     1     -13.523   7.372 128.668  0.00  0.00    +0.000 OA
ATOM     13  H   UNL     1     -13.393   7.316 127.696  0.00  0.00    +0.000 HD
ENDBRANCH   8  12
ENDBRANCH   1   8
TORSDOF 6
ENDMDL
MODEL 2
REMARK VINA RESULT:      -4.4      0.828      3.927
REMARK  Name = Pyrophosphoric acid
REMARK  6 active torsions:
REMARK  status: ('A' for Active; 'I' for Inactive)
REMARK    1  A    between atoms: O_1  and  P_2
REMARK    2  A    between atoms: P_2  and  O_3
REMARK    3  A    between atoms: P_2  and  O_5
REMARK    4  A    between atoms: O_5  and  P_6
REMARK    5  A    between atoms: P_6  and  O_7
REMARK    6  A    between atoms: P_6  and  O_8
REMARK                            x       y       z     vdW  Elec       q    Type
REMARK                         _______ _______ _______ _____ _____    ______ ____
ROOT
ATOM      1  O   UNL     1     -11.901   8.451 127.719  0.00  0.00    +0.000 OA
ENDROOT
BRANCH   1   2
ATOM      2  P   UNL     1     -12.440   7.802 129.229  0.00  0.00    +0.000 P 
ATOM      3  O   UNL     1     -12.834   9.173 129.777  0.00  0.00    +0.000 OA
BRANCH   2   4
ATOM      4  O   UNL     1     -12.980   7.154 130.740  0.00  0.00    +0.000 OA
ATOM      5  H   UNL     1     -12.488   7.725 131.378  0.00  0.00    +0.000 HD
ENDBRANCH   2   4
BRANCH   2   6
ATOM      6  O   UNL     1     -13.795   7.196 128.559  0.00  0.00    +0.000 OA
ATOM      7  H   UNL     1     -14.550   7.747 128.841  0.00  0.00    +0.000 HD
ENDBRANCH   2   6
ENDBRANCH   1   2
BRANCH   1   8
ATOM      8  P   UNL     1     -10.774   7.358 126.991  0.00  0.00    +0.000 P 
ATOM      9  O   UNL     1      -9.766   6.380 126.339  0.00  0.00    +0.000 OA
BRANCH   8  10
ATOM     10  O   UNL     1     -11.037   6.445 128.327  0.00  0.00    +0.000 OA
ATOM     11  H   UNL     1     -11.855   6.701 128.789  0.00  0.00    +0.000 HD
ENDBRANCH   8  10
BRANCH   8  12
ATOM     12  O   UNL     1     -12.037   6.669 126.204  0.00  0.00    +0.000 OA
ATOM     13  H   UNL     1     -12.010   5.716 126.443  0.00  0.00    +0.000 HD
ENDBRANCH   8  12
ENDBRANCH   1   8
TORSDOF 6
ENDMDL
MODEL 3
REMARK VINA RESULT:      -4.3      1.884      2.809
REMARK  Name = Pyrophosphoric acid
REMARK  6 active torsions:
REMARK  status: ('A' for Active; 'I' for Inactive)
REMARK    1  A    between atoms: O_1  and  P_2
REMARK    2  A    between atoms: P_2  and  O_3
REMARK    3  A    between atoms: P_2  and  O_5
REMARK    4  A    between atoms: O_5  and  P_6
REMARK    5  A    between atoms: P_6  and  O_7
REMARK    6  A    between atoms: P_6  and  O_8
REMARK                            x       y       z     vdW  Elec       q    Type
REMARK                         _______ _______ _______ _____ _____    ______ ____
ROOT
ATOM      1  O   UNL     1     -10.004   7.901 128.143  0.00  0.00    +0.000 OA
ENDROOT
BRANCH   1   2
ATOM      2  P   UNL     1     -11.173   7.460 126.947  0.00  0.00    +0.000 P 
ATOM      3  O   UNL     1     -10.197   6.550 126.203  0.00  0.00    +0.000 OA
BRANCH   2   4
ATOM      4  O   UNL     1     -12.343   7.018 125.751  0.00  0.00    +0.000 OA
ATOM      5  H   UNL     1     -12.033   7.548 124.978  0.00  0.00    +0.000 HD
ENDBRANCH   2   4
BRANCH   2   6
ATOM      6  O   UNL     1     -11.965   6.489 127.988  0.00  0.00    +0.000 OA
ATOM      7  H   UNL     1     -11.585   6.618 128.878  0.00  0.00    +0.000 HD
ENDBRANCH   2   6
ENDBRANCH   1   2
BRANCH   1   8
ATOM      8  P   UNL     1     -10.197   6.896 129.538  0.00  0.00    +0.000 P 
ATOM      9  O   UNL     1     -10.370   5.997 130.787  0.00  0.00    +0.000 OA
BRANCH   8  10
ATOM     10  O   UNL     1      -9.361   5.790 128.663  0.00  0.00    +0.000 OA
ATOM     11  H   UNL     1      -8.476   5.626 129.032  0.00  0.00    +0.000 HD
ENDBRANCH   8  10
BRANCH   8  12
ATOM     12  O   UNL     1      -8.816   7.552 130.132  0.00  0.00    +0.000 OA
ATOM     13  H   UNL     1      -8.169   6.814 130.170  0.00  0.00    +0.000 HD
ENDBRANCH   8  12
ENDBRANCH   1   8
TORSDOF 6
ENDMDL
MODEL 4
REMARK VINA RESULT:      -4.1      1.921      3.932
REMARK  Name = Pyrophosphoric acid
REMARK  6 active torsions:
REMARK  status: ('A' for Active; 'I' for Inactive)
REMARK    1  A    between atoms: O_1  and  P_2
REMARK    2  A    between atoms: P_2  and  O_3
REMARK    3  A    between atoms: P_2  and  O_5
REMARK    4  A    between atoms: O_5  and  P_6
REMARK    5  A    between atoms: P_6  and  O_7
REMARK    6  A    between atoms: P_6  and  O_8
REMARK                            x       y       z     vdW  Elec       q    Type
REMARK                         _______ _______ _______ _____ _____    ______ ____
ROOT
ATOM      1  O   UNL     1     -12.233   6.042 128.399  0.00  0.00    +0.000 OA
ENDROOT
BRANCH   1   2
ATOM      2  P   UNL     1     -12.107   6.060 130.124  0.00  0.00    +0.000 P 
ATOM      3  O   UNL     1     -11.085   4.924 130.149  0.00  0.00    +0.000 OA
BRANCH   2   4
ATOM      4  O   UNL     1     -11.982   6.079 131.850  0.00  0.00    +0.000 OA
ATOM      5  H   UNL     1     -11.520   5.222 132.016  0.00  0.00    +0.000 HD
ENDBRANCH   2   4
BRANCH   2   6
ATOM      6  O   UNL     1     -11.231   7.433 130.110  0.00  0.00    +0.000 OA
ATOM      7  H   UNL     1     -10.710   7.474 130.935  0.00  0.00    +0.000 HD
ENDBRANCH   2   6
ENDBRANCH   1   2
BRANCH   1   8
ATOM      8  P   UNL     1     -11.362   7.385 127.743  0.00  0.00    +0.000 P 
ATOM      9  O   UNL     1     -10.584   8.588 127.155  0.00  0.00    +0.000 OA
BRANCH   8  10
ATOM     10  O   UNL     1     -10.053   6.411 127.897  0.00  0.00    +0.000 OA
ATOM     11  H   UNL     1      -9.527   6.629 128.687  0.00  0.00    +0.000 HD
ENDBRANCH   8  10
BRANCH   8  12
ATOM     12  O   UNL     1     -11.693   6.797 126.248  0.00  0.00    +0.000 OA
ATOM     13  H   UNL     1     -11.300   7.440 125.618  0.00  0.00    +0.000 HD
ENDBRANCH   8  12
ENDBRANCH   1   8
TORSDOF 6
ENDMDL
MODEL 5
REMARK VINA RESULT:      -4.0      2.649      4.568
REMARK  Name = Pyrophosphoric acid
REMARK  6 active torsions:
REMARK  status: ('A' for Active; 'I' for Inactive)
REMARK    1  A    between atoms: O_1  and  P_2
REMARK    2  A    between atoms: P_2  and  O_3
REMARK    3  A    between atoms: P_2  and  O_5
REMARK    4  A    between atoms: O_5  and  P_6
REMARK    5  A    between atoms: P_6  and  O_7
REMARK    6  A    between atoms: P_6  and  O_8
REMARK                            x       y       z     vdW  Elec       q    Type
REMARK                         _______ _______ _______ _____ _____    ______ ____
ROOT
ATOM      1  O   UNL     1     -11.596   5.950 129.374  0.00  0.00    +0.000 OA
ENDROOT
BRANCH   1   2
ATOM      2  P   UNL     1     -11.130   5.911 131.040  0.00  0.00    +0.000 P 
ATOM      3  O   UNL     1     -12.493   6.406 131.522  0.00  0.00    +0.000 OA
BRANCH   2   4
ATOM      4  O   UNL     1     -10.664   5.872 132.705  0.00  0.00    +0.000 OA
ATOM      5  H   UNL     1     -11.200   6.617 133.070  0.00  0.00    +0.000 HD
ENDBRANCH   2   4
BRANCH   2   6
ATOM      6  O   UNL     1     -11.214   4.286 131.091  0.00  0.00    +0.000 OA
ATOM      7  H   UNL     1     -11.903   4.034 131.735  0.00  0.00    +0.000 HD
ENDBRANCH   2   6
ENDBRANCH   1   2
BRANCH   1   8
ATOM      8  P   UNL     1     -10.950   7.372 128.627  0.00  0.00    +0.000 P 
ATOM      9  O   UNL     1     -10.373   8.644 127.959  0.00  0.00    +0.000 OA
BRANCH   8  10
ATOM     10  O   UNL     1     -10.067   7.502 130.002  0.00  0.00    +0.000 OA
ATOM     11  H   UNL     1      -9.859   6.632 130.387  0.00  0.00    +0.000 HD
ENDBRANCH   8  10
BRANCH   8  12
ATOM     12  O   UNL     1      -9.816   6.419 127.924  0.00  0.00    +0.000 OA
ATOM     13  H   UNL     1      -9.414   6.967 127.215  0.00  0.00    +0.000 HD
ENDBRANCH   8  12
ENDBRANCH   1   8
TORSDOF 6
ENDMDL
MODEL 6
REMARK VINA RESULT:      -3.9      2.181      3.577
REMARK  Name = Pyrophosphoric acid
REMARK  6 active torsions:
REMARK  status: ('A' for Active; 'I' for Inactive)
REMARK    1  A    between atoms: O_1  and  P_2
REMARK    2  A    between atoms: P_2  and  O_3
REMARK    3  A    between atoms: P_2  and  O_5
REMARK    4  A    between atoms: O_5  and  P_6
REMARK    5  A    between atoms: P_6  and  O_7
REMARK    6  A    between atoms: P_6  and  O_8
REMARK                            x       y       z     vdW  Elec       q    Type
REMARK                         _______ _______ _______ _____ _____    ______ ____
ROOT
ATOM      1  O   UNL     1     -10.086   6.613 128.203  0.00  0.00    +0.000 OA
ENDROOT
BRANCH   1   2
ATOM      2  P   UNL     1      -9.838   6.686 129.913  0.00  0.00    +0.000 P 
ATOM      3  O   UNL     1      -8.825   7.825 129.805  0.00  0.00    +0.000 OA
BRANCH   2   4
ATOM      4  O   UNL     1      -9.590   6.760 131.624  0.00  0.00    +0.000 OA
ATOM      5  H   UNL     1     -10.450   6.406 131.956  0.00  0.00    +0.000 HD
ENDBRANCH   2   4
BRANCH   2   6
ATOM      6  O   UNL     1     -11.278   7.408 130.155  0.00  0.00    +0.000 OA
ATOM      7  H   UNL     1     -11.963   6.714 130.212  0.00  0.00    +0.000 HD
ENDBRANCH   2   6
ENDBRANCH   1   2
BRANCH   1   8
ATOM      8  P   UNL     1     -11.629   7.291 127.813  0.00  0.00    +0.000 P 
ATOM      9  O   UNL     1     -13.011   7.898 127.465  0.00  0.00    +0.000 OA
BRANCH   8  10
ATOM     10  O   UNL     1     -10.775   8.655 127.501  0.00  0.00    +0.000 OA
ATOM     11  H   UNL     1     -10.068   8.800 128.153  0.00  0.00    +0.000 HD
ENDBRANCH   8  10
BRANCH   8  12
ATOM     12  O   UNL     1     -11.421   6.743 126.282  0.00  0.00    +0.000 OA
ATOM     13  H   UNL     1     -11.061   5.834 126.373  0.00  0.00    +0.000 HD
ENDBRANCH   8  12
ENDBRANCH   1   8
TORSDOF 6
ENDMDL
MODEL 7
REMARK VINA RESULT:      -3.9      1.828      4.101
REMARK  Name = Pyrophosphoric acid
REMARK  6 active torsions:
REMARK  status: ('A' for Active; 'I' for Inactive)
REMARK    1  A    between atoms: O_1  and  P_2
REMARK    2  A    between atoms: P_2  and  O_3
REMARK    3  A    between atoms: P_2  and  O_5
REMARK    4  A    between atoms: O_5  and  P_6
REMARK    5  A    between atoms: P_6  and  O_7
REMARK    6  A    between atoms: P_6  and  O_8
REMARK                            x       y       z     vdW  Elec       q    Type
REMARK                         _______ _______ _______ _____ _____    ______ ____
ROOT
ATOM      1  O   UNL     1     -11.169   8.022 129.419  0.00  0.00    +0.000 OA
ENDROOT
BRANCH   1   2
ATOM      2  P   UNL     1     -11.562   6.904 130.680  0.00  0.00    +0.000 P 
ATOM      3  O   UNL     1     -12.874   7.611 131.017  0.00  0.00    +0.000 OA
BRANCH   2   4
ATOM      4  O   UNL     1     -11.955   5.786 131.940  0.00  0.00    +0.000 OA
ATOM      5  H   UNL     1     -12.909   5.615 131.752  0.00  0.00    +0.000 HD
ENDBRANCH   2   4
BRANCH   2   6
ATOM      6  O   UNL     1     -11.958   5.740 129.612  0.00  0.00    +0.000 OA
ATOM      7  H   UNL     1     -12.736   6.039 129.105  0.00  0.00    +0.000 HD
ENDBRANCH   2   6
ENDBRANCH   1   2
BRANCH   1   8
ATOM      8  P   UNL     1     -11.662   7.369 127.894  0.00  0.00    +0.000 P 
ATOM      9  O   UNL     1     -12.102   6.784 126.530  0.00  0.00    +0.000 OA
BRANCH   8  10
ATOM     10  O   UNL     1     -13.034   8.229 128.147  0.00  0.00    +0.000 OA
ATOM     11  H   UNL     1     -12.950   8.837 128.902  0.00  0.00    +0.000 HD
ENDBRANCH   8  10
BRANCH   8  12
ATOM     12  O   UNL     1     -10.928   8.646 127.174  0.00  0.00    +0.000 OA
ATOM     13  H   UNL     1     -11.308   8.693 126.269  0.00  0.00    +0.000 HD
ENDBRANCH   8  12
ENDBRANCH   1   8
TORSDOF 6
ENDMDL
MODEL 8
REMARK VINA RESULT:      -3.9      2.002      2.528
REMARK  Name = Pyrophosphoric acid
REMARK  6 active torsions:
REMARK  status: ('A' for Active; 'I' for Inactive)
REMARK    1  A    between atoms: O_1  and  P_2
REMARK    2  A    between atoms: P_2  and  O_3
REMARK    3  A    between atoms: P_2  and  O_5
REMARK    4  A    between atoms: O_5  and  P_6
REMARK    5  A    between atoms: P_6  and  O_7
REMARK    6  A    between atoms: P_6  and  O_8
REMARK                            x       y       z     vdW  Elec       q    Type
REMARK                         _______ _______ _______ _____ _____    ______ ____
ROOT
ATOM      1  O   UNL     1     -12.111   6.023 129.295  0.00  0.00    +0.000 OA
ENDROOT
BRANCH   1   2
ATOM      2  P   UNL     1     -11.609   7.349 128.304  0.00  0.00    +0.000 P 
ATOM      3  O   UNL     1     -11.798   6.564 127.007  0.00  0.00    +0.000 OA
BRANCH   2   4
ATOM      4  O   UNL     1     -11.108   8.675 127.313  0.00  0.00    +0.000 OA
ATOM      5  H   UNL     1     -10.162   8.767 127.582  0.00  0.00    +0.000 HD
ENDBRANCH   2   4
BRANCH   2   6
ATOM      6  O   UNL     1     -13.013   8.141 128.541  0.00  0.00    +0.000 OA
ATOM      7  H   UNL     1     -13.218   8.124 129.495  0.00  0.00    +0.000 HD
ENDBRANCH   2   6
ENDBRANCH   1   2
BRANCH   1   8
ATOM      8  P   UNL     1     -11.510   6.245 130.903  0.00  0.00    +0.000 P 
ATOM      9  O   UNL     1     -10.973   6.443 132.342  0.00  0.00    +0.000 OA
BRANCH   8  10
ATOM     10  O   UNL     1     -10.848   7.617 130.298  0.00  0.00    +0.000 OA
ATOM     11  H   UNL     1     -11.163   8.411 130.765  0.00  0.00    +0.000 HD
ENDBRANCH   8  10
BRANCH   8  12
ATOM     12  O   UNL     1     -12.914   7.014 131.261  0.00  0.00    +0.000 OA
ATOM     13  H   UNL     1     -12.667   7.746 131.867  0.00  0.00    +0.000 HD
ENDBRANCH   8  12
ENDBRANCH   1   8
TORSDOF 6
ENDMDL
MODEL 9
REMARK VINA RESULT:      -3.8      1.765      2.836
REMARK  Name = Pyrophosphoric acid
REMARK  6 active torsions:
REMARK  status: ('A' for Active; 'I' for Inactive)
REMARK    1  A    between atoms: O_1  and  P_2
REMARK    2  A    between atoms: P_2  and  O_3
REMARK    3  A    between atoms: P_2  and  O_5
REMARK    4  A    between atoms: O_5  and  P_6
REMARK    5  A    between atoms: P_6  and  O_7
REMARK    6  A    between atoms: P_6  and  O_8
REMARK                            x       y       z     vdW  Elec       q    Type
REMARK                         _______ _______ _______ _____ _____    ______ ____
ROOT
ATOM      1  O   UNL     1     -12.002   6.711 128.209  0.00  0.00    +0.000 OA
ENDROOT
BRANCH   1   2
ATOM      2  P   UNL     1     -10.452   6.692 128.978  0.00  0.00    +0.000 P 
ATOM      3  O   UNL     1     -10.698   5.335 129.636  0.00  0.00    +0.000 OA
BRANCH   2   4
ATOM      4  O   UNL     1      -8.902   6.673 129.746  0.00  0.00    +0.000 OA
ATOM      5  H   UNL     1      -9.162   6.579 130.694  0.00  0.00    +0.000 HD
ENDBRANCH   2   4
BRANCH   2   6
ATOM      6  O   UNL     1      -9.689   6.363 127.576  0.00  0.00    +0.000 OA
ATOM      7  H   UNL     1     -10.111   5.580 127.174  0.00  0.00    +0.000 HD
ENDBRANCH   2   6
ENDBRANCH   1   2
BRANCH   1   8
ATOM      8  P   UNL     1     -12.748   8.252 128.452  0.00  0.00    +0.000 P 
ATOM      9  O   UNL     1     -13.416   9.632 128.670  0.00  0.00    +0.000 OA
BRANCH   8  10
ATOM     10  O   UNL     1     -12.333   8.030 130.023  0.00  0.00    +0.000 OA
ATOM     11  H   UNL     1     -11.572   8.580 130.280  0.00  0.00    +0.000 HD
ENDBRANCH   8  10
BRANCH   8  12
ATOM     12  O   UNL     1     -11.301   8.944 128.110  0.00  0.00    +0.000 OA
ATOM     13  H   UNL     1     -11.513   9.791 127.660  0.00  0.00    +0.000 HD
ENDBRANCH   8  12
ENDBRANCH   1   8
TORSDOF 6
ENDMDL
