MODEL 1
REMARK VINA RESULT:      -4.1      0.000      0.000
REMARK  Name = Pyruvic acid
REMARK  3 active torsions:
REMARK  status: ('A' for Active; 'I' for Inactive)
REMARK    1  A    between atoms: C_1  and  C_2
REMARK    2  A    between atoms: C_2  and  C_4
REMARK    3  A    between atoms: C_4  and  O_5
REMARK                            x       y       z     vdW  Elec       q    Type
REMARK                         _______ _______ _______ _____ _____    ______ ____
ROOT
ATOM      1  C   UNL     1      -5.468   5.496 119.570  0.00  0.00    +0.000 C 
ATOM      2  O   UNL     1      -4.728   6.143 120.292  0.00  0.00    +0.000 OA
ENDROOT
BRANCH   1   4
ATOM      3  C   UNL     1      -5.508   3.252 120.928  0.00  0.00    +0.000 C 
ATOM      4  C   UNL     1      -6.250   4.276 120.119  0.00  0.00    +0.000 C 
ATOM      5  O   UNL     1      -7.449   4.161 119.891  0.00  0.00    +0.000 OA
ENDBRANCH   1   4
BRANCH   1   6
ATOM      6  O   UNL     1      -5.645   5.800 118.276  0.00  0.00    +0.000 OA
ATOM      7  H   UNL     1      -6.473   5.541 117.838  0.00  0.00    +0.000 HD
ENDBRANCH   1   6
TORSDOF 2
ENDMDL
MODEL 2
REMARK VINA RESULT:      -3.9      0.871      2.096
REMARK  Name = Pyruvic acid
REMARK  3 active torsions:
REMARK  status: ('A' for Active; 'I' for Inactive)
REMARK    1  A    between atoms: C_1  and  C_2
REMARK    2  A    between atoms: C_2  and  C_4
REMARK    3  A    between atoms: C_4  and  O_5
REMARK                            x       y       z     vdW  Elec       q    Type
REMARK                         _______ _______ _______ _____ _____    ______ ____
ROOT
ATOM      1  C   UNL     1      -6.144   5.272 118.879  0.00  0.00    +0.000 C 
ATOM      2  O   UNL     1      -7.169   4.618 118.776  0.00  0.00    +0.000 OA
ENDROOT
BRANCH   1   4
ATOM      3  C   UNL     1      -5.178   3.829 120.845  0.00  0.00    +0.000 C 
ATOM      4  C   UNL     1      -5.244   5.149 120.135  0.00  0.00    +0.000 C 
ATOM      5  O   UNL     1      -4.604   6.118 120.529  0.00  0.00    +0.000 OA
ENDBRANCH   1   4
BRANCH   1   6
ATOM      6  O   UNL     1      -5.743   6.122 117.923  0.00  0.00    +0.000 OA
ATOM      7  H   UNL     1      -6.197   6.115 117.063  0.00  0.00    +0.000 HD
ENDBRANCH   1   6
TORSDOF 2
ENDMDL
MODEL 3
REMARK VINA RESULT:      -3.9      9.321      9.870
REMARK  Name = Pyruvic acid
REMARK  3 active torsions:
REMARK  status: ('A' for Active; 'I' for Inactive)
REMARK    1  A    between atoms: C_1  and  C_2
REMARK    2  A    between atoms: C_2  and  C_4
REMARK    3  A    between atoms: C_4  and  O_5
REMARK                            x       y       z     vdW  Elec       q    Type
REMARK                         _______ _______ _______ _____ _____    ______ ____
ROOT
ATOM      1  C   UNL     1     -11.266   7.614 126.382  0.00  0.00    +0.000 C 
ATOM      2  O   UNL     1     -10.686   8.075 125.412  0.00  0.00    +0.000 OA
ENDROOT
BRANCH   1   4
ATOM      3  C   UNL     1     -12.419   8.714 128.465  0.00  0.00    +0.000 C 
ATOM      4  C   UNL     1     -11.157   8.292 127.771  0.00  0.00    +0.000 C 
ATOM      5  O   UNL     1     -10.057   8.475 128.281  0.00  0.00    +0.000 OA
ENDBRANCH   1   4
BRANCH   1   6
ATOM      6  O   UNL     1     -12.020   6.509 126.301  0.00  0.00    +0.000 OA
ATOM      7  H   UNL     1     -12.947   6.545 126.591  0.00  0.00    +0.000 HD
ENDBRANCH   1   6
TORSDOF 2
ENDMDL
MODEL 4
REMARK VINA RESULT:      -3.6      1.524      2.263
REMARK  Name = Pyruvic acid
REMARK  3 active torsions:
REMARK  status: ('A' for Active; 'I' for Inactive)
REMARK    1  A    between atoms: C_1  and  C_2
REMARK    2  A    between atoms: C_2  and  C_4
REMARK    3  A    between atoms: C_4  and  O_5
REMARK                            x       y       z     vdW  Elec       q    Type
REMARK                         _______ _______ _______ _____ _____    ______ ____
ROOT
ATOM      1  C   UNL     1      -4.893   5.128 120.699  0.00  0.00    +0.000 C 
ATOM      2  O   UNL     1      -4.759   4.127 121.383  0.00  0.00    +0.000 OA
ENDROOT
BRANCH   1   4
ATOM      3  C   UNL     1      -7.040   4.193 119.516  0.00  0.00    +0.000 C 
ATOM      4  C   UNL     1      -5.884   5.150 119.507  0.00  0.00    +0.000 C 
ATOM      5  O   UNL     1      -5.716   5.938 118.582  0.00  0.00    +0.000 OA
ENDBRANCH   1   4
BRANCH   1   6
ATOM      6  O   UNL     1      -4.201   6.251 120.936  0.00  0.00    +0.000 OA
ATOM      7  H   UNL     1      -3.806   6.388 121.815  0.00  0.00    +0.000 HD
ENDBRANCH   1   6
TORSDOF 2
ENDMDL
MODEL 5
REMARK VINA RESULT:      -3.5      9.785     10.297
REMARK  Name = Pyruvic acid
REMARK  3 active torsions:
REMARK  status: ('A' for Active; 'I' for Inactive)
REMARK    1  A    between atoms: C_1  and  C_2
REMARK    2  A    between atoms: C_2  and  C_4
REMARK    3  A    between atoms: C_4  and  O_5
REMARK                            x       y       z     vdW  Elec       q    Type
REMARK                         _______ _______ _______ _____ _____    ______ ____
ROOT
ATOM      1  C   UNL     1     -11.234   7.500 127.172  0.00  0.00    +0.000 C 
ATOM      2  O   UNL     1     -10.735   6.802 126.305  0.00  0.00    +0.000 OA
ENDROOT
BRANCH   1   4
ATOM      3  C   UNL     1     -13.778   7.670 127.788  0.00  0.00    +0.000 C 
ATOM      4  C   UNL     1     -12.450   7.002 127.993  0.00  0.00    +0.000 C 
ATOM      5  O   UNL     1     -12.316   6.080 128.791  0.00  0.00    +0.000 OA
ENDBRANCH   1   4
BRANCH   1   6
ATOM      6  O   UNL     1     -10.764   8.722 127.460  0.00  0.00    +0.000 OA
ATOM      7  H   UNL     1     -10.359   9.253 126.752  0.00  0.00    +0.000 HD
ENDBRANCH   1   6
TORSDOF 2
ENDMDL
MODEL 6
REMARK VINA RESULT:      -3.4     10.159     10.832
REMARK  Name = Pyruvic acid
REMARK  3 active torsions:
REMARK  status: ('A' for Active; 'I' for Inactive)
REMARK    1  A    between atoms: C_1  and  C_2
REMARK    2  A    between atoms: C_2  and  C_4
REMARK    3  A    between atoms: C_4  and  O_5
REMARK                            x       y       z     vdW  Elec       q    Type
REMARK                         _______ _______ _______ _____ _____    ______ ____
ROOT
ATOM      1  C   UNL     1     -12.712   7.193 127.311  0.00  0.00    +0.000 C 
ATOM      2  O   UNL     1     -13.802   6.774 127.666  0.00  0.00    +0.000 OA
ENDROOT
BRANCH   1   4
ATOM      3  C   UNL     1     -10.535   8.455 128.053  0.00  0.00    +0.000 C 
ATOM      4  C   UNL     1     -12.034   8.374 128.051  0.00  0.00    +0.000 C 
ATOM      5  O   UNL     1     -12.719   9.218 128.619  0.00  0.00    +0.000 OA
ENDBRANCH   1   4
BRANCH   1   6
ATOM      6  O   UNL     1     -12.049   6.663 126.274  0.00  0.00    +0.000 OA
ATOM      7  H   UNL     1     -11.866   7.216 125.495  0.00  0.00    +0.000 HD
ENDBRANCH   1   6
TORSDOF 2
ENDMDL
MODEL 7
REMARK VINA RESULT:      -3.4     11.720     12.345
REMARK  Name = Pyruvic acid
REMARK  3 active torsions:
REMARK  status: ('A' for Active; 'I' for Inactive)
REMARK    1  A    between atoms: C_1  and  C_2
REMARK    2  A    between atoms: C_2  and  C_4
REMARK    3  A    between atoms: C_4  and  O_5
REMARK                            x       y       z     vdW  Elec       q    Type
REMARK                         _______ _______ _______ _____ _____    ______ ____
ROOT
ATOM      1  C   UNL     1     -12.272   6.293 129.317  0.00  0.00    +0.000 C 
ATOM      2  O   UNL     1     -11.801   5.249 129.738  0.00  0.00    +0.000 OA
ENDROOT
BRANCH   1   4
ATOM      3  C   UNL     1     -12.705   8.829 129.831  0.00  0.00    +0.000 C 
ATOM      4  C   UNL     1     -12.748   7.401 130.291  0.00  0.00    +0.000 C 
ATOM      5  O   UNL     1     -13.149   7.104 131.412  0.00  0.00    +0.000 OA
ENDBRANCH   1   4
BRANCH   1   6
ATOM      6  O   UNL     1     -12.401   6.538 128.006  0.00  0.00    +0.000 OA
ATOM      7  H   UNL     1     -12.688   7.421 127.715  0.00  0.00    +0.000 HD
ENDBRANCH   1   6
TORSDOF 2
ENDMDL
MODEL 8
REMARK VINA RESULT:      -3.3     12.008     12.680
REMARK  Name = Pyruvic acid
REMARK  3 active torsions:
REMARK  status: ('A' for Active; 'I' for Inactive)
REMARK    1  A    between atoms: C_1  and  C_2
REMARK    2  A    between atoms: C_2  and  C_4
REMARK    3  A    between atoms: C_4  and  O_5
REMARK                            x       y       z     vdW  Elec       q    Type
REMARK                         _______ _______ _______ _____ _____    ______ ____
ROOT
ATOM      1  C   UNL     1     -12.118   6.620 131.317  0.00  0.00    +0.000 C 
ATOM      2  O   UNL     1     -13.161   7.199 131.575  0.00  0.00    +0.000 OA
ENDROOT
BRANCH   1   4
ATOM      3  C   UNL     1     -10.360   7.529 129.595  0.00  0.00    +0.000 C 
ATOM      4  C   UNL     1     -11.533   6.638 129.882  0.00  0.00    +0.000 C 
ATOM      5  O   UNL     1     -12.028   5.934 129.007  0.00  0.00    +0.000 OA
ENDBRANCH   1   4
BRANCH   1   6
ATOM      6  O   UNL     1     -11.429   5.946 132.247  0.00  0.00    +0.000 OA
ATOM      7  H   UNL     1     -11.111   6.418 133.036  0.00  0.00    +0.000 HD
ENDBRANCH   1   6
TORSDOF 2
ENDMDL
MODEL 9
REMARK VINA RESULT:      -3.2     11.559     11.955
REMARK  Name = Pyruvic acid
REMARK  3 active torsions:
REMARK  status: ('A' for Active; 'I' for Inactive)
REMARK    1  A    between atoms: C_1  and  C_2
REMARK    2  A    between atoms: C_2  and  C_4
REMARK    3  A    between atoms: C_4  and  O_5
REMARK                            x       y       z     vdW  Elec       q    Type
REMARK                         _______ _______ _______ _____ _____    ______ ____
ROOT
ATOM      1  C   UNL     1     -12.125   8.739 128.765  0.00  0.00    +0.000 C 
ATOM      2  O   UNL     1     -11.057   8.663 128.179  0.00  0.00    +0.000 OA
ENDROOT
BRANCH   1   4
ATOM      3  C   UNL     1     -12.808   7.503 130.975  0.00  0.00    +0.000 C 
ATOM      4  C   UNL     1     -12.732   7.504 129.476  0.00  0.00    +0.000 C 
ATOM      5  O   UNL     1     -13.140   6.553 128.817  0.00  0.00    +0.000 OA
ENDBRANCH   1   4
BRANCH   1   6
ATOM      6  O   UNL     1     -12.823   9.882 128.824  0.00  0.00    +0.000 OA
ATOM      7  H   UNL     1     -12.979  10.385 128.007  0.00  0.00    +0.000 HD
ENDBRANCH   1   6
TORSDOF 2
ENDMDL
