MODEL 1
REMARK VINA RESULT:      -8.5      0.000      0.000
REMARK  Name = Pyrvinium
REMARK  9 active torsions:
REMARK  status: ('A' for Active; 'I' for Inactive)
REMARK    1  A    between atoms: C_1  and  N_2
REMARK    2  A    between atoms: N_2  and  C_3
REMARK    3  A    between atoms: N_2  and  C_4
REMARK    4  A    between atoms: N_10  and  C_11
REMARK    5  A    between atoms: C_12  and  C_13
REMARK    6  A    between atoms: C_14  and  C_15
REMARK    7  A    between atoms: C_16  and  C_17
REMARK    8  A    between atoms: N_18  and  C_22
REMARK    9  A    between atoms: C_19  and  C_20
REMARK                            x       y       z     vdW  Elec       q    Type
REMARK                         _______ _______ _______ _____ _____    ______ ____
ROOT
ATOM      1  C   UNL     1      -4.101   3.998 126.911  0.00  0.00    +0.000 C 
ATOM      2  C   UNL     1      -5.086   4.519 126.180  0.00  0.00    +0.000 C 
ENDROOT
BRANCH   1  11
ATOM      3  C   UNL     1      -1.758   6.042 132.655  0.00  0.00    +0.000 A 
ATOM      4  C   UNL     1      -1.686   6.576 131.357  0.00  0.00    +0.000 A 
ATOM      5  C   UNL     1      -2.226   5.914 130.236  0.00  0.00    +0.000 A 
ATOM      6  C   UNL     1      -2.890   4.684 130.419  0.00  0.00    +0.000 A 
ATOM      7  C   UNL     1      -2.970   4.172 131.724  0.00  0.00    +0.000 A 
ATOM      8  C   UNL     1      -2.393   4.819 132.806  0.00  0.00    +0.000 A 
ATOM      9  N   UNL     1      -3.433   4.034 129.347  0.00  0.00    +0.000 N 
ATOM     10  C   UNL     1      -4.024   2.706 129.568  0.00  0.00    +0.000 C 
ATOM     11  C   UNL     1      -3.408   4.586 128.089  0.00  0.00    +0.000 A 
ATOM     12  C   UNL     1      -2.720   5.795 127.888  0.00  0.00    +0.000 A 
ATOM     13  C   UNL     1      -2.118   6.449 128.953  0.00  0.00    +0.000 A 
BRANCH   3  15
ATOM     14  C   UNL     1      -2.003   6.825 134.980  0.00  0.00    +0.000 C 
ATOM     15  N   UNL     1      -1.238   6.704 133.746  0.00  0.00    +0.000 N 
ATOM     16  C   UNL     1       0.019   7.423 133.614  0.00  0.00    +0.000 C 
ENDBRANCH   3  15
ENDBRANCH   1  11
BRANCH   2  17
ATOM     17  C   UNL     1      -5.689   3.967 125.037  0.00  0.00    +0.000 A 
ATOM     18  C   UNL     1      -6.528   2.875 125.082  0.00  0.00    +0.000 A 
ATOM     19  C   UNL     1      -6.982   2.043 126.250  0.00  0.00    +0.000 C 
ATOM     20  N   UNL     1      -6.864   2.589 123.763  0.00  0.00    +0.000 N 
ATOM     21  C   UNL     1      -6.168   3.455 122.932  0.00  0.00    +0.000 A 
ATOM     22  C   UNL     1      -6.309   3.520 121.458  0.00  0.00    +0.000 C 
ATOM     23  C   UNL     1      -5.419   4.308 123.713  0.00  0.00    +0.000 A 
BRANCH  20  24
ATOM     24  C   UNL     1      -7.739   1.555 123.373  0.00  0.00    +0.000 A 
ATOM     25  C   UNL     1      -9.071   1.868 123.086  0.00  0.00    +0.000 A 
ATOM     26  C   UNL     1      -9.981   0.843 122.857  0.00  0.00    +0.000 A 
ATOM     27  C   UNL     1      -9.542  -0.481 122.847  0.00  0.00    +0.000 A 
ATOM     28  C   UNL     1      -8.201  -0.785 123.096  0.00  0.00    +0.000 A 
ATOM     29  C   UNL     1      -7.291   0.233 123.368  0.00  0.00    +0.000 A 
ENDBRANCH  20  24
ENDBRANCH   2  17
TORSDOF 4
ENDMDL
MODEL 2
REMARK VINA RESULT:      -8.3      1.194      3.004
REMARK  Name = Pyrvinium
REMARK  9 active torsions:
REMARK  status: ('A' for Active; 'I' for Inactive)
REMARK    1  A    between atoms: C_1  and  N_2
REMARK    2  A    between atoms: N_2  and  C_3
REMARK    3  A    between atoms: N_2  and  C_4
REMARK    4  A    between atoms: N_10  and  C_11
REMARK    5  A    between atoms: C_12  and  C_13
REMARK    6  A    between atoms: C_14  and  C_15
REMARK    7  A    between atoms: C_16  and  C_17
REMARK    8  A    between atoms: N_18  and  C_22
REMARK    9  A    between atoms: C_19  and  C_20
REMARK                            x       y       z     vdW  Elec       q    Type
REMARK                         _______ _______ _______ _____ _____    ______ ____
ROOT
ATOM      1  C   UNL     1      -4.416   3.196 127.538  0.00  0.00    +0.000 C 
ATOM      2  C   UNL     1      -5.649   3.001 127.075  0.00  0.00    +0.000 C 
ENDROOT
BRANCH   1  11
ATOM      3  C   UNL     1      -1.953   6.274 132.747  0.00  0.00    +0.000 A 
ATOM      4  C   UNL     1      -2.543   5.009 132.584  0.00  0.00    +0.000 A 
ATOM      5  C   UNL     1      -3.069   4.573 131.351  0.00  0.00    +0.000 A 
ATOM      6  C   UNL     1      -2.979   5.420 130.228  0.00  0.00    +0.000 A 
ATOM      7  C   UNL     1      -2.370   6.673 130.403  0.00  0.00    +0.000 A 
ATOM      8  C   UNL     1      -1.899   7.099 131.634  0.00  0.00    +0.000 A 
ATOM      9  N   UNL     1      -3.469   5.010 129.020  0.00  0.00    +0.000 N 
ATOM     10  C   UNL     1      -3.447   5.965 127.903  0.00  0.00    +0.000 C 
ATOM     11  C   UNL     1      -3.995   3.751 128.853  0.00  0.00    +0.000 A 
ATOM     12  C   UNL     1      -4.122   2.910 129.972  0.00  0.00    +0.000 A 
ATOM     13  C   UNL     1      -3.675   3.324 131.219  0.00  0.00    +0.000 A 
BRANCH   3  15
ATOM     14  C   UNL     1      -0.072   7.203 134.041  0.00  0.00    +0.000 C 
ATOM     15  N   UNL     1      -1.431   6.685 133.954  0.00  0.00    +0.000 N 
ATOM     16  C   UNL     1      -2.185   6.454 135.176  0.00  0.00    +0.000 C 
ENDBRANCH   3  15
ENDBRANCH   1  11
BRANCH   2  17
ATOM     17  C   UNL     1      -6.023   2.524 125.806  0.00  0.00    +0.000 A 
ATOM     18  C   UNL     1      -6.241   3.352 124.727  0.00  0.00    +0.000 A 
ATOM     19  C   UNL     1      -6.159   4.850 124.615  0.00  0.00    +0.000 C 
ATOM     20  N   UNL     1      -6.656   2.530 123.685  0.00  0.00    +0.000 N 
ATOM     21  C   UNL     1      -6.759   1.231 124.161  0.00  0.00    +0.000 A 
ATOM     22  C   UNL     1      -7.101   0.046 123.340  0.00  0.00    +0.000 C 
ATOM     23  C   UNL     1      -6.384   1.218 125.487  0.00  0.00    +0.000 A 
BRANCH  20  24
ATOM     24  C   UNL     1      -6.952   2.984 122.384  0.00  0.00    +0.000 A 
ATOM     25  C   UNL     1      -5.898   3.312 121.525  0.00  0.00    +0.000 A 
ATOM     26  C   UNL     1      -6.173   3.911 120.302  0.00  0.00    +0.000 A 
ATOM     27  C   UNL     1      -7.498   4.115 119.915  0.00  0.00    +0.000 A 
ATOM     28  C   UNL     1      -8.548   3.749 120.761  0.00  0.00    +0.000 A 
ATOM     29  C   UNL     1      -8.280   3.188 122.006  0.00  0.00    +0.000 A 
ENDBRANCH  20  24
ENDBRANCH   2  17
TORSDOF 4
ENDMDL
MODEL 3
REMARK VINA RESULT:      -8.1      5.163      6.504
REMARK  Name = Pyrvinium
REMARK  9 active torsions:
REMARK  status: ('A' for Active; 'I' for Inactive)
REMARK    1  A    between atoms: C_1  and  N_2
REMARK    2  A    between atoms: N_2  and  C_3
REMARK    3  A    between atoms: N_2  and  C_4
REMARK    4  A    between atoms: N_10  and  C_11
REMARK    5  A    between atoms: C_12  and  C_13
REMARK    6  A    between atoms: C_14  and  C_15
REMARK    7  A    between atoms: C_16  and  C_17
REMARK    8  A    between atoms: N_18  and  C_22
REMARK    9  A    between atoms: C_19  and  C_20
REMARK                            x       y       z     vdW  Elec       q    Type
REMARK                         _______ _______ _______ _____ _____    ______ ____
ROOT
ATOM      1  C   UNL     1      -7.866   0.802 131.927  0.00  0.00    +0.000 C 
ATOM      2  C   UNL     1      -7.847   0.722 130.598  0.00  0.00    +0.000 C 
ENDROOT
BRANCH   1  11
ATOM      3  C   UNL     1      -7.023   5.708 136.157  0.00  0.00    +0.000 A 
ATOM      4  C   UNL     1      -8.140   5.266 135.427  0.00  0.00    +0.000 A 
ATOM      5  C   UNL     1      -8.069   4.201 134.508  0.00  0.00    +0.000 A 
ATOM      6  C   UNL     1      -6.843   3.529 134.329  0.00  0.00    +0.000 A 
ATOM      7  C   UNL     1      -5.740   3.970 135.078  0.00  0.00    +0.000 A 
ATOM      8  C   UNL     1      -5.822   5.049 135.945  0.00  0.00    +0.000 A 
ATOM      9  N   UNL     1      -6.756   2.483 133.453  0.00  0.00    +0.000 N 
ATOM     10  C   UNL     1      -5.436   1.880 133.221  0.00  0.00    +0.000 C 
ATOM     11  C   UNL     1      -7.863   2.019 132.783  0.00  0.00    +0.000 A 
ATOM     12  C   UNL     1      -9.084   2.702 132.927  0.00  0.00    +0.000 A 
ATOM     13  C   UNL     1      -9.183   3.797 133.774  0.00  0.00    +0.000 A 
BRANCH   3  15
ATOM     14  C   UNL     1      -5.964   7.612 137.310  0.00  0.00    +0.000 C 
ATOM     15  N   UNL     1      -7.106   6.743 137.063  0.00  0.00    +0.000 N 
ATOM     16  C   UNL     1      -8.292   6.872 137.895  0.00  0.00    +0.000 C 
ENDBRANCH   3  15
ENDBRANCH   1  11
BRANCH   2  17
ATOM     17  C   UNL     1      -7.795  -0.441 129.810  0.00  0.00    +0.000 A 
ATOM     18  C   UNL     1      -7.863  -0.421 128.434  0.00  0.00    +0.000 A 
ATOM     19  C   UNL     1      -8.007   0.735 127.482  0.00  0.00    +0.000 C 
ATOM     20  N   UNL     1      -7.850  -1.750 128.025  0.00  0.00    +0.000 N 
ATOM     21  C   UNL     1      -7.854  -2.559 129.152  0.00  0.00    +0.000 A 
ATOM     22  C   UNL     1      -7.768  -4.039 129.141  0.00  0.00    +0.000 C 
ATOM     23  C   UNL     1      -7.837  -1.755 130.271  0.00  0.00    +0.000 A 
BRANCH  20  24
ATOM     24  C   UNL     1      -7.871  -2.168 126.679  0.00  0.00    +0.000 A 
ATOM     25  C   UNL     1      -9.096  -2.502 126.093  0.00  0.00    +0.000 A 
ATOM     26  C   UNL     1      -9.115  -3.067 124.824  0.00  0.00    +0.000 A 
ATOM     27  C   UNL     1      -7.921  -3.230 124.121  0.00  0.00    +0.000 A 
ATOM     28  C   UNL     1      -6.704  -2.857 124.697  0.00  0.00    +0.000 A 
ATOM     29  C   UNL     1      -6.671  -2.330 125.985  0.00  0.00    +0.000 A 
ENDBRANCH  20  24
ENDBRANCH   2  17
TORSDOF 4
ENDMDL
MODEL 4
REMARK VINA RESULT:      -8.0      6.498      8.277
REMARK  Name = Pyrvinium
REMARK  9 active torsions:
REMARK  status: ('A' for Active; 'I' for Inactive)
REMARK    1  A    between atoms: C_1  and  N_2
REMARK    2  A    between atoms: N_2  and  C_3
REMARK    3  A    between atoms: N_2  and  C_4
REMARK    4  A    between atoms: N_10  and  C_11
REMARK    5  A    between atoms: C_12  and  C_13
REMARK    6  A    between atoms: C_14  and  C_15
REMARK    7  A    between atoms: C_16  and  C_17
REMARK    8  A    between atoms: N_18  and  C_22
REMARK    9  A    between atoms: C_19  and  C_20
REMARK                            x       y       z     vdW  Elec       q    Type
REMARK                         _______ _______ _______ _____ _____    ______ ____
ROOT
ATOM      1  C   UNL     1      -6.867  -2.946 128.898  0.00  0.00    +0.000 C 
ATOM      2  C   UNL     1      -7.967  -3.125 128.168  0.00  0.00    +0.000 C 
ENDROOT
BRANCH   1  11
ATOM      3  C   UNL     1      -5.778  -3.840 135.276  0.00  0.00    +0.000 A 
ATOM      4  C   UNL     1      -5.448  -4.601 134.142  0.00  0.00    +0.000 A 
ATOM      5  C   UNL     1      -5.849  -4.234 132.842  0.00  0.00    +0.000 A 
ATOM      6  C   UNL     1      -6.586  -3.046 132.660  0.00  0.00    +0.000 A 
ATOM      7  C   UNL     1      -6.894  -2.287 133.801  0.00  0.00    +0.000 A 
ATOM      8  C   UNL     1      -6.526  -2.689 135.076  0.00  0.00    +0.000 A 
ATOM      9  N   UNL     1      -6.972  -2.664 131.407  0.00  0.00    +0.000 N 
ATOM     10  C   UNL     1      -7.827  -1.475 131.275  0.00  0.00    +0.000 C 
ATOM     11  C   UNL     1      -6.599  -3.382 130.295  0.00  0.00    +0.000 A 
ATOM     12  C   UNL     1      -5.894  -4.586 130.465  0.00  0.00    +0.000 A 
ATOM     13  C   UNL     1      -5.533  -5.018 131.734  0.00  0.00    +0.000 A 
BRANCH   3  15
ATOM     14  C   UNL     1      -4.067  -4.816 136.759  0.00  0.00    +0.000 C 
ATOM     15  N   UNL     1      -5.370  -4.201 136.541  0.00  0.00    +0.000 N 
ATOM     16  C   UNL     1      -6.309  -4.113 137.648  0.00  0.00    +0.000 C 
ENDBRANCH   3  15
ENDBRANCH   1  11
BRANCH   2  17
ATOM     17  C   UNL     1      -8.218  -2.656 126.866  0.00  0.00    +0.000 A 
ATOM     18  C   UNL     1      -8.112  -1.329 126.512  0.00  0.00    +0.000 A 
ATOM     19  C   UNL     1      -7.744  -0.126 127.337  0.00  0.00    +0.000 C 
ATOM     20  N   UNL     1      -8.500  -1.251 125.179  0.00  0.00    +0.000 N 
ATOM     21  C   UNL     1      -8.909  -2.510 124.764  0.00  0.00    +0.000 A 
ATOM     22  C   UNL     1      -9.327  -2.860 123.385  0.00  0.00    +0.000 C 
ATOM     23  C   UNL     1      -8.754  -3.391 125.812  0.00  0.00    +0.000 A 
BRANCH  20  24
ATOM     24  C   UNL     1      -8.502  -0.064 124.420  0.00  0.00    +0.000 A 
ATOM     25  C   UNL     1      -7.319   0.341 123.793  0.00  0.00    +0.000 A 
ATOM     26  C   UNL     1      -7.262   1.585 123.178  0.00  0.00    +0.000 A 
ATOM     27  C   UNL     1      -8.403   2.386 123.132  0.00  0.00    +0.000 A 
ATOM     28  C   UNL     1      -9.593   1.959 123.726  0.00  0.00    +0.000 A 
ATOM     29  C   UNL     1      -9.647   0.732 124.382  0.00  0.00    +0.000 A 
ENDBRANCH  20  24
ENDBRANCH   2  17
TORSDOF 4
ENDMDL
MODEL 5
REMARK VINA RESULT:      -8.0      1.642      2.094
REMARK  Name = Pyrvinium
REMARK  9 active torsions:
REMARK  status: ('A' for Active; 'I' for Inactive)
REMARK    1  A    between atoms: C_1  and  N_2
REMARK    2  A    between atoms: N_2  and  C_3
REMARK    3  A    between atoms: N_2  and  C_4
REMARK    4  A    between atoms: N_10  and  C_11
REMARK    5  A    between atoms: C_12  and  C_13
REMARK    6  A    between atoms: C_14  and  C_15
REMARK    7  A    between atoms: C_16  and  C_17
REMARK    8  A    between atoms: N_18  and  C_22
REMARK    9  A    between atoms: C_19  and  C_20
REMARK                            x       y       z     vdW  Elec       q    Type
REMARK                         _______ _______ _______ _____ _____    ______ ____
ROOT
ATOM      1  C   UNL     1      -5.530   4.057 127.435  0.00  0.00    +0.000 C 
ATOM      2  C   UNL     1      -5.245   3.344 126.346  0.00  0.00    +0.000 C 
ENDROOT
BRANCH   1  11
ATOM      3  C   UNL     1      -2.273   7.336 132.051  0.00  0.00    +0.000 A 
ATOM      4  C   UNL     1      -1.877   6.786 130.820  0.00  0.00    +0.000 A 
ATOM      5  C   UNL     1      -2.758   6.052 130.001  0.00  0.00    +0.000 A 
ATOM      6  C   UNL     1      -4.095   5.882 130.411  0.00  0.00    +0.000 A 
ATOM      7  C   UNL     1      -4.481   6.453 131.635  0.00  0.00    +0.000 A 
ATOM      8  C   UNL     1      -3.587   7.134 132.446  0.00  0.00    +0.000 A 
ATOM      9  N   UNL     1      -4.970   5.186 129.625  0.00  0.00    +0.000 N 
ATOM     10  C   UNL     1      -6.326   4.945 130.140  0.00  0.00    +0.000 C 
ATOM     11  C   UNL     1      -4.593   4.698 128.397  0.00  0.00    +0.000 A 
ATOM     12  C   UNL     1      -3.253   4.831 127.992  0.00  0.00    +0.000 A 
ATOM     13  C   UNL     1      -2.336   5.492 128.797  0.00  0.00    +0.000 A 
BRANCH   3  15
ATOM     14  C   UNL     1      -0.040   7.611 133.059  0.00  0.00    +0.000 C 
ATOM     15  N   UNL     1      -1.407   8.063 132.838  0.00  0.00    +0.000 N 
ATOM     16  C   UNL     1      -1.907   9.208 133.583  0.00  0.00    +0.000 C 
ENDBRANCH   3  15
ENDBRANCH   1  11
BRANCH   2  17
ATOM     17  C   UNL     1      -6.147   2.701 125.482  0.00  0.00    +0.000 A 
ATOM     18  C   UNL     1      -6.248   1.331 125.385  0.00  0.00    +0.000 A 
ATOM     19  C   UNL     1      -5.491   0.245 126.098  0.00  0.00    +0.000 C 
ATOM     20  N   UNL     1      -7.186   1.080 124.389  0.00  0.00    +0.000 N 
ATOM     21  C   UNL     1      -7.584   2.292 123.842  0.00  0.00    +0.000 A 
ATOM     22  C   UNL     1      -8.628   2.457 122.804  0.00  0.00    +0.000 C 
ATOM     23  C   UNL     1      -6.930   3.309 124.503  0.00  0.00    +0.000 A 
BRANCH  20  24
ATOM     24  C   UNL     1      -7.608  -0.207 124.000  0.00  0.00    +0.000 A 
ATOM     25  C   UNL     1      -8.646  -0.822 124.707  0.00  0.00    +0.000 A 
ATOM     26  C   UNL     1      -8.963  -2.148 124.441  0.00  0.00    +0.000 A 
ATOM     27  C   UNL     1      -8.291  -2.829 123.426  0.00  0.00    +0.000 A 
ATOM     28  C   UNL     1      -7.282  -2.197 122.696  0.00  0.00    +0.000 A 
ATOM     29  C   UNL     1      -6.928  -0.882 122.985  0.00  0.00    +0.000 A 
ENDBRANCH  20  24
ENDBRANCH   2  17
TORSDOF 4
ENDMDL
MODEL 6
REMARK VINA RESULT:      -7.8      1.873      2.569
REMARK  Name = Pyrvinium
REMARK  9 active torsions:
REMARK  status: ('A' for Active; 'I' for Inactive)
REMARK    1  A    between atoms: C_1  and  N_2
REMARK    2  A    between atoms: N_2  and  C_3
REMARK    3  A    between atoms: N_2  and  C_4
REMARK    4  A    between atoms: N_10  and  C_11
REMARK    5  A    between atoms: C_12  and  C_13
REMARK    6  A    between atoms: C_14  and  C_15
REMARK    7  A    between atoms: C_16  and  C_17
REMARK    8  A    between atoms: N_18  and  C_22
REMARK    9  A    between atoms: C_19  and  C_20
REMARK                            x       y       z     vdW  Elec       q    Type
REMARK                         _______ _______ _______ _____ _____    ______ ____
ROOT
ATOM      1  C   UNL     1      -4.848   3.386 127.872  0.00  0.00    +0.000 C 
ATOM      2  C   UNL     1      -4.628   2.242 127.226  0.00  0.00    +0.000 C 
ENDROOT
BRANCH   1  11
ATOM      3  C   UNL     1      -1.488   6.154 132.742  0.00  0.00    +0.000 A 
ATOM      4  C   UNL     1      -1.639   6.486 131.386  0.00  0.00    +0.000 A 
ATOM      5  C   UNL     1      -2.380   5.690 130.489  0.00  0.00    +0.000 A 
ATOM      6  C   UNL     1      -3.021   4.530 130.970  0.00  0.00    +0.000 A 
ATOM      7  C   UNL     1      -2.876   4.221 132.332  0.00  0.00    +0.000 A 
ATOM      8  C   UNL     1      -2.106   4.994 133.186  0.00  0.00    +0.000 A 
ATOM      9  N   UNL     1      -3.757   3.753 130.121  0.00  0.00    +0.000 N 
ATOM     10  C   UNL     1      -4.320   2.499 130.641  0.00  0.00    +0.000 C 
ATOM     11  C   UNL     1      -3.947   4.112 128.808  0.00  0.00    +0.000 A 
ATOM     12  C   UNL     1      -3.286   5.247 128.308  0.00  0.00    +0.000 A 
ATOM     13  C   UNL     1      -2.494   6.025 129.141  0.00  0.00    +0.000 A 
BRANCH   3  15
ATOM     14  C   UNL     1      -1.086   6.966 135.035  0.00  0.00    +0.000 C 
ATOM     15  N   UNL     1      -0.772   6.946 133.613  0.00  0.00    +0.000 N 
ATOM     16  C   UNL     1       0.201   7.889 133.085  0.00  0.00    +0.000 C 
ENDBRANCH   3  15
ENDBRANCH   1  11
BRANCH   2  17
ATOM     17  C   UNL     1      -5.516   1.547 126.387  0.00  0.00    +0.000 A 
ATOM     18  C   UNL     1      -5.869   0.231 126.592  0.00  0.00    +0.000 A 
ATOM     19  C   UNL     1      -5.440  -0.739 127.659  0.00  0.00    +0.000 C 
ATOM     20  N   UNL     1      -6.698  -0.119 125.532  0.00  0.00    +0.000 N 
ATOM     21  C   UNL     1      -6.775   0.957 124.659  0.00  0.00    +0.000 A 
ATOM     22  C   UNL     1      -7.620   1.010 123.442  0.00  0.00    +0.000 C 
ATOM     23  C   UNL     1      -6.029   1.995 125.173  0.00  0.00    +0.000 A 
BRANCH  20  24
ATOM     24  C   UNL     1      -7.308  -1.380 125.382  0.00  0.00    +0.000 A 
ATOM     25  C   UNL     1      -6.653  -2.364 124.635  0.00  0.00    +0.000 A 
ATOM     26  C   UNL     1      -7.310  -3.553 124.343  0.00  0.00    +0.000 A 
ATOM     27  C   UNL     1      -8.588  -3.780 124.857  0.00  0.00    +0.000 A 
ATOM     28  C   UNL     1      -9.221  -2.809 125.635  0.00  0.00    +0.000 A 
ATOM     29  C   UNL     1      -8.587  -1.597 125.897  0.00  0.00    +0.000 A 
ENDBRANCH  20  24
ENDBRANCH   2  17
TORSDOF 4
ENDMDL
MODEL 7
REMARK VINA RESULT:      -7.8      1.513      2.746
REMARK  Name = Pyrvinium
REMARK  9 active torsions:
REMARK  status: ('A' for Active; 'I' for Inactive)
REMARK    1  A    between atoms: C_1  and  N_2
REMARK    2  A    between atoms: N_2  and  C_3
REMARK    3  A    between atoms: N_2  and  C_4
REMARK    4  A    between atoms: N_10  and  C_11
REMARK    5  A    between atoms: C_12  and  C_13
REMARK    6  A    between atoms: C_14  and  C_15
REMARK    7  A    between atoms: C_16  and  C_17
REMARK    8  A    between atoms: N_18  and  C_22
REMARK    9  A    between atoms: C_19  and  C_20
REMARK                            x       y       z     vdW  Elec       q    Type
REMARK                         _______ _______ _______ _____ _____    ______ ____
ROOT
ATOM      1  C   UNL     1      -5.020   4.376 127.287  0.00  0.00    +0.000 C 
ATOM      2  C   UNL     1      -4.642   3.496 126.361  0.00  0.00    +0.000 C 
ENDROOT
BRANCH   1  11
ATOM      3  C   UNL     1      -2.499   7.093 132.665  0.00  0.00    +0.000 A 
ATOM      4  C   UNL     1      -1.940   6.760 131.420  0.00  0.00    +0.000 A 
ATOM      5  C   UNL     1      -2.677   6.110 130.409  0.00  0.00    +0.000 A 
ATOM      6  C   UNL     1      -4.034   5.805 130.638  0.00  0.00    +0.000 A 
ATOM      7  C   UNL     1      -4.583   6.159 131.881  0.00  0.00    +0.000 A 
ATOM      8  C   UNL     1      -3.828   6.758 132.877  0.00  0.00    +0.000 A 
ATOM      9  N   UNL     1      -4.771   5.188 129.666  0.00  0.00    +0.000 N 
ATOM     10  C   UNL     1      -6.150   4.795 129.986  0.00  0.00    +0.000 C 
ATOM     11  C   UNL     1      -4.235   4.915 128.430  0.00  0.00    +0.000 A 
ATOM     12  C   UNL     1      -2.875   5.184 128.201  0.00  0.00    +0.000 A 
ATOM     13  C   UNL     1      -2.095   5.766 129.191  0.00  0.00    +0.000 A 
BRANCH   3  15
ATOM     14  C   UNL     1      -1.397   9.138 133.490  0.00  0.00    +0.000 C 
ATOM     15  N   UNL     1      -1.773   7.739 133.641  0.00  0.00    +0.000 N 
ATOM     16  C   UNL     1      -1.241   6.977 134.760  0.00  0.00    +0.000 C 
ENDBRANCH   3  15
ENDBRANCH   1  11
BRANCH   2  17
ATOM     17  C   UNL     1      -5.420   2.959 125.320  0.00  0.00    +0.000 A 
ATOM     18  C   UNL     1      -5.710   3.651 124.164  0.00  0.00    +0.000 A 
ATOM     19  C   UNL     1      -5.322   5.040 123.737  0.00  0.00    +0.000 C 
ATOM     20  N   UNL     1      -6.547   2.829 123.419  0.00  0.00    +0.000 N 
ATOM     21  C   UNL     1      -6.818   1.687 124.159  0.00  0.00    +0.000 A 
ATOM     22  C   UNL     1      -7.613   0.530 123.683  0.00  0.00    +0.000 C 
ATOM     23  C   UNL     1      -6.135   1.764 125.353  0.00  0.00    +0.000 A 
BRANCH  20  24
ATOM     24  C   UNL     1      -7.049   3.153 122.143  0.00  0.00    +0.000 A 
ATOM     25  C   UNL     1      -6.148   3.420 121.108  0.00  0.00    +0.000 A 
ATOM     26  C   UNL     1      -6.623   3.897 119.892  0.00  0.00    +0.000 A 
ATOM     27  C   UNL     1      -7.996   4.037 119.694  0.00  0.00    +0.000 A 
ATOM     28  C   UNL     1      -8.895   3.730 120.719  0.00  0.00    +0.000 A 
ATOM     29  C   UNL     1      -8.425   3.293 121.955  0.00  0.00    +0.000 A 
ENDBRANCH  20  24
ENDBRANCH   2  17
TORSDOF 4
ENDMDL
MODEL 8
REMARK VINA RESULT:      -7.5      4.269      5.500
REMARK  Name = Pyrvinium
REMARK  9 active torsions:
REMARK  status: ('A' for Active; 'I' for Inactive)
REMARK    1  A    between atoms: C_1  and  N_2
REMARK    2  A    between atoms: N_2  and  C_3
REMARK    3  A    between atoms: N_2  and  C_4
REMARK    4  A    between atoms: N_10  and  C_11
REMARK    5  A    between atoms: C_12  and  C_13
REMARK    6  A    between atoms: C_14  and  C_15
REMARK    7  A    between atoms: C_16  and  C_17
REMARK    8  A    between atoms: N_18  and  C_22
REMARK    9  A    between atoms: C_19  and  C_20
REMARK                            x       y       z     vdW  Elec       q    Type
REMARK                         _______ _______ _______ _____ _____    ______ ____
ROOT
ATOM      1  C   UNL     1      -8.385   2.852 129.983  0.00  0.00    +0.000 C 
ATOM      2  C   UNL     1      -8.018   1.632 129.594  0.00  0.00    +0.000 C 
ENDROOT
BRANCH   1  11
ATOM      3  C   UNL     1      -6.841   5.621 135.694  0.00  0.00    +0.000 A 
ATOM      4  C   UNL     1      -7.933   4.836 135.285  0.00  0.00    +0.000 A 
ATOM      5  C   UNL     1      -8.089   4.391 133.957  0.00  0.00    +0.000 A 
ATOM      6  C   UNL     1      -7.104   4.718 133.003  0.00  0.00    +0.000 A 
ATOM      7  C   UNL     1      -6.010   5.488 133.431  0.00  0.00    +0.000 A 
ATOM      8  C   UNL     1      -5.899   5.952 134.732  0.00  0.00    +0.000 A 
ATOM      9  N   UNL     1      -7.228   4.284 131.714  0.00  0.00    +0.000 N 
ATOM     10  C   UNL     1      -6.233   4.735 130.730  0.00  0.00    +0.000 C 
ATOM     11  C   UNL     1      -8.268   3.470 131.331  0.00  0.00    +0.000 A 
ATOM     12  C   UNL     1      -9.275   3.165 132.264  0.00  0.00    +0.000 A 
ATOM     13  C   UNL     1      -9.194   3.636 133.567  0.00  0.00    +0.000 A 
BRANCH   3  15
ATOM     14  C   UNL     1      -7.832   6.532 137.760  0.00  0.00    +0.000 C 
ATOM     15  N   UNL     1      -6.692   6.040 136.998  0.00  0.00    +0.000 N 
ATOM     16  C   UNL     1      -5.358   6.141 137.568  0.00  0.00    +0.000 C 
ENDBRANCH   3  15
ENDBRANCH   1  11
BRANCH   2  17
ATOM     17  C   UNL     1      -8.189   1.049 128.326  0.00  0.00    +0.000 A 
ATOM     18  C   UNL     1      -7.773  -0.230 128.024  0.00  0.00    +0.000 A 
ATOM     19  C   UNL     1      -7.080  -1.256 128.878  0.00  0.00    +0.000 C 
ATOM     20  N   UNL     1      -8.048  -0.419 126.675  0.00  0.00    +0.000 N 
ATOM     21  C   UNL     1      -8.552   0.765 126.156  0.00  0.00    +0.000 A 
ATOM     22  C   UNL     1      -9.037   0.951 124.768  0.00  0.00    +0.000 C 
ATOM     23  C   UNL     1      -8.629   1.693 127.172  0.00  0.00    +0.000 A 
BRANCH  20  24
ATOM     24  C   UNL     1      -7.804  -1.617 125.974  0.00  0.00    +0.000 A 
ATOM     25  C   UNL     1      -6.580  -1.781 125.319  0.00  0.00    +0.000 A 
ATOM     26  C   UNL     1      -6.387  -2.882 124.494  0.00  0.00    +0.000 A 
ATOM     27  C   UNL     1      -7.389  -3.847 124.383  0.00  0.00    +0.000 A 
ATOM     28  C   UNL     1      -8.595  -3.697 125.072  0.00  0.00    +0.000 A 
ATOM     29  C   UNL     1      -8.813  -2.575 125.867  0.00  0.00    +0.000 A 
ENDBRANCH  20  24
ENDBRANCH   2  17
TORSDOF 4
ENDMDL
MODEL 9
REMARK VINA RESULT:      -7.4      6.617      9.264
REMARK  Name = Pyrvinium
REMARK  9 active torsions:
REMARK  status: ('A' for Active; 'I' for Inactive)
REMARK    1  A    between atoms: C_1  and  N_2
REMARK    2  A    between atoms: N_2  and  C_3
REMARK    3  A    between atoms: N_2  and  C_4
REMARK    4  A    between atoms: N_10  and  C_11
REMARK    5  A    between atoms: C_12  and  C_13
REMARK    6  A    between atoms: C_14  and  C_15
REMARK    7  A    between atoms: C_16  and  C_17
REMARK    8  A    between atoms: N_18  and  C_22
REMARK    9  A    between atoms: C_19  and  C_20
REMARK                            x       y       z     vdW  Elec       q    Type
REMARK                         _______ _______ _______ _____ _____    ______ ____
ROOT
ATOM      1  C   UNL     1      -8.100   3.668 131.544  0.00  0.00    +0.000 C 
ATOM      2  C   UNL     1      -8.201   2.340 131.539  0.00  0.00    +0.000 C 
ENDROOT
BRANCH   1  11
ATOM      3  C   UNL     1     -12.104   8.407 129.500  0.00  0.00    +0.000 A 
ATOM      4  C   UNL     1     -11.946   7.770 130.742  0.00  0.00    +0.000 A 
ATOM      5  C   UNL     1     -11.040   6.707 130.937  0.00  0.00    +0.000 A 
ATOM      6  C   UNL     1     -10.239   6.282 129.858  0.00  0.00    +0.000 A 
ATOM      7  C   UNL     1     -10.396   6.940 128.628  0.00  0.00    +0.000 A 
ATOM      8  C   UNL     1     -11.324   7.954 128.447  0.00  0.00    +0.000 A 
ATOM      9  N   UNL     1      -9.344   5.264 130.030  0.00  0.00    +0.000 N 
ATOM     10  C   UNL     1      -8.605   4.783 128.853  0.00  0.00    +0.000 C 
ATOM     11  C   UNL     1      -9.153   4.680 131.260  0.00  0.00    +0.000 A 
ATOM     12  C   UNL     1      -9.969   5.072 132.335  0.00  0.00    +0.000 A 
ATOM     13  C   UNL     1     -10.919   6.071 132.171  0.00  0.00    +0.000 A 
BRANCH   3  15
ATOM     14  C   UNL     1     -13.215  10.421 130.387  0.00  0.00    +0.000 C 
ATOM     15  N   UNL     1     -12.983   9.453 129.324  0.00  0.00    +0.000 N 
ATOM     16  C   UNL     1     -13.805   9.502 128.125  0.00  0.00    +0.000 C 
ENDBRANCH   3  15
ENDBRANCH   1  11
BRANCH   2  17
ATOM     17  C   UNL     1      -7.178   1.401 131.758  0.00  0.00    +0.000 A 
ATOM     18  C   UNL     1      -6.937   0.341 130.911  0.00  0.00    +0.000 A 
ATOM     19  C   UNL     1      -7.637  -0.075 129.647  0.00  0.00    +0.000 C 
ATOM     20  N   UNL     1      -5.907  -0.392 131.491  0.00  0.00    +0.000 N 
ATOM     21  C   UNL     1      -5.589   0.183 132.713  0.00  0.00    +0.000 A 
ATOM     22  C   UNL     1      -4.491  -0.260 133.604  0.00  0.00    +0.000 C 
ATOM     23  C   UNL     1      -6.386   1.292 132.898  0.00  0.00    +0.000 A 
BRANCH  20  24
ATOM     24  C   UNL     1      -5.334  -1.546 130.920  0.00  0.00    +0.000 A 
ATOM     25  C   UNL     1      -5.909  -2.792 131.189  0.00  0.00    +0.000 A 
ATOM     26  C   UNL     1      -5.265  -3.948 130.768  0.00  0.00    +0.000 A 
ATOM     27  C   UNL     1      -4.090  -3.852 130.022  0.00  0.00    +0.000 A 
ATOM     28  C   UNL     1      -3.541  -2.603 129.723  0.00  0.00    +0.000 A 
ATOM     29  C   UNL     1      -4.157  -1.440 130.177  0.00  0.00    +0.000 A 
ENDBRANCH  20  24
ENDBRANCH   2  17
TORSDOF 4
ENDMDL
