MODEL 1
REMARK VINA RESULT:      -7.5      0.000      0.000
REMARK  Name = Quazepam
REMARK  3 active torsions:
REMARK  status: ('A' for Active; 'I' for Inactive)
REMARK    1  A    between atoms: C_7  and  C_8
REMARK    2  A    between atoms: N_13  and  C_14
REMARK    3  A    between atoms: C_14  and  C_15
REMARK                            x       y       z     vdW  Elec       q    Type
REMARK                         _______ _______ _______ _____ _____    ______ ____
ROOT
ATOM      1  C   UNL     1      -8.454  -2.034 125.392  0.00  0.00    +0.000 C 
ATOM      2  N   UNL     1      -9.620  -1.548 125.124  0.00  0.00    +0.000 NA
ATOM      3  C   UNL     1      -9.919  -1.152 123.748  0.00  0.00    +0.000 C 
ATOM      4  C   UNL     1      -9.170   0.132 123.417  0.00  0.00    +0.000 C 
ATOM      5  S   UNL     1     -10.080   1.531 123.124  0.00  0.00    +0.000 S 
ATOM      6  N   UNL     1      -7.769   0.049 123.288  0.00  0.00    +0.000 N 
ATOM      7  C   UNL     1      -7.068  -1.195 123.432  0.00  0.00    +0.000 A 
ATOM      8  C   UNL     1      -7.321  -2.145 124.433  0.00  0.00    +0.000 A 
ATOM      9  C   UNL     1      -6.455  -3.253 124.585  0.00  0.00    +0.000 A 
ATOM     10  C   UNL     1      -5.334  -3.402 123.784  0.00  0.00    +0.000 A 
ATOM     11 CL   UNL     1      -4.273  -4.731 124.021  0.00  0.00    +0.000 Cl
ATOM     12  C   UNL     1      -5.113  -2.509 122.755  0.00  0.00    +0.000 A 
ATOM     13  C   UNL     1      -6.030  -1.480 122.536  0.00  0.00    +0.000 A 
ENDROOT
BRANCH   1  20
ATOM     14  F   UNL     1      -6.940  -0.688 127.295  0.00  0.00    +0.000 F 
ATOM     15  C   UNL     1      -7.500  -1.852 127.658  0.00  0.00    +0.000 A 
ATOM     16  C   UNL     1      -7.454  -2.223 128.997  0.00  0.00    +0.000 A 
ATOM     17  C   UNL     1      -8.139  -3.363 129.420  0.00  0.00    +0.000 A 
ATOM     18  C   UNL     1      -8.886  -4.116 128.507  0.00  0.00    +0.000 A 
ATOM     19  C   UNL     1      -8.944  -3.735 127.163  0.00  0.00    +0.000 A 
ATOM     20  C   UNL     1      -8.232  -2.606 126.742  0.00  0.00    +0.000 A 
ENDBRANCH   1  20
BRANCH   6  21
ATOM     21  C   UNL     1      -6.979   1.303 123.031  0.00  0.00    +0.000 C 
BRANCH  21  22
ATOM     22  C   UNL     1      -6.496   2.220 124.167  0.00  0.00    +0.000 C 
ATOM     23  F   UNL     1      -5.672   3.193 123.717  0.00  0.00    +0.000 F 
ATOM     24  F   UNL     1      -7.510   2.799 124.845  0.00  0.00    +0.000 F 
ATOM     25  F   UNL     1      -5.806   1.506 125.089  0.00  0.00    +0.000 F 
ENDBRANCH  21  22
ENDBRANCH   6  21
TORSDOF 3
ENDMDL
MODEL 2
REMARK VINA RESULT:      -7.5      3.705      5.413
REMARK  Name = Quazepam
REMARK  3 active torsions:
REMARK  status: ('A' for Active; 'I' for Inactive)
REMARK    1  A    between atoms: C_7  and  C_8
REMARK    2  A    between atoms: N_13  and  C_14
REMARK    3  A    between atoms: C_14  and  C_15
REMARK                            x       y       z     vdW  Elec       q    Type
REMARK                         _______ _______ _______ _____ _____    ______ ____
ROOT
ATOM      1  C   UNL     1      -7.301   1.473 124.959  0.00  0.00    +0.000 C 
ATOM      2  N   UNL     1      -7.859   1.603 126.116  0.00  0.00    +0.000 NA
ATOM      3  C   UNL     1      -7.937   2.935 126.715  0.00  0.00    +0.000 C 
ATOM      4  C   UNL     1      -6.554   3.356 127.196  0.00  0.00    +0.000 C 
ATOM      5  S   UNL     1      -6.314   3.543 128.863  0.00  0.00    +0.000 S 
ATOM      6  N   UNL     1      -5.588   3.649 126.212  0.00  0.00    +0.000 N 
ATOM      7  C   UNL     1      -5.892   3.585 124.811  0.00  0.00    +0.000 A 
ATOM      8  C   UNL     1      -6.626   2.559 124.196  0.00  0.00    +0.000 A 
ATOM      9  C   UNL     1      -6.716   2.506 122.786  0.00  0.00    +0.000 A 
ATOM     10  C   UNL     1      -6.060   3.433 121.991  0.00  0.00    +0.000 A 
ATOM     11 CL   UNL     1      -6.147   3.320 120.280  0.00  0.00    +0.000 Cl
ATOM     12  C   UNL     1      -5.392   4.483 122.586  0.00  0.00    +0.000 A 
ATOM     13  C   UNL     1      -5.397   4.596 123.977  0.00  0.00    +0.000 A 
ENDROOT
BRANCH   1  20
ATOM     14  F   UNL     1      -5.338  -0.467 125.290  0.00  0.00    +0.000 F 
ATOM     15  C   UNL     1      -6.400  -0.783 124.533  0.00  0.00    +0.000 A 
ATOM     16  C   UNL     1      -6.555  -2.100 124.118  0.00  0.00    +0.000 A 
ATOM     17  C   UNL     1      -7.715  -2.478 123.440  0.00  0.00    +0.000 A 
ATOM     18  C   UNL     1      -8.726  -1.542 123.199  0.00  0.00    +0.000 A 
ATOM     19  C   UNL     1      -8.578  -0.221 123.628  0.00  0.00    +0.000 A 
ATOM     20  C   UNL     1      -7.400   0.157 124.283  0.00  0.00    +0.000 A 
ENDBRANCH   1  20
BRANCH   6  21
ATOM     21  C   UNL     1      -4.188   4.000 126.637  0.00  0.00    +0.000 C 
BRANCH  21  22
ATOM     22  C   UNL     1      -3.063   2.955 126.714  0.00  0.00    +0.000 C 
ATOM     23  F   UNL     1      -1.954   3.356 126.054  0.00  0.00    +0.000 F 
ATOM     24  F   UNL     1      -2.719   2.642 127.981  0.00  0.00    +0.000 F 
ATOM     25  F   UNL     1      -3.464   1.789 126.151  0.00  0.00    +0.000 F 
ENDBRANCH  21  22
ENDBRANCH   6  21
TORSDOF 3
ENDMDL
MODEL 3
REMARK VINA RESULT:      -7.2      3.268      5.176
REMARK  Name = Quazepam
REMARK  3 active torsions:
REMARK  status: ('A' for Active; 'I' for Inactive)
REMARK    1  A    between atoms: C_7  and  C_8
REMARK    2  A    between atoms: N_13  and  C_14
REMARK    3  A    between atoms: C_14  and  C_15
REMARK                            x       y       z     vdW  Elec       q    Type
REMARK                         _______ _______ _______ _____ _____    ______ ____
ROOT
ATOM      1  C   UNL     1      -7.601   0.362 126.888  0.00  0.00    +0.000 C 
ATOM      2  N   UNL     1      -8.244   0.835 125.873  0.00  0.00    +0.000 NA
ATOM      3  C   UNL     1      -9.331   0.045 125.296  0.00  0.00    +0.000 C 
ATOM      4  C   UNL     1      -8.747  -1.138 124.533  0.00  0.00    +0.000 C 
ATOM      5  S   UNL     1      -8.954  -1.181 122.852  0.00  0.00    +0.000 S 
ATOM      6  N   UNL     1      -8.150  -2.165 125.290  0.00  0.00    +0.000 N 
ATOM      7  C   UNL     1      -8.113  -2.125 126.724  0.00  0.00    +0.000 A 
ATOM      8  C   UNL     1      -7.800  -0.988 127.485  0.00  0.00    +0.000 A 
ATOM      9  C   UNL     1      -7.622  -1.105 128.884  0.00  0.00    +0.000 A 
ATOM     10  C   UNL     1      -7.716  -2.334 129.517  0.00  0.00    +0.000 A 
ATOM     11 CL   UNL     1      -7.450  -2.456 131.209  0.00  0.00    +0.000 Cl
ATOM     12  C   UNL     1      -8.088  -3.445 128.789  0.00  0.00    +0.000 A 
ATOM     13  C   UNL     1      -8.372  -3.307 127.429  0.00  0.00    +0.000 A 
ENDROOT
BRANCH   1  20
ATOM     14  F   UNL     1      -4.894   0.308 126.263  0.00  0.00    +0.000 F 
ATOM     15  C   UNL     1      -5.301   1.201 127.179  0.00  0.00    +0.000 A 
ATOM     16  C   UNL     1      -4.400   2.163 127.619  0.00  0.00    +0.000 A 
ATOM     17  C   UNL     1      -4.836   3.177 128.472  0.00  0.00    +0.000 A 
ATOM     18  C   UNL     1      -6.177   3.240 128.864  0.00  0.00    +0.000 A 
ATOM     19  C   UNL     1      -7.088   2.282 128.411  0.00  0.00    +0.000 A 
ATOM     20  C   UNL     1      -6.637   1.251 127.578  0.00  0.00    +0.000 A 
ENDBRANCH   1  20
BRANCH   6  21
ATOM     21  C   UNL     1      -7.498  -3.319 124.578  0.00  0.00    +0.000 C 
BRANCH  21  22
ATOM     22  C   UNL     1      -6.017  -3.302 124.166  0.00  0.00    +0.000 C 
ATOM     23  F   UNL     1      -5.544  -4.545 123.922  0.00  0.00    +0.000 F 
ATOM     24  F   UNL     1      -5.780  -2.534 123.081  0.00  0.00    +0.000 F 
ATOM     25  F   UNL     1      -5.257  -2.772 125.155  0.00  0.00    +0.000 F 
ENDBRANCH  21  22
ENDBRANCH   6  21
TORSDOF 3
ENDMDL
MODEL 4
REMARK VINA RESULT:      -7.1      2.644      3.227
REMARK  Name = Quazepam
REMARK  3 active torsions:
REMARK  status: ('A' for Active; 'I' for Inactive)
REMARK    1  A    between atoms: C_7  and  C_8
REMARK    2  A    between atoms: N_13  and  C_14
REMARK    3  A    between atoms: C_14  and  C_15
REMARK                            x       y       z     vdW  Elec       q    Type
REMARK                         _______ _______ _______ _____ _____    ______ ____
ROOT
ATOM      1  C   UNL     1      -7.738  -0.437 127.572  0.00  0.00    +0.000 C 
ATOM      2  N   UNL     1      -7.872   0.624 128.296  0.00  0.00    +0.000 NA
ATOM      3  C   UNL     1      -8.527   1.796 127.715  0.00  0.00    +0.000 C 
ATOM      4  C   UNL     1      -7.591   2.451 126.707  0.00  0.00    +0.000 C 
ATOM      5  S   UNL     1      -7.004   4.001 127.057  0.00  0.00    +0.000 S 
ATOM      6  N   UNL     1      -7.347   1.757 125.505  0.00  0.00    +0.000 N 
ATOM      7  C   UNL     1      -7.971   0.497 125.218  0.00  0.00    +0.000 A 
ATOM      8  C   UNL     1      -8.108  -0.556 126.135  0.00  0.00    +0.000 A 
ATOM      9  C   UNL     1      -8.582  -1.814 125.695  0.00  0.00    +0.000 A 
ATOM     10  C   UNL     1      -8.883  -2.040 124.361  0.00  0.00    +0.000 A 
ATOM     11 CL   UNL     1      -9.413  -3.589 123.845  0.00  0.00    +0.000 Cl
ATOM     12  C   UNL     1      -8.816  -0.993 123.465  0.00  0.00    +0.000 A 
ATOM     13  C   UNL     1      -8.454   0.275 123.922  0.00  0.00    +0.000 A 
ENDROOT
BRANCH   1  20
ATOM     14  F   UNL     1      -5.073  -1.206 127.393  0.00  0.00    +0.000 F 
ATOM     15  C   UNL     1      -5.890  -1.968 128.136  0.00  0.00    +0.000 A 
ATOM     16  C   UNL     1      -5.335  -2.975 128.916  0.00  0.00    +0.000 A 
ATOM     17  C   UNL     1      -6.147  -3.696 129.792  0.00  0.00    +0.000 A 
ATOM     18  C   UNL     1      -7.508  -3.393 129.902  0.00  0.00    +0.000 A 
ATOM     19  C   UNL     1      -8.066  -2.372 129.128  0.00  0.00    +0.000 A 
ATOM     20  C   UNL     1      -7.250  -1.671 128.231  0.00  0.00    +0.000 A 
ENDBRANCH   1  20
BRANCH   6  21
ATOM     21  C   UNL     1      -6.375   2.330 124.509  0.00  0.00    +0.000 C 
BRANCH  21  22
ATOM     22  C   UNL     1      -6.810   3.299 123.397  0.00  0.00    +0.000 C 
ATOM     23  F   UNL     1      -8.130   3.581 123.459  0.00  0.00    +0.000 F 
ATOM     24  F   UNL     1      -6.123   4.462 123.412  0.00  0.00    +0.000 F 
ATOM     25  F   UNL     1      -6.573   2.756 122.179  0.00  0.00    +0.000 F 
ENDBRANCH  21  22
ENDBRANCH   6  21
TORSDOF 3
ENDMDL
MODEL 5
REMARK VINA RESULT:      -7.0      3.201      4.316
REMARK  Name = Quazepam
REMARK  3 active torsions:
REMARK  status: ('A' for Active; 'I' for Inactive)
REMARK    1  A    between atoms: C_7  and  C_8
REMARK    2  A    between atoms: N_13  and  C_14
REMARK    3  A    between atoms: C_14  and  C_15
REMARK                            x       y       z     vdW  Elec       q    Type
REMARK                         _______ _______ _______ _____ _____    ______ ____
ROOT
ATOM      1  C   UNL     1      -5.689  -1.781 126.928  0.00  0.00    +0.000 C 
ATOM      2  N   UNL     1      -5.632  -2.535 125.881  0.00  0.00    +0.000 NA
ATOM      3  C   UNL     1      -5.392  -1.916 124.578  0.00  0.00    +0.000 C 
ATOM      4  C   UNL     1      -6.648  -1.176 124.130  0.00  0.00    +0.000 C 
ATOM      5  S   UNL     1      -7.466  -1.754 122.763  0.00  0.00    +0.000 S 
ATOM      6  N   UNL     1      -6.995  -0.006 124.833  0.00  0.00    +0.000 N 
ATOM      7  C   UNL     1      -6.190   0.496 125.911  0.00  0.00    +0.000 A 
ATOM      8  C   UNL     1      -5.629  -0.293 126.927  0.00  0.00    +0.000 A 
ATOM      9  C   UNL     1      -5.002   0.326 128.033  0.00  0.00    +0.000 A 
ATOM     10  C   UNL     1      -4.961   1.707 128.153  0.00  0.00    +0.000 A 
ATOM     11 CL   UNL     1      -4.235   2.433 129.529  0.00  0.00    +0.000 Cl
ATOM     12  C   UNL     1      -5.451   2.491 127.129  0.00  0.00    +0.000 A 
ATOM     13  C   UNL     1      -5.969   1.877 125.987  0.00  0.00    +0.000 A 
ENDROOT
BRANCH   1  20
ATOM     14  F   UNL     1      -8.105  -2.195 128.237  0.00  0.00    +0.000 F 
ATOM     15  C   UNL     1      -6.992  -2.652 128.831  0.00  0.00    +0.000 A 
ATOM     16  C   UNL     1      -7.119  -3.460 129.954  0.00  0.00    +0.000 A 
ATOM     17  C   UNL     1      -5.984  -4.050 130.512  0.00  0.00    +0.000 A 
ATOM     18  C   UNL     1      -4.728  -3.849 129.931  0.00  0.00    +0.000 A 
ATOM     19  C   UNL     1      -4.600  -3.047 128.793  0.00  0.00    +0.000 A 
ATOM     20  C   UNL     1      -5.739  -2.436 128.256  0.00  0.00    +0.000 A 
ENDBRANCH   1  20
BRANCH   6  21
ATOM     21  C   UNL     1      -8.263   0.719 124.474  0.00  0.00    +0.000 C 
BRANCH  21  22
ATOM     22  C   UNL     1      -9.515   0.681 125.367  0.00  0.00    +0.000 C 
ATOM     23  F   UNL     1     -10.595   1.206 124.747  0.00  0.00    +0.000 F 
ATOM     24  F   UNL     1      -9.826  -0.565 125.786  0.00  0.00    +0.000 F 
ATOM     25  F   UNL     1      -9.312   1.401 126.496  0.00  0.00    +0.000 F 
ENDBRANCH  21  22
ENDBRANCH   6  21
TORSDOF 3
ENDMDL
MODEL 6
REMARK VINA RESULT:      -6.9      3.545      4.992
REMARK  Name = Quazepam
REMARK  3 active torsions:
REMARK  status: ('A' for Active; 'I' for Inactive)
REMARK    1  A    between atoms: C_7  and  C_8
REMARK    2  A    between atoms: N_13  and  C_14
REMARK    3  A    between atoms: C_14  and  C_15
REMARK                            x       y       z     vdW  Elec       q    Type
REMARK                         _______ _______ _______ _____ _____    ______ ____
ROOT
ATOM      1  C   UNL     1      -7.684  -0.110 126.637  0.00  0.00    +0.000 C 
ATOM      2  N   UNL     1      -7.731  -0.309 127.912  0.00  0.00    +0.000 NA
ATOM      3  C   UNL     1      -7.916   0.839 128.798  0.00  0.00    +0.000 C 
ATOM      4  C   UNL     1      -6.628   1.653 128.847  0.00  0.00    +0.000 C 
ATOM      5  S   UNL     1      -5.787   1.724 130.317  0.00  0.00    +0.000 S 
ATOM      6  N   UNL     1      -6.270   2.367 127.687  0.00  0.00    +0.000 N 
ATOM      7  C   UNL     1      -7.091   2.360 126.510  0.00  0.00    +0.000 A 
ATOM      8  C   UNL     1      -7.703   1.220 125.967  0.00  0.00    +0.000 A 
ATOM      9  C   UNL     1      -8.345   1.298 124.709  0.00  0.00    +0.000 A 
ATOM     10  C   UNL     1      -8.351   2.476 123.980  0.00  0.00    +0.000 A 
ATOM     11 CL   UNL     1      -9.096   2.532 122.434  0.00  0.00    +0.000 Cl
ATOM     12  C   UNL     1      -7.810   3.619 124.533  0.00  0.00    +0.000 A 
ATOM     13  C   UNL     1      -7.276   3.566 125.821  0.00  0.00    +0.000 A 
ENDROOT
BRANCH   1  20
ATOM     14  F   UNL     1      -5.354  -1.000 125.411  0.00  0.00    +0.000 F 
ATOM     15  C   UNL     1      -6.474  -1.710 125.203  0.00  0.00    +0.000 A 
ATOM     16  C   UNL     1      -6.375  -2.936 124.556  0.00  0.00    +0.000 A 
ATOM     17  C   UNL     1      -7.504  -3.748 124.443  0.00  0.00    +0.000 A 
ATOM     18  C   UNL     1      -8.723  -3.343 124.997  0.00  0.00    +0.000 A 
ATOM     19  C   UNL     1      -8.819  -2.117 125.661  0.00  0.00    +0.000 A 
ATOM     20  C   UNL     1      -7.690  -1.295 125.746  0.00  0.00    +0.000 A 
ENDBRANCH   1  20
BRANCH   6  21
ATOM     21  C   UNL     1      -4.972   3.129 127.663  0.00  0.00    +0.000 C 
BRANCH  21  22
ATOM     22  C   UNL     1      -3.838   2.793 126.681  0.00  0.00    +0.000 C 
ATOM     23  F   UNL     1      -4.010   1.583 126.103  0.00  0.00    +0.000 F 
ATOM     24  F   UNL     1      -3.693   3.716 125.706  0.00  0.00    +0.000 F 
ATOM     25  F   UNL     1      -2.647   2.761 127.328  0.00  0.00    +0.000 F 
ENDBRANCH  21  22
ENDBRANCH   6  21
TORSDOF 3
ENDMDL
MODEL 7
REMARK VINA RESULT:      -6.9      3.649      5.877
REMARK  Name = Quazepam
REMARK  3 active torsions:
REMARK  status: ('A' for Active; 'I' for Inactive)
REMARK    1  A    between atoms: C_7  and  C_8
REMARK    2  A    between atoms: N_13  and  C_14
REMARK    3  A    between atoms: C_14  and  C_15
REMARK                            x       y       z     vdW  Elec       q    Type
REMARK                         _______ _______ _______ _____ _____    ______ ____
ROOT
ATOM      1  C   UNL     1      -6.590  -0.784 127.167  0.00  0.00    +0.000 C 
ATOM      2  N   UNL     1      -6.978   0.388 126.788  0.00  0.00    +0.000 NA
ATOM      3  C   UNL     1      -6.444   1.563 127.476  0.00  0.00    +0.000 C 
ATOM      4  C   UNL     1      -7.071   1.667 128.861  0.00  0.00    +0.000 C 
ATOM      5  S   UNL     1      -8.086   2.986 129.179  0.00  0.00    +0.000 S 
ATOM      6  N   UNL     1      -6.693   0.702 129.816  0.00  0.00    +0.000 N 
ATOM      7  C   UNL     1      -5.735  -0.323 129.517  0.00  0.00    +0.000 A 
ATOM      8  C   UNL     1      -5.704  -1.069 128.329  0.00  0.00    +0.000 A 
ATOM      9  C   UNL     1      -4.825  -2.172 128.213  0.00  0.00    +0.000 A 
ATOM     10  C   UNL     1      -4.015  -2.556 129.270  0.00  0.00    +0.000 A 
ATOM     11 CL   UNL     1      -2.991  -3.926 129.119  0.00  0.00    +0.000 Cl
ATOM     12  C   UNL     1      -3.989  -1.790 130.417  0.00  0.00    +0.000 A 
ATOM     13  C   UNL     1      -4.774  -0.639 130.487  0.00  0.00    +0.000 A 
ENDROOT
BRANCH   1  20
ATOM     14  F   UNL     1      -8.636  -2.486 127.968  0.00  0.00    +0.000 F 
ATOM     15  C   UNL     1      -8.053  -2.731 126.784  0.00  0.00    +0.000 A 
ATOM     16  C   UNL     1      -8.617  -3.688 125.949  0.00  0.00    +0.000 A 
ATOM     17  C   UNL     1      -8.105  -3.870 124.664  0.00  0.00    +0.000 A 
ATOM     18  C   UNL     1      -7.045  -3.078 124.209  0.00  0.00    +0.000 A 
ATOM     19  C   UNL     1      -6.486  -2.106 125.043  0.00  0.00    +0.000 A 
ATOM     20  C   UNL     1      -6.986  -1.949 126.340  0.00  0.00    +0.000 A 
ENDBRANCH   1  20
BRANCH   6  21
ATOM     21  C   UNL     1      -7.338   0.721 131.176  0.00  0.00    +0.000 C 
BRANCH  21  22
ATOM     22  C   UNL     1      -8.418  -0.292 131.589  0.00  0.00    +0.000 C 
ATOM     23  F   UNL     1      -8.086  -0.955 132.718  0.00  0.00    +0.000 F 
ATOM     24  F   UNL     1      -9.632   0.273 131.766  0.00  0.00    +0.000 F 
ATOM     25  F   UNL     1      -8.592  -1.220 130.617  0.00  0.00    +0.000 F 
ENDBRANCH  21  22
ENDBRANCH   6  21
TORSDOF 3
ENDMDL
MODEL 8
REMARK VINA RESULT:      -6.8      3.084      4.398
REMARK  Name = Quazepam
REMARK  3 active torsions:
REMARK  status: ('A' for Active; 'I' for Inactive)
REMARK    1  A    between atoms: C_7  and  C_8
REMARK    2  A    between atoms: N_13  and  C_14
REMARK    3  A    between atoms: C_14  and  C_15
REMARK                            x       y       z     vdW  Elec       q    Type
REMARK                         _______ _______ _______ _____ _____    ______ ____
ROOT
ATOM      1  C   UNL     1      -6.417  -0.623 127.892  0.00  0.00    +0.000 C 
ATOM      2  N   UNL     1      -6.215   0.640 127.709  0.00  0.00    +0.000 NA
ATOM      3  C   UNL     1      -7.158   1.393 126.883  0.00  0.00    +0.000 C 
ATOM      4  C   UNL     1      -6.957   1.021 125.419  0.00  0.00    +0.000 C 
ATOM      5  S   UNL     1      -6.382   2.218 124.366  0.00  0.00    +0.000 S 
ATOM      6  N   UNL     1      -7.348  -0.272 125.019  0.00  0.00    +0.000 N 
ATOM      7  C   UNL     1      -7.941  -1.201 125.939  0.00  0.00    +0.000 A 
ATOM      8  C   UNL     1      -7.492  -1.429 127.249  0.00  0.00    +0.000 A 
ATOM      9  C   UNL     1      -8.040  -2.490 128.006  0.00  0.00    +0.000 A 
ATOM     10  C   UNL     1      -8.994  -3.338 127.465  0.00  0.00    +0.000 A 
ATOM     11 CL   UNL     1      -9.609  -4.647 128.389  0.00  0.00    +0.000 Cl
ATOM     12  C   UNL     1      -9.490  -3.082 126.203  0.00  0.00    +0.000 A 
ATOM     13  C   UNL     1      -9.027  -1.969 125.501  0.00  0.00    +0.000 A 
ENDROOT
BRANCH   1  20
ATOM     14  F   UNL     1      -4.808  -2.761 127.142  0.00  0.00    +0.000 F 
ATOM     15  C   UNL     1      -4.752  -2.362 128.422  0.00  0.00    +0.000 A 
ATOM     16  C   UNL     1      -3.773  -2.902 129.247  0.00  0.00    +0.000 A 
ATOM     17  C   UNL     1      -3.614  -2.410 130.543  0.00  0.00    +0.000 A 
ATOM     18  C   UNL     1      -4.421  -1.364 131.003  0.00  0.00    +0.000 A 
ATOM     19  C   UNL     1      -5.397  -0.810 130.171  0.00  0.00    +0.000 A 
ATOM     20  C   UNL     1      -5.569  -1.327 128.881  0.00  0.00    +0.000 A 
ENDBRANCH   1  20
BRANCH   6  21
ATOM     21  C   UNL     1      -7.105  -0.709 123.601  0.00  0.00    +0.000 C 
BRANCH  21  22
ATOM     22  C   UNL     1      -6.220  -1.918 123.251  0.00  0.00    +0.000 C 
ATOM     23  F   UNL     1      -6.854  -3.090 123.474  0.00  0.00    +0.000 F 
ATOM     24  F   UNL     1      -5.787  -1.902 121.972  0.00  0.00    +0.000 F 
ATOM     25  F   UNL     1      -5.099  -1.918 124.012  0.00  0.00    +0.000 F 
ENDBRANCH  21  22
ENDBRANCH   6  21
TORSDOF 3
ENDMDL
MODEL 9
REMARK VINA RESULT:      -6.7      3.836      5.188
REMARK  Name = Quazepam
REMARK  3 active torsions:
REMARK  status: ('A' for Active; 'I' for Inactive)
REMARK    1  A    between atoms: C_7  and  C_8
REMARK    2  A    between atoms: N_13  and  C_14
REMARK    3  A    between atoms: C_14  and  C_15
REMARK                            x       y       z     vdW  Elec       q    Type
REMARK                         _______ _______ _______ _____ _____    ______ ____
ROOT
ATOM      1  C   UNL     1      -6.004  -1.541 127.493  0.00  0.00    +0.000 C 
ATOM      2  N   UNL     1      -5.080  -1.958 126.694  0.00  0.00    +0.000 NA
ATOM      3  C   UNL     1      -4.968  -1.351 125.368  0.00  0.00    +0.000 C 
ATOM      4  C   UNL     1      -6.117  -1.833 124.491  0.00  0.00    +0.000 C 
ATOM      5  S   UNL     1      -5.744  -2.803 123.153  0.00  0.00    +0.000 S 
ATOM      6  N   UNL     1      -7.409  -1.366 124.803  0.00  0.00    +0.000 N 
ATOM      7  C   UNL     1      -7.642  -0.448 125.882  0.00  0.00    +0.000 A 
ATOM      8  C   UNL     1      -7.056  -0.543 127.154  0.00  0.00    +0.000 A 
ATOM      9  C   UNL     1      -7.490   0.313 128.193  0.00  0.00    +0.000 A 
ATOM     10  C   UNL     1      -8.514   1.225 127.990  0.00  0.00    +0.000 A 
ATOM     11 CL   UNL     1      -9.053   2.219 129.281  0.00  0.00    +0.000 Cl
ATOM     12  C   UNL     1      -9.050   1.371 126.727  0.00  0.00    +0.000 A 
ATOM     13  C   UNL     1      -8.543   0.604 125.677  0.00  0.00    +0.000 A 
ENDROOT
BRANCH   1  20
ATOM     14  F   UNL     1      -7.767  -3.507 128.359  0.00  0.00    +0.000 F 
ATOM     15  C   UNL     1      -6.869  -3.047 129.243  0.00  0.00    +0.000 A 
ATOM     16  C   UNL     1      -6.741  -3.699 130.464  0.00  0.00    +0.000 A 
ATOM     17  C   UNL     1      -5.728  -3.320 131.346  0.00  0.00    +0.000 A 
ATOM     18  C   UNL     1      -4.831  -2.306 130.994  0.00  0.00    +0.000 A 
ATOM     19  C   UNL     1      -4.949  -1.660 129.761  0.00  0.00    +0.000 A 
ATOM     20  C   UNL     1      -5.985  -2.026 128.893  0.00  0.00    +0.000 A 
ENDBRANCH   1  20
BRANCH   6  21
ATOM     21  C   UNL     1      -8.585  -1.869 124.010  0.00  0.00    +0.000 C 
BRANCH  21  22
ATOM     22  C   UNL     1      -9.296  -3.191 124.341  0.00  0.00    +0.000 C 
ATOM     23  F   UNL     1     -10.137  -3.574 123.355  0.00  0.00    +0.000 F 
ATOM     24  F   UNL     1      -8.438  -4.204 124.589  0.00  0.00    +0.000 F 
ATOM     25  F   UNL     1     -10.035  -3.061 125.469  0.00  0.00    +0.000 F 
ENDBRANCH  21  22
ENDBRANCH   6  21
TORSDOF 3
ENDMDL
