MODEL 1
REMARK VINA RESULT:      -7.1      0.000      0.000
REMARK  Name = Quetiapine
REMARK  6 active torsions:
REMARK  status: ('A' for Active; 'I' for Inactive)
REMARK    1  A    between atoms: O_1  and  C_2
REMARK    2  A    between atoms: C_2  and  C_3
REMARK    3  A    between atoms: C_3  and  O_4
REMARK    4  A    between atoms: O_4  and  C_5
REMARK    5  A    between atoms: C_5  and  C_6
REMARK    6  A    between atoms: C_6  and  N_7
REMARK                            x       y       z     vdW  Elec       q    Type
REMARK                         _______ _______ _______ _____ _____    ______ ____
ROOT
ATOM      1  N   UNL     1     -11.637   7.511 130.513  0.00  0.00    +0.000 NA
ATOM      2  C   UNL     1     -11.625   6.419 131.521  0.00  0.00    +0.000 C 
ATOM      3  C   UNL     1     -11.295   5.047 130.882  0.00  0.00    +0.000 C 
ATOM      4  N   UNL     1      -9.943   5.127 130.317  0.00  0.00    +0.000 N 
ATOM      5  C   UNL     1      -9.834   6.136 129.267  0.00  0.00    +0.000 C 
ATOM      6  C   UNL     1     -10.333   7.505 129.803  0.00  0.00    +0.000 C 
ATOM      7  C   UNL     1      -8.955   4.244 130.748  0.00  0.00    +0.000 C 
ATOM      8  N   UNL     1      -9.212   2.973 130.637  0.00  0.00    +0.000 NA
ATOM      9  C   UNL     1      -8.357   1.943 131.085  0.00  0.00    +0.000 A 
ATOM     10  C   UNL     1      -8.104   0.894 130.192  0.00  0.00    +0.000 A 
ATOM     11  C   UNL     1      -7.361  -0.226 130.577  0.00  0.00    +0.000 A 
ATOM     12  C   UNL     1      -6.849  -0.308 131.868  0.00  0.00    +0.000 A 
ATOM     13  C   UNL     1      -7.091   0.724 132.774  0.00  0.00    +0.000 A 
ATOM     14  C   UNL     1      -7.859   1.839 132.396  0.00  0.00    +0.000 A 
ATOM     15  S   UNL     1      -8.163   3.118 133.610  0.00  0.00    +0.000 S 
ATOM     16  C   UNL     1      -7.368   4.447 132.723  0.00  0.00    +0.000 A 
ATOM     17  C   UNL     1      -6.285   5.084 133.353  0.00  0.00    +0.000 A 
ATOM     18  C   UNL     1      -5.556   6.071 132.693  0.00  0.00    +0.000 A 
ATOM     19  C   UNL     1      -5.887   6.414 131.390  0.00  0.00    +0.000 A 
ATOM     20  C   UNL     1      -6.960   5.786 130.758  0.00  0.00    +0.000 A 
ATOM     21  C   UNL     1      -7.729   4.820 131.416  0.00  0.00    +0.000 A 
ENDROOT
BRANCH   1  22
ATOM     22  C   UNL     1     -12.896   7.396 129.756  0.00  0.00    +0.000 C 
BRANCH  22  23
ATOM     23  C   UNL     1     -13.022   7.831 128.303  0.00  0.00    +0.000 C 
BRANCH  23  24
ATOM     24  O   UNL     1     -12.828   6.658 127.497  0.00  0.00    +0.000 OA
BRANCH  24  25
ATOM     25  C   UNL     1     -12.396   7.020 126.192  0.00  0.00    +0.000 C 
BRANCH  25  26
ATOM     26  C   UNL     1     -11.118   7.839 126.267  0.00  0.00    +0.000 C 
BRANCH  26  27
ATOM     27  O   UNL     1     -10.707   8.171 124.947  0.00  0.00    +0.000 OA
ATOM     28  H   UNL     1     -11.425   8.689 124.548  0.00  0.00    +0.000 HD
ENDBRANCH  26  27
ENDBRANCH  25  26
ENDBRANCH  24  25
ENDBRANCH  23  24
ENDBRANCH  22  23
ENDBRANCH   1  22
TORSDOF 6
ENDMDL
MODEL 2
REMARK VINA RESULT:      -7.1      2.430      3.548
REMARK  Name = Quetiapine
REMARK  6 active torsions:
REMARK  status: ('A' for Active; 'I' for Inactive)
REMARK    1  A    between atoms: O_1  and  C_2
REMARK    2  A    between atoms: C_2  and  C_3
REMARK    3  A    between atoms: C_3  and  O_4
REMARK    4  A    between atoms: O_4  and  C_5
REMARK    5  A    between atoms: C_5  and  C_6
REMARK    6  A    between atoms: C_6  and  N_7
REMARK                            x       y       z     vdW  Elec       q    Type
REMARK                         _______ _______ _______ _____ _____    ______ ____
ROOT
ATOM      1  N   UNL     1     -11.533   5.987 131.216  0.00  0.00    +0.000 NA
ATOM      2  C   UNL     1     -11.011   5.156 130.101  0.00  0.00    +0.000 C 
ATOM      3  C   UNL     1      -9.650   5.680 129.578  0.00  0.00    +0.000 C 
ATOM      4  N   UNL     1      -8.681   5.590 130.675  0.00  0.00    +0.000 N 
ATOM      5  C   UNL     1      -9.054   6.412 131.822  0.00  0.00    +0.000 C 
ATOM      6  C   UNL     1     -10.496   6.053 132.276  0.00  0.00    +0.000 C 
ATOM      7  C   UNL     1      -7.521   4.833 130.518  0.00  0.00    +0.000 C 
ATOM      8  N   UNL     1      -6.753   5.135 129.512  0.00  0.00    +0.000 NA
ATOM      9  C   UNL     1      -5.579   4.432 129.163  0.00  0.00    +0.000 A 
ATOM     10  C   UNL     1      -4.433   5.196 128.909  0.00  0.00    +0.000 A 
ATOM     11  C   UNL     1      -3.251   4.604 128.451  0.00  0.00    +0.000 A 
ATOM     12  C   UNL     1      -3.197   3.229 128.249  0.00  0.00    +0.000 A 
ATOM     13  C   UNL     1      -4.328   2.450 128.494  0.00  0.00    +0.000 A 
ATOM     14  C   UNL     1      -5.524   3.047 128.930  0.00  0.00    +0.000 A 
ATOM     15  S   UNL     1      -6.951   2.001 129.199  0.00  0.00    +0.000 S 
ATOM     16  C   UNL     1      -7.150   2.354 130.937  0.00  0.00    +0.000 A 
ATOM     17  C   UNL     1      -7.064   1.270 131.828  0.00  0.00    +0.000 A 
ATOM     18  C   UNL     1      -7.121   1.473 133.205  0.00  0.00    +0.000 A 
ATOM     19  C   UNL     1      -7.241   2.762 133.706  0.00  0.00    +0.000 A 
ATOM     20  C   UNL     1      -7.326   3.842 132.828  0.00  0.00    +0.000 A 
ATOM     21  C   UNL     1      -7.308   3.657 131.441  0.00  0.00    +0.000 A 
ENDROOT
BRANCH   1  22
ATOM     22  C   UNL     1     -12.072   7.225 130.625  0.00  0.00    +0.000 C 
BRANCH  22  23
ATOM     23  C   UNL     1     -13.099   7.220 129.503  0.00  0.00    +0.000 C 
BRANCH  23  24
ATOM     24  O   UNL     1     -12.555   8.011 128.435  0.00  0.00    +0.000 OA
BRANCH  24  25
ATOM     25  C   UNL     1     -12.408   7.223 127.260  0.00  0.00    +0.000 C 
BRANCH  25  26
ATOM     26  C   UNL     1     -11.124   7.592 126.535  0.00  0.00    +0.000 C 
BRANCH  26  27
ATOM     27  O   UNL     1     -10.416   6.399 126.220  0.00  0.00    +0.000 OA
ATOM     28  H   UNL     1     -10.116   6.017 127.062  0.00  0.00    +0.000 HD
ENDBRANCH  26  27
ENDBRANCH  25  26
ENDBRANCH  24  25
ENDBRANCH  23  24
ENDBRANCH  22  23
ENDBRANCH   1  22
TORSDOF 6
ENDMDL
MODEL 3
REMARK VINA RESULT:      -7.1      6.812      9.788
REMARK  Name = Quetiapine
REMARK  6 active torsions:
REMARK  status: ('A' for Active; 'I' for Inactive)
REMARK    1  A    between atoms: O_1  and  C_2
REMARK    2  A    between atoms: C_2  and  C_3
REMARK    3  A    between atoms: C_3  and  O_4
REMARK    4  A    between atoms: O_4  and  C_5
REMARK    5  A    between atoms: C_5  and  C_6
REMARK    6  A    between atoms: C_6  and  N_7
REMARK                            x       y       z     vdW  Elec       q    Type
REMARK                         _______ _______ _______ _____ _____    ______ ____
ROOT
ATOM      1  N   UNL     1      -6.321   0.955 128.619  0.00  0.00    +0.000 NA
ATOM      2  C   UNL     1      -7.273   1.861 127.925  0.00  0.00    +0.000 C 
ATOM      3  C   UNL     1      -6.583   2.671 126.799  0.00  0.00    +0.000 C 
ATOM      4  N   UNL     1      -6.086   1.718 125.800  0.00  0.00    +0.000 N 
ATOM      5  C   UNL     1      -5.094   0.798 126.347  0.00  0.00    +0.000 C 
ATOM      6  C   UNL     1      -5.674   0.089 127.601  0.00  0.00    +0.000 C 
ATOM      7  C   UNL     1      -6.518   1.809 124.478  0.00  0.00    +0.000 C 
ATOM      8  N   UNL     1      -6.332   2.946 123.874  0.00  0.00    +0.000 NA
ATOM      9  C   UNL     1      -6.767   3.236 122.562  0.00  0.00    +0.000 A 
ATOM     10  C   UNL     1      -5.836   3.827 121.700  0.00  0.00    +0.000 A 
ATOM     11  C   UNL     1      -6.199   4.251 120.417  0.00  0.00    +0.000 A 
ATOM     12  C   UNL     1      -7.506   4.081 119.975  0.00  0.00    +0.000 A 
ATOM     13  C   UNL     1      -8.451   3.497 120.819  0.00  0.00    +0.000 A 
ATOM     14  C   UNL     1      -8.093   3.092 122.117  0.00  0.00    +0.000 A 
ATOM     15  S   UNL     1      -9.355   2.377 123.166  0.00  0.00    +0.000 S 
ATOM     16  C   UNL     1      -8.573   0.787 123.385  0.00  0.00    +0.000 A 
ATOM     17  C   UNL     1      -9.284  -0.344 122.951  0.00  0.00    +0.000 A 
ATOM     18  C   UNL     1      -8.709  -1.613 123.006  0.00  0.00    +0.000 A 
ATOM     19  C   UNL     1      -7.411  -1.759 123.473  0.00  0.00    +0.000 A 
ATOM     20  C   UNL     1      -6.699  -0.640 123.905  0.00  0.00    +0.000 A 
ATOM     21  C   UNL     1      -7.271   0.637 123.894  0.00  0.00    +0.000 A 
ENDROOT
BRANCH   1  22
ATOM     22  C   UNL     1      -5.501   1.785 129.519  0.00  0.00    +0.000 C 
BRANCH  22  23
ATOM     23  C   UNL     1      -4.069   2.181 129.192  0.00  0.00    +0.000 C 
BRANCH  23  24
ATOM     24  O   UNL     1      -4.044   3.613 129.087  0.00  0.00    +0.000 OA
BRANCH  24  25
ATOM     25  C   UNL     1      -2.843   4.043 128.462  0.00  0.00    +0.000 C 
BRANCH  25  26
ATOM     26  C   UNL     1      -2.751   3.481 127.052  0.00  0.00    +0.000 C 
BRANCH  26  27
ATOM     27  O   UNL     1      -1.380   3.328 126.707  0.00  0.00    +0.000 OA
ATOM     28  H   UNL     1      -1.225   2.378 126.576  0.00  0.00    +0.000 HD
ENDBRANCH  26  27
ENDBRANCH  25  26
ENDBRANCH  24  25
ENDBRANCH  23  24
ENDBRANCH  22  23
ENDBRANCH   1  22
TORSDOF 6
ENDMDL
MODEL 4
REMARK VINA RESULT:      -6.9      4.291      6.795
REMARK  Name = Quetiapine
REMARK  6 active torsions:
REMARK  status: ('A' for Active; 'I' for Inactive)
REMARK    1  A    between atoms: O_1  and  C_2
REMARK    2  A    between atoms: C_2  and  C_3
REMARK    3  A    between atoms: C_3  and  O_4
REMARK    4  A    between atoms: O_4  and  C_5
REMARK    5  A    between atoms: C_5  and  C_6
REMARK    6  A    between atoms: C_6  and  N_7
REMARK                            x       y       z     vdW  Elec       q    Type
REMARK                         _______ _______ _______ _____ _____    ______ ____
ROOT
ATOM      1  N   UNL     1      -8.161   3.099 129.819  0.00  0.00    +0.000 NA
ATOM      2  C   UNL     1      -8.871   2.353 128.748  0.00  0.00    +0.000 C 
ATOM      3  C   UNL     1      -7.927   1.988 127.575  0.00  0.00    +0.000 C 
ATOM      4  N   UNL     1      -6.882   1.101 128.099  0.00  0.00    +0.000 N 
ATOM      5  C   UNL     1      -6.070   1.740 129.130  0.00  0.00    +0.000 C 
ATOM      6  C   UNL     1      -6.990   2.294 130.251  0.00  0.00    +0.000 C 
ATOM      7  C   UNL     1      -6.712  -0.171 127.555  0.00  0.00    +0.000 C 
ATOM      8  N   UNL     1      -6.499  -0.239 126.273  0.00  0.00    +0.000 NA
ATOM      9  C   UNL     1      -6.373  -1.444 125.546  0.00  0.00    +0.000 A 
ATOM     10  C   UNL     1      -5.288  -1.544 124.666  0.00  0.00    +0.000 A 
ATOM     11  C   UNL     1      -5.136  -2.650 123.823  0.00  0.00    +0.000 A 
ATOM     12  C   UNL     1      -6.070  -3.680 123.856  0.00  0.00    +0.000 A 
ATOM     13  C   UNL     1      -7.159  -3.599 124.723  0.00  0.00    +0.000 A 
ATOM     14  C   UNL     1      -7.326  -2.477 125.554  0.00  0.00    +0.000 A 
ATOM     15  S   UNL     1      -8.759  -2.414 126.624  0.00  0.00    +0.000 S 
ATOM     16  C   UNL     1      -7.868  -2.349 128.169  0.00  0.00    +0.000 A 
ATOM     17  C   UNL     1      -8.100  -3.386 129.089  0.00  0.00    +0.000 A 
ATOM     18  C   UNL     1      -7.379  -3.457 130.280  0.00  0.00    +0.000 A 
ATOM     19  C   UNL     1      -6.407  -2.506 130.552  0.00  0.00    +0.000 A 
ATOM     20  C   UNL     1      -6.171  -1.474 129.644  0.00  0.00    +0.000 A 
ATOM     21  C   UNL     1      -6.909  -1.363 128.460  0.00  0.00    +0.000 A 
ENDROOT
BRANCH   1  22
ATOM     22  C   UNL     1      -7.977   4.482 129.344  0.00  0.00    +0.000 C 
BRANCH  22  23
ATOM     23  C   UNL     1      -8.996   5.581 129.603  0.00  0.00    +0.000 C 
BRANCH  23  24
ATOM     24  O   UNL     1      -9.608   5.891 128.342  0.00  0.00    +0.000 OA
BRANCH  24  25
ATOM     25  C   UNL     1     -10.450   7.029 128.466  0.00  0.00    +0.000 C 
BRANCH  25  26
ATOM     26  C   UNL     1     -10.783   7.591 127.093  0.00  0.00    +0.000 C 
BRANCH  26  27
ATOM     27  O   UNL     1     -11.228   6.529 126.258  0.00  0.00    +0.000 OA
ATOM     28  H   UNL     1     -12.088   6.238 126.603  0.00  0.00    +0.000 HD
ENDBRANCH  26  27
ENDBRANCH  25  26
ENDBRANCH  24  25
ENDBRANCH  23  24
ENDBRANCH  22  23
ENDBRANCH   1  22
TORSDOF 6
ENDMDL
MODEL 5
REMARK VINA RESULT:      -6.9      3.386      5.292
REMARK  Name = Quetiapine
REMARK  6 active torsions:
REMARK  status: ('A' for Active; 'I' for Inactive)
REMARK    1  A    between atoms: O_1  and  C_2
REMARK    2  A    between atoms: C_2  and  C_3
REMARK    3  A    between atoms: C_3  and  O_4
REMARK    4  A    between atoms: O_4  and  C_5
REMARK    5  A    between atoms: C_5  and  C_6
REMARK    6  A    between atoms: C_6  and  N_7
REMARK                            x       y       z     vdW  Elec       q    Type
REMARK                         _______ _______ _______ _____ _____    ______ ____
ROOT
ATOM      1  N   UNL     1      -9.574   4.311 129.453  0.00  0.00    +0.000 NA
ATOM      2  C   UNL     1      -8.700   5.511 129.522  0.00  0.00    +0.000 C 
ATOM      3  C   UNL     1      -7.749   5.462 130.744  0.00  0.00    +0.000 C 
ATOM      4  N   UNL     1      -6.871   4.297 130.586  0.00  0.00    +0.000 N 
ATOM      5  C   UNL     1      -7.611   3.039 130.557  0.00  0.00    +0.000 C 
ATOM      6  C   UNL     1      -8.711   3.103 129.463  0.00  0.00    +0.000 C 
ATOM      7  C   UNL     1      -5.489   4.468 130.549  0.00  0.00    +0.000 C 
ATOM      8  N   UNL     1      -4.943   5.072 131.565  0.00  0.00    +0.000 NA
ATOM      9  C   UNL     1      -3.571   5.389 131.664  0.00  0.00    +0.000 A 
ATOM     10  C   UNL     1      -2.927   5.057 132.862  0.00  0.00    +0.000 A 
ATOM     11  C   UNL     1      -1.599   5.426 133.101  0.00  0.00    +0.000 A 
ATOM     12  C   UNL     1      -0.891   6.130 132.133  0.00  0.00    +0.000 A 
ATOM     13  C   UNL     1      -1.514   6.473 130.933  0.00  0.00    +0.000 A 
ATOM     14  C   UNL     1      -2.856   6.124 130.702  0.00  0.00    +0.000 A 
ATOM     15  S   UNL     1      -3.612   6.618 129.157  0.00  0.00    +0.000 S 
ATOM     16  C   UNL     1      -3.983   4.975 128.566  0.00  0.00    +0.000 A 
ATOM     17  C   UNL     1      -3.403   4.584 127.348  0.00  0.00    +0.000 A 
ATOM     18  C   UNL     1      -3.571   3.288 126.861  0.00  0.00    +0.000 A 
ATOM     19  C   UNL     1      -4.300   2.367 127.599  0.00  0.00    +0.000 A 
ATOM     20  C   UNL     1      -4.879   2.748 128.809  0.00  0.00    +0.000 A 
ATOM     21  C   UNL     1      -4.754   4.054 129.297  0.00  0.00    +0.000 A 
ENDROOT
BRANCH   1  22
ATOM     22  C   UNL     1     -10.631   4.478 130.467  0.00  0.00    +0.000 C 
BRANCH  22  23
ATOM     23  C   UNL     1     -11.640   5.616 130.421  0.00  0.00    +0.000 C 
BRANCH  23  24
ATOM     24  O   UNL     1     -12.109   5.705 129.066  0.00  0.00    +0.000 OA
BRANCH  24  25
ATOM     25  C   UNL     1     -12.123   7.059 128.634  0.00  0.00    +0.000 C 
BRANCH  25  26
ATOM     26  C   UNL     1     -12.680   7.156 127.223  0.00  0.00    +0.000 C 
BRANCH  26  27
ATOM     27  O   UNL     1     -11.752   6.567 126.321  0.00  0.00    +0.000 OA
ATOM     28  H   UNL     1     -11.305   5.851 126.802  0.00  0.00    +0.000 HD
ENDBRANCH  26  27
ENDBRANCH  25  26
ENDBRANCH  24  25
ENDBRANCH  23  24
ENDBRANCH  22  23
ENDBRANCH   1  22
TORSDOF 6
ENDMDL
MODEL 6
REMARK VINA RESULT:      -6.8      5.830      8.388
REMARK  Name = Quetiapine
REMARK  6 active torsions:
REMARK  status: ('A' for Active; 'I' for Inactive)
REMARK    1  A    between atoms: O_1  and  C_2
REMARK    2  A    between atoms: C_2  and  C_3
REMARK    3  A    between atoms: C_3  and  O_4
REMARK    4  A    between atoms: O_4  and  C_5
REMARK    5  A    between atoms: C_5  and  C_6
REMARK    6  A    between atoms: C_6  and  N_7
REMARK                            x       y       z     vdW  Elec       q    Type
REMARK                         _______ _______ _______ _____ _____    ______ ____
ROOT
ATOM      1  N   UNL     1      -7.552   2.110 129.599  0.00  0.00    +0.000 NA
ATOM      2  C   UNL     1      -8.316   2.649 128.444  0.00  0.00    +0.000 C 
ATOM      3  C   UNL     1      -7.433   3.537 127.531  0.00  0.00    +0.000 C 
ATOM      4  N   UNL     1      -6.361   2.695 126.986  0.00  0.00    +0.000 N 
ATOM      5  C   UNL     1      -5.499   2.143 128.026  0.00  0.00    +0.000 C 
ATOM      6  C   UNL     1      -6.361   1.394 129.078  0.00  0.00    +0.000 C 
ATOM      7  C   UNL     1      -6.219   2.558 125.606  0.00  0.00    +0.000 C 
ATOM      8  N   UNL     1      -6.072   3.652 124.918  0.00  0.00    +0.000 NA
ATOM      9  C   UNL     1      -5.982   3.705 123.510  0.00  0.00    +0.000 A 
ATOM     10  C   UNL     1      -4.944   4.473 122.967  0.00  0.00    +0.000 A 
ATOM     11  C   UNL     1      -4.835   4.677 121.588  0.00  0.00    +0.000 A 
ATOM     12  C   UNL     1      -5.765   4.105 120.727  0.00  0.00    +0.000 A 
ATOM     13  C   UNL     1      -6.808   3.339 121.246  0.00  0.00    +0.000 A 
ATOM     14  C   UNL     1      -6.933   3.153 122.634  0.00  0.00    +0.000 A 
ATOM     15  S   UNL     1      -8.310   2.186 123.245  0.00  0.00    +0.000 S 
ATOM     16  C   UNL     1      -7.341   0.909 124.031  0.00  0.00    +0.000 A 
ATOM     17  C   UNL     1      -7.525  -0.408 123.578  0.00  0.00    +0.000 A 
ATOM     18  C   UNL     1      -6.744  -1.449 124.078  0.00  0.00    +0.000 A 
ATOM     19  C   UNL     1      -5.759  -1.180 125.017  0.00  0.00    +0.000 A 
ATOM     20  C   UNL     1      -5.571   0.125 125.471  0.00  0.00    +0.000 A 
ATOM     21  C   UNL     1      -6.368   1.179 125.010  0.00  0.00    +0.000 A 
ENDROOT
BRANCH   1  22
ATOM     22  C   UNL     1      -7.394   3.206 130.571  0.00  0.00    +0.000 C 
BRANCH  22  23
ATOM     23  C   UNL     1      -8.516   4.179 130.902  0.00  0.00    +0.000 C 
BRANCH  23  24
ATOM     24  O   UNL     1      -8.063   5.487 130.521  0.00  0.00    +0.000 OA
BRANCH  24  25
ATOM     25  C   UNL     1      -8.517   6.460 131.452  0.00  0.00    +0.000 C 
BRANCH  25  26
ATOM     26  C   UNL     1      -9.102   5.782 132.680  0.00  0.00    +0.000 C 
BRANCH  26  27
ATOM     27  O   UNL     1     -10.309   6.443 133.038  0.00  0.00    +0.000 OA
ATOM     28  H   UNL     1     -10.977   6.190 132.380  0.00  0.00    +0.000 HD
ENDBRANCH  26  27
ENDBRANCH  25  26
ENDBRANCH  24  25
ENDBRANCH  23  24
ENDBRANCH  22  23
ENDBRANCH   1  22
TORSDOF 6
ENDMDL
MODEL 7
REMARK VINA RESULT:      -6.7      6.880     10.485
REMARK  Name = Quetiapine
REMARK  6 active torsions:
REMARK  status: ('A' for Active; 'I' for Inactive)
REMARK    1  A    between atoms: O_1  and  C_2
REMARK    2  A    between atoms: C_2  and  C_3
REMARK    3  A    between atoms: C_3  and  O_4
REMARK    4  A    between atoms: O_4  and  C_5
REMARK    5  A    between atoms: C_5  and  C_6
REMARK    6  A    between atoms: C_6  and  N_7
REMARK                            x       y       z     vdW  Elec       q    Type
REMARK                         _______ _______ _______ _____ _____    ______ ____
ROOT
ATOM      1  N   UNL     1      -4.074  -1.646 133.395  0.00  0.00    +0.000 NA
ATOM      2  C   UNL     1      -3.902  -1.323 131.955  0.00  0.00    +0.000 C 
ATOM      3  C   UNL     1      -4.664  -2.318 131.044  0.00  0.00    +0.000 C 
ATOM      4  N   UNL     1      -6.095  -2.200 131.346  0.00  0.00    +0.000 N 
ATOM      5  C   UNL     1      -6.406  -2.546 132.729  0.00  0.00    +0.000 C 
ATOM      6  C   UNL     1      -5.528  -1.701 133.691  0.00  0.00    +0.000 C 
ATOM      7  C   UNL     1      -6.992  -1.858 130.336  0.00  0.00    +0.000 C 
ATOM      8  N   UNL     1      -7.007  -2.618 129.280  0.00  0.00    +0.000 NA
ATOM      9  C   UNL     1      -7.801  -2.382 128.136  0.00  0.00    +0.000 A 
ATOM     10  C   UNL     1      -8.530  -3.467 127.633  0.00  0.00    +0.000 A 
ATOM     11  C   UNL     1      -9.259  -3.366 126.444  0.00  0.00    +0.000 A 
ATOM     12  C   UNL     1      -9.276  -2.165 125.742  0.00  0.00    +0.000 A 
ATOM     13  C   UNL     1      -8.556  -1.072 126.224  0.00  0.00    +0.000 A 
ATOM     14  C   UNL     1      -7.802  -1.180 127.406  0.00  0.00    +0.000 A 
ATOM     15  S   UNL     1      -6.873   0.245 127.959  0.00  0.00    +0.000 S 
ATOM     16  C   UNL     1      -7.702   0.444 129.527  0.00  0.00    +0.000 A 
ATOM     17  C   UNL     1      -8.363   1.664 129.755  0.00  0.00    +0.000 A 
ATOM     18  C   UNL     1      -9.107   1.865 130.916  0.00  0.00    +0.000 A 
ATOM     19  C   UNL     1      -9.216   0.844 131.848  0.00  0.00    +0.000 A 
ATOM     20  C   UNL     1      -8.564  -0.369 131.629  0.00  0.00    +0.000 A 
ATOM     21  C   UNL     1      -7.781  -0.579 130.488  0.00  0.00    +0.000 A 
ENDROOT
BRANCH   1  22
ATOM     22  C   UNL     1      -3.211  -2.803 133.691  0.00  0.00    +0.000 C 
BRANCH  22  23
ATOM     23  C   UNL     1      -1.993  -2.708 134.598  0.00  0.00    +0.000 C 
BRANCH  23  24
ATOM     24  O   UNL     1      -0.965  -2.043 133.848  0.00  0.00    +0.000 OA
BRANCH  24  25
ATOM     25  C   UNL     1       0.223  -1.939 134.621  0.00  0.00    +0.000 C 
BRANCH  25  26
ATOM     26  C   UNL     1       0.733  -3.322 134.995  0.00  0.00    +0.000 C 
BRANCH  26  27
ATOM     27  O   UNL     1       1.722  -3.717 134.052  0.00  0.00    +0.000 OA
ATOM     28  H   UNL     1       1.426  -4.557 133.666  0.00  0.00    +0.000 HD
ENDBRANCH  26  27
ENDBRANCH  25  26
ENDBRANCH  24  25
ENDBRANCH  23  24
ENDBRANCH  22  23
ENDBRANCH   1  22
TORSDOF 6
ENDMDL
MODEL 8
REMARK VINA RESULT:      -6.7      2.994      3.641
REMARK  Name = Quetiapine
REMARK  6 active torsions:
REMARK  status: ('A' for Active; 'I' for Inactive)
REMARK    1  A    between atoms: O_1  and  C_2
REMARK    2  A    between atoms: C_2  and  C_3
REMARK    3  A    between atoms: C_3  and  O_4
REMARK    4  A    between atoms: O_4  and  C_5
REMARK    5  A    between atoms: C_5  and  C_6
REMARK    6  A    between atoms: C_6  and  N_7
REMARK                            x       y       z     vdW  Elec       q    Type
REMARK                         _______ _______ _______ _____ _____    ______ ____
ROOT
ATOM      1  N   UNL     1     -10.525   5.348 131.514  0.00  0.00    +0.000 NA
ATOM      2  C   UNL     1      -9.853   4.097 131.079  0.00  0.00    +0.000 C 
ATOM      3  C   UNL     1      -9.104   4.281 129.735  0.00  0.00    +0.000 C 
ATOM      4  N   UNL     1      -8.055   5.287 129.939  0.00  0.00    +0.000 N 
ATOM      5  C   UNL     1      -8.594   6.588 130.321  0.00  0.00    +0.000 C 
ATOM      6  C   UNL     1      -9.511   6.431 131.565  0.00  0.00    +0.000 C 
ATOM      7  C   UNL     1      -6.722   4.960 129.698  0.00  0.00    +0.000 C 
ATOM      8  N   UNL     1      -6.431   4.512 128.511  0.00  0.00    +0.000 NA
ATOM      9  C   UNL     1      -5.150   4.071 128.114  0.00  0.00    +0.000 A 
ATOM     10  C   UNL     1      -4.657   4.561 126.899  0.00  0.00    +0.000 A 
ATOM     11  C   UNL     1      -3.448   4.101 126.366  0.00  0.00    +0.000 A 
ATOM     12  C   UNL     1      -2.707   3.145 127.052  0.00  0.00    +0.000 A 
ATOM     13  C   UNL     1      -3.181   2.641 128.264  0.00  0.00    +0.000 A 
ATOM     14  C   UNL     1      -4.408   3.084 128.788  0.00  0.00    +0.000 A 
ATOM     15  S   UNL     1      -4.980   2.380 130.331  0.00  0.00    +0.000 S 
ATOM     16  C   UNL     1      -5.017   3.905 131.259  0.00  0.00    +0.000 A 
ATOM     17  C   UNL     1      -4.206   3.979 132.405  0.00  0.00    +0.000 A 
ATOM     18  C   UNL     1      -4.111   5.163 133.135  0.00  0.00    +0.000 A 
ATOM     19  C   UNL     1      -4.806   6.287 132.714  0.00  0.00    +0.000 A 
ATOM     20  C   UNL     1      -5.612   6.221 131.578  0.00  0.00    +0.000 A 
ATOM     21  C   UNL     1      -5.751   5.032 130.852  0.00  0.00    +0.000 A 
ENDROOT
BRANCH   1  22
ATOM     22  C   UNL     1     -11.738   5.504 130.692  0.00  0.00    +0.000 C 
BRANCH  22  23
ATOM     23  C   UNL     1     -12.069   6.792 129.953  0.00  0.00    +0.000 C 
BRANCH  23  24
ATOM     24  O   UNL     1     -11.930   6.517 128.550  0.00  0.00    +0.000 OA
BRANCH  24  25
ATOM     25  C   UNL     1     -11.680   7.718 127.832  0.00  0.00    +0.000 C 
BRANCH  25  26
ATOM     26  C   UNL     1     -10.798   7.438 126.626  0.00  0.00    +0.000 C 
BRANCH  26  27
ATOM     27  O   UNL     1      -9.830   6.459 126.983  0.00  0.00    +0.000 OA
ATOM     28  H   UNL     1      -9.892   6.337 127.944  0.00  0.00    +0.000 HD
ENDBRANCH  26  27
ENDBRANCH  25  26
ENDBRANCH  24  25
ENDBRANCH  23  24
ENDBRANCH  22  23
ENDBRANCH   1  22
TORSDOF 6
ENDMDL
MODEL 9
REMARK VINA RESULT:      -6.6      3.448      7.101
REMARK  Name = Quetiapine
REMARK  6 active torsions:
REMARK  status: ('A' for Active; 'I' for Inactive)
REMARK    1  A    between atoms: O_1  and  C_2
REMARK    2  A    between atoms: C_2  and  C_3
REMARK    3  A    between atoms: C_3  and  O_4
REMARK    4  A    between atoms: O_4  and  C_5
REMARK    5  A    between atoms: C_5  and  C_6
REMARK    6  A    between atoms: C_6  and  N_7
REMARK                            x       y       z     vdW  Elec       q    Type
REMARK                         _______ _______ _______ _____ _____    ______ ____
ROOT
ATOM      1  N   UNL     1      -4.153   5.067 132.236  0.00  0.00    +0.000 NA
ATOM      2  C   UNL     1      -5.314   5.753 132.861  0.00  0.00    +0.000 C 
ATOM      3  C   UNL     1      -6.026   6.704 131.866  0.00  0.00    +0.000 C 
ATOM      4  N   UNL     1      -6.548   5.890 130.762  0.00  0.00    +0.000 N 
ATOM      5  C   UNL     1      -5.493   5.200 130.027  0.00  0.00    +0.000 C 
ATOM      6  C   UNL     1      -4.625   4.371 131.012  0.00  0.00    +0.000 C 
ATOM      7  C   UNL     1      -7.913   5.898 130.477  0.00  0.00    +0.000 C 
ATOM      8  N   UNL     1      -8.456   7.055 130.233  0.00  0.00    +0.000 NA
ATOM      9  C   UNL     1      -9.833   7.257 129.993  0.00  0.00    +0.000 A 
ATOM     10  C   UNL     1     -10.177   8.043 128.886  0.00  0.00    +0.000 A 
ATOM     11  C   UNL     1     -11.507   8.391 128.627  0.00  0.00    +0.000 A 
ATOM     12  C   UNL     1     -12.517   7.947 129.472  0.00  0.00    +0.000 A 
ATOM     13  C   UNL     1     -12.197   7.165 130.582  0.00  0.00    +0.000 A 
ATOM     14  C   UNL     1     -10.859   6.835 130.858  0.00  0.00    +0.000 A 
ATOM     15  S   UNL     1     -10.504   5.854 132.313  0.00  0.00    +0.000 S 
ATOM     16  C   UNL     1      -9.769   4.468 131.461  0.00  0.00    +0.000 A 
ATOM     17  C   UNL     1     -10.382   3.214 131.626  0.00  0.00    +0.000 A 
ATOM     18  C   UNL     1      -9.922   2.099 130.926  0.00  0.00    +0.000 A 
ATOM     19  C   UNL     1      -8.863   2.232 130.041  0.00  0.00    +0.000 A 
ATOM     20  C   UNL     1      -8.250   3.473 129.873  0.00  0.00    +0.000 A 
ATOM     21  C   UNL     1      -8.671   4.597 130.593  0.00  0.00    +0.000 A 
ENDROOT
BRANCH   1  22
ATOM     22  C   UNL     1      -3.054   6.046 132.157  0.00  0.00    +0.000 C 
BRANCH  22  23
ATOM     23  C   UNL     1      -1.882   5.888 131.201  0.00  0.00    +0.000 C 
BRANCH  23  24
ATOM     24  O   UNL     1      -2.021   6.906 130.198  0.00  0.00    +0.000 OA
BRANCH  24  25
ATOM     25  C   UNL     1      -2.212   6.318 128.918  0.00  0.00    +0.000 C 
BRANCH  25  26
ATOM     26  C   UNL     1      -3.004   7.255 128.020  0.00  0.00    +0.000 C 
BRANCH  26  27
ATOM     27  O   UNL     1      -3.999   7.906 128.800  0.00  0.00    +0.000 OA
ATOM     28  H   UNL     1      -4.537   7.210 129.211  0.00  0.00    +0.000 HD
ENDBRANCH  26  27
ENDBRANCH  25  26
ENDBRANCH  24  25
ENDBRANCH  23  24
ENDBRANCH  22  23
ENDBRANCH   1  22
TORSDOF 6
ENDMDL
