MODEL 1
REMARK VINA RESULT:      -8.9      0.000      0.000
REMARK  Name = Quinestrol
REMARK  5 active torsions:
REMARK  status: ('A' for Active; 'I' for Inactive)
REMARK    1  A    between atoms: C_5  and  O_6
REMARK    2  A    between atoms: C_5  and  C_7
REMARK    3  A    between atoms: C_9  and  C_10
REMARK    4  A    between atoms: C_22  and  O_23
REMARK    5  A    between atoms: O_23  and  C_24
REMARK                            x       y       z     vdW  Elec       q    Type
REMARK                         _______ _______ _______ _____ _____    ______ ____
ROOT
ATOM      1  C   UNL     1      -7.703  -3.173 124.535  0.00  0.00    +0.000 C 
ATOM      2  C   UNL     1      -8.930  -2.837 123.915  0.00  0.00    +0.000 C 
ATOM      3  C   UNL     1      -8.090  -1.749 124.476  0.00  0.00    +0.000 C 
ATOM      4  C   UNL     1      -6.093  -2.305 124.760  0.00  0.00    +0.000 C 
ATOM      5  C   UNL     1      -6.769  -1.689 123.753  0.00  0.00    +0.000 C 
ATOM      6  C   UNL     1      -6.523  -1.724 122.302  0.00  0.00    +0.000 C 
ATOM      7  C   UNL     1      -6.632  -0.142 124.736  0.00  0.00    +0.000 C 
ATOM      8  C   UNL     1      -6.631  -0.467 126.346  0.00  0.00    +0.000 C 
ATOM      9  C   UNL     1      -7.703  -1.487 126.941  0.00  0.00    +0.000 C 
ATOM     10  C   UNL     1      -7.677  -1.631 128.418  0.00  0.00    +0.000 A 
ATOM     11  C   UNL     1      -8.126  -2.819 128.980  0.00  0.00    +0.000 A 
ATOM     12  C   UNL     1      -8.648  -4.038 128.258  0.00  0.00    +0.000 C 
ATOM     13  C   UNL     1      -8.894  -3.796 126.801  0.00  0.00    +0.000 C 
ATOM     14  C   UNL     1      -7.701  -3.023 126.300  0.00  0.00    +0.000 C 
ATOM     15  C   UNL     1      -7.999  -2.930 130.333  0.00  0.00    +0.000 A 
ATOM     16  C   UNL     1      -7.594  -1.880 131.155  0.00  0.00    +0.000 A 
ATOM     17  C   UNL     1      -7.255  -0.666 130.587  0.00  0.00    +0.000 A 
ATOM     18  C   UNL     1      -7.301  -0.542 129.215  0.00  0.00    +0.000 A 
ENDROOT
BRANCH   4  19
ATOM     19  O   UNL     1      -4.829  -1.612 124.439  0.00  0.00    +0.000 OA
ATOM     20  H   UNL     1      -4.161  -1.475 125.119  0.00  0.00    +0.000 HD
ENDBRANCH   4  19
BRANCH   4  21
ATOM     21  C   UNL     1      -5.477  -3.692 124.233  0.00  0.00    +0.000 C 
ATOM     22  C   UNL     1      -4.916  -4.713 123.852  0.00  0.00    +0.000 C 
ENDBRANCH   4  21
BRANCH  16  23
ATOM     23  O   UNL     1      -7.515  -1.968 132.513  0.00  0.00    +0.000 OA
BRANCH  23  24
ATOM     24  C   UNL     1      -7.601  -3.270 133.091  0.00  0.00    +0.000 C 
ATOM     25  C   UNL     1      -6.242  -3.956 133.315  0.00  0.00    +0.000 C 
ATOM     26  C   UNL     1      -6.523  -4.977 134.397  0.00  0.00    +0.000 C 
ATOM     27  C   UNL     1      -7.642  -4.391 135.262  0.00  0.00    +0.000 C 
ATOM     28  C   UNL     1      -8.367  -3.337 134.426  0.00  0.00    +0.000 C 
ENDBRANCH  23  24
ENDBRANCH  16  23
TORSDOF 4
ENDMDL
MODEL 2
REMARK VINA RESULT:      -8.4      2.418      3.368
REMARK  Name = Quinestrol
REMARK  5 active torsions:
REMARK  status: ('A' for Active; 'I' for Inactive)
REMARK    1  A    between atoms: C_5  and  O_6
REMARK    2  A    between atoms: C_5  and  C_7
REMARK    3  A    between atoms: C_9  and  C_10
REMARK    4  A    between atoms: C_22  and  O_23
REMARK    5  A    between atoms: O_23  and  C_24
REMARK                            x       y       z     vdW  Elec       q    Type
REMARK                         _______ _______ _______ _____ _____    ______ ____
ROOT
ATOM      1  C   UNL     1      -7.999  -3.220 124.872  0.00  0.00    +0.000 C 
ATOM      2  C   UNL     1      -9.333  -3.527 124.514  0.00  0.00    +0.000 C 
ATOM      3  C   UNL     1      -8.899  -2.107 124.507  0.00  0.00    +0.000 C 
ATOM      4  C   UNL     1      -6.822  -1.875 124.421  0.00  0.00    +0.000 C 
ATOM      5  C   UNL     1      -7.809  -1.903 123.487  0.00  0.00    +0.000 C 
ATOM      6  C   UNL     1      -7.766  -2.379 122.094  0.00  0.00    +0.000 C 
ATOM      7  C   UNL     1      -8.137  -0.147 123.916  0.00  0.00    +0.000 C 
ATOM      8  C   UNL     1      -7.796   0.145 125.496  0.00  0.00    +0.000 C 
ATOM      9  C   UNL     1      -8.312  -0.871 126.611  0.00  0.00    +0.000 C 
ATOM     10  C   UNL     1      -8.035  -0.460 128.009  0.00  0.00    +0.000 A 
ATOM     11  C   UNL     1      -7.922  -1.444 128.983  0.00  0.00    +0.000 A 
ATOM     12  C   UNL     1      -8.035  -2.938 128.799  0.00  0.00    +0.000 C 
ATOM     13  C   UNL     1      -8.549  -3.324 127.446  0.00  0.00    +0.000 C 
ATOM     14  C   UNL     1      -7.816  -2.453 126.458  0.00  0.00    +0.000 C 
ATOM     15  C   UNL     1      -7.581  -1.016 130.233  0.00  0.00    +0.000 A 
ATOM     16  C   UNL     1      -7.497   0.328 130.587  0.00  0.00    +0.000 A 
ATOM     17  C   UNL     1      -7.721   1.298 129.629  0.00  0.00    +0.000 A 
ATOM     18  C   UNL     1      -7.995   0.901 128.338  0.00  0.00    +0.000 A 
ENDROOT
BRANCH   4  19
ATOM     19  O   UNL     1      -5.970  -0.988 123.605  0.00  0.00    +0.000 OA
ATOM     20  H   UNL     1      -6.284  -0.650 122.759  0.00  0.00    +0.000 HD
ENDBRANCH   4  19
BRANCH   4  21
ATOM     21  C   UNL     1      -5.805  -3.094 124.176  0.00  0.00    +0.000 C 
ATOM     22  C   UNL     1      -4.966  -3.957 123.944  0.00  0.00    +0.000 C 
ENDBRANCH   4  21
BRANCH  16  23
ATOM     23  O   UNL     1      -7.208   0.763 131.847  0.00  0.00    +0.000 OA
BRANCH  23  24
ATOM     24  C   UNL     1      -7.658   2.068 132.209  0.00  0.00    +0.000 C 
ATOM     25  C   UNL     1      -9.119   2.127 132.684  0.00  0.00    +0.000 C 
ATOM     26  C   UNL     1      -9.183   3.391 133.515  0.00  0.00    +0.000 C 
ATOM     27  C   UNL     1      -7.793   3.571 134.132  0.00  0.00    +0.000 C 
ATOM     28  C   UNL     1      -6.805   2.772 133.281  0.00  0.00    +0.000 C 
ENDBRANCH  23  24
ENDBRANCH  16  23
TORSDOF 4
ENDMDL
MODEL 3
REMARK VINA RESULT:      -8.3      4.180      6.549
REMARK  Name = Quinestrol
REMARK  5 active torsions:
REMARK  status: ('A' for Active; 'I' for Inactive)
REMARK    1  A    between atoms: C_5  and  O_6
REMARK    2  A    between atoms: C_5  and  C_7
REMARK    3  A    between atoms: C_9  and  C_10
REMARK    4  A    between atoms: C_22  and  O_23
REMARK    5  A    between atoms: O_23  and  C_24
REMARK                            x       y       z     vdW  Elec       q    Type
REMARK                         _______ _______ _______ _____ _____    ______ ____
ROOT
ATOM      1  C   UNL     1      -7.417  -2.136 125.592  0.00  0.00    +0.000 C 
ATOM      2  C   UNL     1      -8.671  -2.155 126.247  0.00  0.00    +0.000 C 
ATOM      3  C   UNL     1      -8.455  -1.188 125.141  0.00  0.00    +0.000 C 
ATOM      4  C   UNL     1      -6.859  -1.700 123.890  0.00  0.00    +0.000 C 
ATOM      5  C   UNL     1      -8.200  -1.923 123.851  0.00  0.00    +0.000 C 
ATOM      6  C   UNL     1      -8.943  -3.065 123.292  0.00  0.00    +0.000 C 
ATOM      7  C   UNL     1      -8.369  -0.219 123.185  0.00  0.00    +0.000 C 
ATOM      8  C   UNL     1      -7.191   0.762 123.774  0.00  0.00    +0.000 C 
ATOM      9  C   UNL     1      -6.856   0.737 125.333  0.00  0.00    +0.000 C 
ATOM     10  C   UNL     1      -5.847   1.731 125.773  0.00  0.00    +0.000 A 
ATOM     11  C   UNL     1      -5.093   1.460 126.908  0.00  0.00    +0.000 A 
ATOM     12  C   UNL     1      -5.158   0.230 127.782  0.00  0.00    +0.000 C 
ATOM     13  C   UNL     1      -6.332  -0.647 127.474  0.00  0.00    +0.000 C 
ATOM     14  C   UNL     1      -6.405  -0.733 125.971  0.00  0.00    +0.000 C 
ATOM     15  C   UNL     1      -4.122   2.367 127.216  0.00  0.00    +0.000 A 
ATOM     16  C   UNL     1      -3.967   3.581 126.551  0.00  0.00    +0.000 A 
ATOM     17  C   UNL     1      -4.800   3.885 125.491  0.00  0.00    +0.000 A 
ATOM     18  C   UNL     1      -5.745   2.958 125.105  0.00  0.00    +0.000 A 
ENDROOT
BRANCH   4  19
ATOM     19  O   UNL     1      -6.736  -1.718 122.419  0.00  0.00    +0.000 OA
ATOM     20  H   UNL     1      -7.112  -1.008 121.888  0.00  0.00    +0.000 HD
ENDBRANCH   4  19
BRANCH   4  21
ATOM     21  C   UNL     1      -6.076  -3.100 123.982  0.00  0.00    +0.000 C 
ATOM     22  C   UNL     1      -5.412  -4.130 123.987  0.00  0.00    +0.000 C 
ENDBRANCH   4  21
BRANCH  16  23
ATOM     23  O   UNL     1      -3.033   4.515 126.888  0.00  0.00    +0.000 OA
BRANCH  23  24
ATOM     24  C   UNL     1      -3.245   5.249 128.093  0.00  0.00    +0.000 C 
ATOM     25  C   UNL     1      -3.115   4.413 129.377  0.00  0.00    +0.000 C 
ATOM     26  C   UNL     1      -2.808   5.437 130.449  0.00  0.00    +0.000 C 
ATOM     27  C   UNL     1      -2.035   6.565 129.760  0.00  0.00    +0.000 C 
ATOM     28  C   UNL     1      -2.343   6.486 128.264  0.00  0.00    +0.000 C 
ENDBRANCH  23  24
ENDBRANCH  16  23
TORSDOF 4
ENDMDL
MODEL 4
REMARK VINA RESULT:      -8.2      1.463      2.779
REMARK  Name = Quinestrol
REMARK  5 active torsions:
REMARK  status: ('A' for Active; 'I' for Inactive)
REMARK    1  A    between atoms: C_5  and  O_6
REMARK    2  A    between atoms: C_5  and  C_7
REMARK    3  A    between atoms: C_9  and  C_10
REMARK    4  A    between atoms: C_22  and  O_23
REMARK    5  A    between atoms: O_23  and  C_24
REMARK                            x       y       z     vdW  Elec       q    Type
REMARK                         _______ _______ _______ _____ _____    ______ ____
ROOT
ATOM      1  C   UNL     1      -6.410  -1.739 124.173  0.00  0.00    +0.000 C 
ATOM      2  C   UNL     1      -5.739  -2.841 123.589  0.00  0.00    +0.000 C 
ATOM      3  C   UNL     1      -7.093  -3.048 124.160  0.00  0.00    +0.000 C 
ATOM      4  C   UNL     1      -8.181  -1.275 124.385  0.00  0.00    +0.000 C 
ATOM      5  C   UNL     1      -8.105  -2.221 123.410  0.00  0.00    +0.000 C 
ATOM      6  C   UNL     1      -8.264  -2.077 121.953  0.00  0.00    +0.000 C 
ATOM      7  C   UNL     1      -9.254  -3.228 124.430  0.00  0.00    +0.000 C 
ATOM      8  C   UNL     1      -9.032  -2.934 126.030  0.00  0.00    +0.000 C 
ATOM      9  C   UNL     1      -7.551  -2.893 126.622  0.00  0.00    +0.000 C 
ATOM     10  C   UNL     1      -7.470  -2.719 128.093  0.00  0.00    +0.000 A 
ATOM     11  C   UNL     1      -6.332  -2.133 128.634  0.00  0.00    +0.000 A 
ATOM     12  C   UNL     1      -5.122  -1.618 127.892  0.00  0.00    +0.000 C 
ATOM     13  C   UNL     1      -5.109  -2.013 126.447  0.00  0.00    +0.000 C 
ATOM     14  C   UNL     1      -6.510  -1.788 125.940  0.00  0.00    +0.000 C 
ATOM     15  C   UNL     1      -6.348  -1.919 129.981  0.00  0.00    +0.000 A 
ATOM     16  C   UNL     1      -7.357  -2.386 130.820  0.00  0.00    +0.000 A 
ATOM     17  C   UNL     1      -8.431  -3.065 130.278  0.00  0.00    +0.000 A 
ATOM     18  C   UNL     1      -8.484  -3.235 128.911  0.00  0.00    +0.000 A 
ENDROOT
BRANCH   4  19
ATOM     19  O   UNL     1      -9.579  -0.936 124.055  0.00  0.00    +0.000 OA
ATOM     20  H   UNL     1      -9.923  -0.053 124.231  0.00  0.00    +0.000 HD
ENDBRANCH   4  19
BRANCH   4  21
ATOM     21  C   UNL     1      -7.691   0.142 123.808  0.00  0.00    +0.000 C 
ATOM     22  C   UNL     1      -7.415   1.251 123.366  0.00  0.00    +0.000 C 
ENDBRANCH   4  21
BRANCH  16  23
ATOM     23  O   UNL     1      -7.353  -2.221 132.174  0.00  0.00    +0.000 OA
BRANCH  23  24
ATOM     24  C   UNL     1      -7.554  -3.384 132.977  0.00  0.00    +0.000 C 
ATOM     25  C   UNL     1      -6.271  -4.176 133.280  0.00  0.00    +0.000 C 
ATOM     26  C   UNL     1      -6.610  -4.954 134.533  0.00  0.00    +0.000 C 
ATOM     27  C   UNL     1      -7.613  -4.099 135.313  0.00  0.00    +0.000 C 
ATOM     28  C   UNL     1      -8.256  -3.127 134.323  0.00  0.00    +0.000 C 
ENDBRANCH  23  24
ENDBRANCH  16  23
TORSDOF 4
ENDMDL
MODEL 5
REMARK VINA RESULT:      -8.1      2.775      4.606
REMARK  Name = Quinestrol
REMARK  5 active torsions:
REMARK  status: ('A' for Active; 'I' for Inactive)
REMARK    1  A    between atoms: C_5  and  O_6
REMARK    2  A    between atoms: C_5  and  C_7
REMARK    3  A    between atoms: C_9  and  C_10
REMARK    4  A    between atoms: C_22  and  O_23
REMARK    5  A    between atoms: O_23  and  C_24
REMARK                            x       y       z     vdW  Elec       q    Type
REMARK                         _______ _______ _______ _____ _____    ______ ____
ROOT
ATOM      1  C   UNL     1      -6.857  -1.211 125.296  0.00  0.00    +0.000 C 
ATOM      2  C   UNL     1      -5.705  -1.970 124.981  0.00  0.00    +0.000 C 
ATOM      3  C   UNL     1      -6.755  -2.583 125.833  0.00  0.00    +0.000 C 
ATOM      4  C   UNL     1      -8.611  -1.631 125.677  0.00  0.00    +0.000 C 
ATOM      5  C   UNL     1      -8.044  -2.702 125.062  0.00  0.00    +0.000 C 
ATOM      6  C   UNL     1      -8.242  -3.209 123.693  0.00  0.00    +0.000 C 
ATOM      7  C   UNL     1      -8.504  -3.679 126.549  0.00  0.00    +0.000 C 
ATOM      8  C   UNL     1      -8.481  -2.743 127.897  0.00  0.00    +0.000 C 
ATOM      9  C   UNL     1      -7.246  -1.768 128.155  0.00  0.00    +0.000 C 
ATOM     10  C   UNL     1      -7.279  -1.043 129.449  0.00  0.00    +0.000 A 
ATOM     11  C   UNL     1      -6.621   0.176 129.548  0.00  0.00    +0.000 A 
ATOM     12  C   UNL     1      -5.853   0.897 128.466  0.00  0.00    +0.000 C 
ATOM     13  C   UNL     1      -5.624   0.054 127.249  0.00  0.00    +0.000 C 
ATOM     14  C   UNL     1      -6.932  -0.641 126.971  0.00  0.00    +0.000 C 
ATOM     15  C   UNL     1      -6.757   0.839 130.732  0.00  0.00    +0.000 A 
ATOM     16  C   UNL     1      -7.379   0.290 131.851  0.00  0.00    +0.000 A 
ATOM     17  C   UNL     1      -7.935  -0.972 131.768  0.00  0.00    +0.000 A 
ATOM     18  C   UNL     1      -7.881  -1.641 130.564  0.00  0.00    +0.000 A 
ENDROOT
BRANCH   4  19
ATOM     19  O   UNL     1      -9.977  -2.168 125.525  0.00  0.00    +0.000 OA
ATOM     20  H   UNL     1     -10.725  -1.574 125.400  0.00  0.00    +0.000 HD
ENDBRANCH   4  19
BRANCH   4  21
ATOM     21  C   UNL     1      -8.930  -0.487 124.594  0.00  0.00    +0.000 C 
ATOM     22  C   UNL     1      -9.248   0.325 123.733  0.00  0.00    +0.000 C 
ENDBRANCH   4  21
BRANCH  16  23
ATOM     23  O   UNL     1      -7.473   0.926 133.054  0.00  0.00    +0.000 OA
BRANCH  23  24
ATOM     24  C   UNL     1      -7.771   2.322 133.035  0.00  0.00    +0.000 C 
ATOM     25  C   UNL     1      -9.273   2.650 133.005  0.00  0.00    +0.000 C 
ATOM     26  C   UNL     1      -9.350   4.059 133.554  0.00  0.00    +0.000 C 
ATOM     27  C   UNL     1      -8.189   4.201 134.542  0.00  0.00    +0.000 C 
ATOM     28  C   UNL     1      -7.154   3.131 134.192  0.00  0.00    +0.000 C 
ENDBRANCH  23  24
ENDBRANCH  16  23
TORSDOF 4
ENDMDL
MODEL 6
REMARK VINA RESULT:      -8.0      9.765     11.830
REMARK  Name = Quinestrol
REMARK  5 active torsions:
REMARK  status: ('A' for Active; 'I' for Inactive)
REMARK    1  A    between atoms: C_5  and  O_6
REMARK    2  A    between atoms: C_5  and  C_7
REMARK    3  A    between atoms: C_9  and  C_10
REMARK    4  A    between atoms: C_22  and  O_23
REMARK    5  A    between atoms: O_23  and  C_24
REMARK                            x       y       z     vdW  Elec       q    Type
REMARK                         _______ _______ _______ _____ _____    ______ ____
ROOT
ATOM      1  C   UNL     1      -2.778   5.491 133.631  0.00  0.00    +0.000 C 
ATOM      2  C   UNL     1      -2.192   4.356 133.022  0.00  0.00    +0.000 C 
ATOM      3  C   UNL     1      -2.630   5.483 132.161  0.00  0.00    +0.000 C 
ATOM      4  C   UNL     1      -2.862   7.282 133.204  0.00  0.00    +0.000 C 
ATOM      5  C   UNL     1      -1.844   6.725 132.494  0.00  0.00    +0.000 C 
ATOM      6  C   UNL     1      -0.390   6.859 132.681  0.00  0.00    +0.000 C 
ATOM      7  C   UNL     1      -2.701   7.321 130.981  0.00  0.00    +0.000 C 
ATOM      8  C   UNL     1      -4.328   7.342 131.197  0.00  0.00    +0.000 C 
ATOM      9  C   UNL     1      -5.048   6.084 131.861  0.00  0.00    +0.000 C 
ATOM     10  C   UNL     1      -6.528   6.166 131.917  0.00  0.00    +0.000 A 
ATOM     11  C   UNL     1      -7.199   5.462 132.909  0.00  0.00    +0.000 A 
ATOM     12  C   UNL     1      -6.596   4.597 133.990  0.00  0.00    +0.000 C 
ATOM     13  C   UNL     1      -5.137   4.328 133.780  0.00  0.00    +0.000 C 
ATOM     14  C   UNL     1      -4.524   5.646 133.379  0.00  0.00    +0.000 C 
ATOM     15  C   UNL     1      -8.549   5.643 132.968  0.00  0.00    +0.000 A 
ATOM     16  C   UNL     1      -9.269   6.358 132.013  0.00  0.00    +0.000 A 
ATOM     17  C   UNL     1      -8.597   6.963 130.968  0.00  0.00    +0.000 A 
ATOM     18  C   UNL     1      -7.223   6.862 130.920  0.00  0.00    +0.000 A 
ENDROOT
BRANCH   4  19
ATOM     19  O   UNL     1      -2.431   8.658 132.889  0.00  0.00    +0.000 OA
ATOM     20  H   UNL     1      -3.018   9.258 132.414  0.00  0.00    +0.000 HD
ENDBRANCH   4  19
BRANCH   4  21
ATOM     21  C   UNL     1      -2.412   7.482 134.734  0.00  0.00    +0.000 C 
ATOM     22  C   UNL     1      -2.160   7.597 135.928  0.00  0.00    +0.000 C 
ENDBRANCH   4  21
BRANCH  16  23
ATOM     23  O   UNL     1     -10.625   6.499 132.037  0.00  0.00    +0.000 OA
BRANCH  23  24
ATOM     24  C   UNL     1     -11.263   6.910 130.828  0.00  0.00    +0.000 C 
ATOM     25  C   UNL     1     -11.605   5.759 129.867  0.00  0.00    +0.000 C 
ATOM     26  C   UNL     1     -12.718   6.320 129.007  0.00  0.00    +0.000 C 
ATOM     27  C   UNL     1     -13.481   7.315 129.886  0.00  0.00    +0.000 C 
ATOM     28  C   UNL     1     -12.549   7.736 131.022  0.00  0.00    +0.000 C 
ENDBRANCH  23  24
ENDBRANCH  16  23
TORSDOF 4
ENDMDL
MODEL 7
REMARK VINA RESULT:      -7.9      7.365     10.527
REMARK  Name = Quinestrol
REMARK  5 active torsions:
REMARK  status: ('A' for Active; 'I' for Inactive)
REMARK    1  A    between atoms: C_5  and  O_6
REMARK    2  A    between atoms: C_5  and  C_7
REMARK    3  A    between atoms: C_9  and  C_10
REMARK    4  A    between atoms: C_22  and  O_23
REMARK    5  A    between atoms: O_23  and  C_24
REMARK                            x       y       z     vdW  Elec       q    Type
REMARK                         _______ _______ _______ _____ _____    ______ ____
ROOT
ATOM      1  C   UNL     1      -3.649   3.972 130.630  0.00  0.00    +0.000 C 
ATOM      2  C   UNL     1      -2.883   4.613 129.627  0.00  0.00    +0.000 C 
ATOM      3  C   UNL     1      -3.498   5.440 130.696  0.00  0.00    +0.000 C 
ATOM      4  C   UNL     1      -4.023   4.340 132.396  0.00  0.00    +0.000 C 
ATOM      5  C   UNL     1      -2.927   5.060 132.038  0.00  0.00    +0.000 C 
ATOM      6  C   UNL     1      -1.514   4.858 132.401  0.00  0.00    +0.000 C 
ATOM      7  C   UNL     1      -3.866   6.560 132.535  0.00  0.00    +0.000 C 
ATOM      8  C   UNL     1      -5.476   6.356 132.283  0.00  0.00    +0.000 C 
ATOM      9  C   UNL     1      -5.981   5.738 130.902  0.00  0.00    +0.000 C 
ATOM     10  C   UNL     1      -7.455   5.690 130.740  0.00  0.00    +0.000 A 
ATOM     11  C   UNL     1      -8.003   4.727 129.903  0.00  0.00    +0.000 A 
ATOM     12  C   UNL     1      -7.269   3.670 129.113  0.00  0.00    +0.000 C 
ATOM     13  C   UNL     1      -5.786   3.878 129.093  0.00  0.00    +0.000 C 
ATOM     14  C   UNL     1      -5.396   4.231 130.506  0.00  0.00    +0.000 C 
ATOM     15  C   UNL     1      -9.365   4.673 129.859  0.00  0.00    +0.000 A 
ATOM     16  C   UNL     1     -10.191   5.609 130.478  0.00  0.00    +0.000 A 
ATOM     17  C   UNL     1      -9.624   6.628 131.219  0.00  0.00    +0.000 A 
ATOM     18  C   UNL     1      -8.252   6.670 131.346  0.00  0.00    +0.000 A 
ENDROOT
BRANCH   4  19
ATOM     19  O   UNL     1      -3.823   4.607 133.834  0.00  0.00    +0.000 OA
ATOM     20  H   UNL     1      -3.641   3.884 134.445  0.00  0.00    +0.000 HD
ENDBRANCH   4  19
BRANCH   4  21
ATOM     21  C   UNL     1      -3.616   2.802 132.616  0.00  0.00    +0.000 C 
ATOM     22  C   UNL     1      -3.286   1.651 132.880  0.00  0.00    +0.000 C 
ENDBRANCH   4  21
BRANCH  16  23
ATOM     23  O   UNL     1     -11.552   5.591 130.395  0.00  0.00    +0.000 OA
BRANCH  23  24
ATOM     24  C   UNL     1     -12.171   6.585 129.580  0.00  0.00    +0.000 C 
ATOM     25  C   UNL     1     -12.682   7.812 130.353  0.00  0.00    +0.000 C 
ATOM     26  C   UNL     1     -12.748   8.903 129.305  0.00  0.00    +0.000 C 
ATOM     27  C   UNL     1     -11.642   8.594 128.292  0.00  0.00    +0.000 C 
ATOM     28  C   UNL     1     -11.299   7.110 128.423  0.00  0.00    +0.000 C 
ENDBRANCH  23  24
ENDBRANCH  16  23
TORSDOF 4
ENDMDL
MODEL 8
REMARK VINA RESULT:      -7.8      8.497     11.210
REMARK  Name = Quinestrol
REMARK  5 active torsions:
REMARK  status: ('A' for Active; 'I' for Inactive)
REMARK    1  A    between atoms: C_5  and  O_6
REMARK    2  A    between atoms: C_5  and  C_7
REMARK    3  A    between atoms: C_9  and  C_10
REMARK    4  A    between atoms: C_22  and  O_23
REMARK    5  A    between atoms: O_23  and  C_24
REMARK                            x       y       z     vdW  Elec       q    Type
REMARK                         _______ _______ _______ _____ _____    ______ ____
ROOT
ATOM      1  C   UNL     1      -4.322   5.257 133.543  0.00  0.00    +0.000 C 
ATOM      2  C   UNL     1      -4.100   4.065 134.272  0.00  0.00    +0.000 C 
ATOM      3  C   UNL     1      -4.337   3.976 132.809  0.00  0.00    +0.000 C 
ATOM      4  C   UNL     1      -4.009   5.781 131.803  0.00  0.00    +0.000 C 
ATOM      5  C   UNL     1      -3.240   4.689 132.061  0.00  0.00    +0.000 C 
ATOM      6  C   UNL     1      -1.786   4.598 132.273  0.00  0.00    +0.000 C 
ATOM      7  C   UNL     1      -4.080   3.880 130.641  0.00  0.00    +0.000 C 
ATOM      8  C   UNL     1      -5.621   4.425 130.481  0.00  0.00    +0.000 C 
ATOM      9  C   UNL     1      -6.552   4.535 131.771  0.00  0.00    +0.000 C 
ATOM     10  C   UNL     1      -7.952   4.943 131.499  0.00  0.00    +0.000 A 
ATOM     11  C   UNL     1      -8.666   5.588 132.501  0.00  0.00    +0.000 A 
ATOM     12  C   UNL     1      -8.182   5.956 133.884  0.00  0.00    +0.000 C 
ATOM     13  C   UNL     1      -6.864   5.332 134.228  0.00  0.00    +0.000 C 
ATOM     14  C   UNL     1      -5.993   5.497 133.009  0.00  0.00    +0.000 C 
ATOM     15  C   UNL     1      -9.917   6.017 132.168  0.00  0.00    +0.000 A 
ATOM     16  C   UNL     1     -10.537   5.710 130.959  0.00  0.00    +0.000 A 
ATOM     17  C   UNL     1      -9.852   4.971 130.014  0.00  0.00    +0.000 A 
ATOM     18  C   UNL     1      -8.557   4.584 130.288  0.00  0.00    +0.000 A 
ENDROOT
BRANCH   4  19
ATOM     19  O   UNL     1      -3.291   6.087 130.551  0.00  0.00    +0.000 OA
ATOM     20  H   UNL     1      -2.329   6.034 130.513  0.00  0.00    +0.000 HD
ENDBRANCH   4  19
BRANCH   4  21
ATOM     21  C   UNL     1      -3.365   7.077 132.500  0.00  0.00    +0.000 C 
ATOM     22  C   UNL     1      -2.807   8.070 132.955  0.00  0.00    +0.000 C 
ENDBRANCH   4  21
BRANCH  16  23
ATOM     23  O   UNL     1     -11.807   6.092 130.641  0.00  0.00    +0.000 OA
BRANCH  23  24
ATOM     24  C   UNL     1     -11.980   6.868 129.456  0.00  0.00    +0.000 C 
ATOM     25  C   UNL     1     -13.241   6.519 128.648  0.00  0.00    +0.000 C 
ATOM     26  C   UNL     1     -13.510   7.767 127.834  0.00  0.00    +0.000 C 
ATOM     27  C   UNL     1     -13.002   8.945 128.671  0.00  0.00    +0.000 C 
ATOM     28  C   UNL     1     -11.990   8.392 129.676  0.00  0.00    +0.000 C 
ENDBRANCH  23  24
ENDBRANCH  16  23
TORSDOF 4
ENDMDL
MODEL 9
REMARK VINA RESULT:      -7.8     10.578     12.826
REMARK  Name = Quinestrol
REMARK  5 active torsions:
REMARK  status: ('A' for Active; 'I' for Inactive)
REMARK    1  A    between atoms: C_5  and  O_6
REMARK    2  A    between atoms: C_5  and  C_7
REMARK    3  A    between atoms: C_9  and  C_10
REMARK    4  A    between atoms: C_22  and  O_23
REMARK    5  A    between atoms: O_23  and  C_24
REMARK                            x       y       z     vdW  Elec       q    Type
REMARK                         _______ _______ _______ _____ _____    ______ ____
ROOT
ATOM      1  C   UNL     1      -3.552   4.108 130.505  0.00  0.00    +0.000 C 
ATOM      2  C   UNL     1      -4.385   3.376 131.384  0.00  0.00    +0.000 C 
ATOM      3  C   UNL     1      -4.710   4.798 131.109  0.00  0.00    +0.000 C 
ATOM      4  C   UNL     1      -3.820   5.530 129.362  0.00  0.00    +0.000 C 
ATOM      5  C   UNL     1      -5.031   4.983 129.648  0.00  0.00    +0.000 C 
ATOM      6  C   UNL     1      -5.911   4.163 128.799  0.00  0.00    +0.000 C 
ATOM      7  C   UNL     1      -5.528   6.641 130.266  0.00  0.00    +0.000 C 
ATOM      8  C   UNL     1      -4.240   7.444 130.893  0.00  0.00    +0.000 C 
ATOM      9  C   UNL     1      -3.248   6.685 131.884  0.00  0.00    +0.000 C 
ATOM     10  C   UNL     1      -2.178   7.530 132.469  0.00  0.00    +0.000 A 
ATOM     11  C   UNL     1      -0.992   6.926 132.865  0.00  0.00    +0.000 A 
ATOM     12  C   UNL     1      -0.626   5.464 132.764  0.00  0.00    +0.000 C 
ATOM     13  C   UNL     1      -1.790   4.593 132.401  0.00  0.00    +0.000 C 
ATOM     14  C   UNL     1      -2.518   5.310 131.294  0.00  0.00    +0.000 C 
ATOM     15  C   UNL     1      -0.012   7.761 133.314  0.00  0.00    +0.000 A 
ATOM     16  C   UNL     1      -0.203   9.125 133.525  0.00  0.00    +0.000 A 
ATOM     17  C   UNL     1      -1.428   9.692 133.229  0.00  0.00    +0.000 A 
ATOM     18  C   UNL     1      -2.418   8.890 132.703  0.00  0.00    +0.000 A 
ENDROOT
BRANCH   4  19
ATOM     19  O   UNL     1      -4.360   6.341 128.254  0.00  0.00    +0.000 OA
ATOM     20  H   UNL     1      -4.014   6.240 127.360  0.00  0.00    +0.000 HD
ENDBRANCH   4  19
BRANCH   4  21
ATOM     21  C   UNL     1      -3.037   4.600 128.312  0.00  0.00    +0.000 C 
ATOM     22  C   UNL     1      -2.491   3.937 127.437  0.00  0.00    +0.000 C 
ENDBRANCH   4  21
BRANCH  16  23
ATOM     23  O   UNL     1       0.756   9.956 134.023  0.00  0.00    +0.000 OA
BRANCH  23  24
ATOM     24  C   UNL     1       0.578  11.358 133.822  0.00  0.00    +0.000 C 
ATOM     25  C   UNL     1       0.634  12.196 135.109  0.00  0.00    +0.000 C 
ATOM     26  C   UNL     1       0.994  13.585 134.625  0.00  0.00    +0.000 C 
ATOM     27  C   UNL     1       1.851  13.394 133.371  0.00  0.00    +0.000 C 
ATOM     28  C   UNL     1       1.559  11.997 132.822  0.00  0.00    +0.000 C 
ENDBRANCH  23  24
ENDBRANCH  16  23
TORSDOF 4
ENDMDL
