MODEL 1
REMARK VINA RESULT:      -7.7      0.000      0.000
REMARK  Name = Quinine
REMARK  6 active torsions:
REMARK  status: ('A' for Active; 'I' for Inactive)
REMARK    1  A    between atoms: C_2  and  C_12
REMARK    2  A    between atoms: C_9  and  C_10
REMARK    3  A    between atoms: C_12  and  O_13
REMARK    4  A    between atoms: C_12  and  C_14
REMARK    5  A    between atoms: C_21  and  O_22
REMARK    6  A    between atoms: O_22  and  C_23
REMARK                            x       y       z     vdW  Elec       q    Type
REMARK                         _______ _______ _______ _____ _____    ______ ____
ROOT
ATOM      1  C   UNL     1      -9.076   0.856 124.570  0.00  0.00    +0.000 C 
ENDROOT
BRANCH   1   2
ATOM      2  C   UNL     1      -8.682   2.247 123.958  0.00  0.00    +0.000 A 
ATOM      3  C   UNL     1      -8.973   2.508 122.613  0.00  0.00    +0.000 A 
ATOM      4  C   UNL     1      -7.981   3.108 121.827  0.00  0.00    +0.000 A 
ATOM      5  N   UNL     1      -6.809   3.542 122.294  0.00  0.00    +0.000 NA
ATOM      6  C   UNL     1      -6.711   3.614 123.621  0.00  0.00    +0.000 A 
ATOM      7  C   UNL     1      -5.601   4.261 124.091  0.00  0.00    +0.000 A 
ATOM      8  C   UNL     1      -5.507   4.581 125.437  0.00  0.00    +0.000 A 
ATOM      9  C   UNL     1      -6.495   4.165 126.326  0.00  0.00    +0.000 A 
ATOM     10  C   UNL     1      -7.542   3.362 125.881  0.00  0.00    +0.000 A 
ATOM     11  C   UNL     1      -7.672   3.066 124.511  0.00  0.00    +0.000 A 
BRANCH   9  12
ATOM     12  O   UNL     1      -6.549   4.494 127.651  0.00  0.00    +0.000 OA
ATOM     13  C   UNL     1      -7.683   3.991 128.343  0.00  0.00    +0.000 C 
ENDBRANCH   9  12
ENDBRANCH   1   2
BRANCH   1  14
ATOM     14  C   UNL     1      -7.872  -0.241 124.734  0.00  0.00    +0.000 C 
ATOM     15  C   UNL     1      -7.278  -0.612 123.366  0.00  0.00    +0.000 C 
ATOM     16  C   UNL     1      -7.522  -2.106 123.072  0.00  0.00    +0.000 C 
ATOM     17  C   UNL     1      -8.948  -2.511 123.470  0.00  0.00    +0.000 C 
ATOM     18  C   UNL     1      -9.298  -2.190 124.924  0.00  0.00    +0.000 C 
ATOM     19  N   UNL     1      -8.156  -1.506 125.526  0.00  0.00    +0.000 NA
ATOM     20  C   UNL     1      -7.027  -2.499 125.450  0.00  0.00    +0.000 C 
ATOM     21  C   UNL     1      -6.659  -2.943 123.997  0.00  0.00    +0.000 C 
BRANCH  21  22
ATOM     22  C   UNL     1      -5.211  -2.816 123.615  0.00  0.00    +0.000 C 
ATOM     23  C   UNL     1      -4.376  -3.861 123.563  0.00  0.00    +0.000 C 
ENDBRANCH  21  22
ENDBRANCH   1  14
BRANCH   1  24
ATOM     24  O   UNL     1      -9.711   1.016 125.848  0.00  0.00    +0.000 OA
ATOM     25  H   UNL     1     -10.358   0.294 125.943  0.00  0.00    +0.000 HD
ENDBRANCH   1  24
TORSDOF 5
ENDMDL
MODEL 2
REMARK VINA RESULT:      -7.2      2.625      6.010
REMARK  Name = Quinine
REMARK  6 active torsions:
REMARK  status: ('A' for Active; 'I' for Inactive)
REMARK    1  A    between atoms: C_2  and  C_12
REMARK    2  A    between atoms: C_9  and  C_10
REMARK    3  A    between atoms: C_12  and  O_13
REMARK    4  A    between atoms: C_12  and  C_14
REMARK    5  A    between atoms: C_21  and  O_22
REMARK    6  A    between atoms: O_22  and  C_23
REMARK                            x       y       z     vdW  Elec       q    Type
REMARK                         _______ _______ _______ _____ _____    ______ ____
ROOT
ATOM      1  C   UNL     1      -8.098   1.785 125.737  0.00  0.00    +0.000 C 
ENDROOT
BRANCH   1   2
ATOM      2  C   UNL     1      -7.958   0.381 125.049  0.00  0.00    +0.000 A 
ATOM      3  C   UNL     1      -8.105   0.283 123.660  0.00  0.00    +0.000 A 
ATOM      4  C   UNL     1      -8.888  -0.761 123.150  0.00  0.00    +0.000 A 
ATOM      5  N   UNL     1      -9.424  -1.733 123.892  0.00  0.00    +0.000 NA
ATOM      6  C   UNL     1      -8.968  -1.819 125.141  0.00  0.00    +0.000 A 
ATOM      7  C   UNL     1      -9.349  -2.940 125.826  0.00  0.00    +0.000 A 
ATOM      8  C   UNL     1      -8.761  -3.235 127.048  0.00  0.00    +0.000 A 
ATOM      9  C   UNL     1      -7.854  -2.348 127.620  0.00  0.00    +0.000 A 
ATOM     10  C   UNL     1      -7.589  -1.127 127.006  0.00  0.00    +0.000 A 
ATOM     11  C   UNL     1      -8.146  -0.834 125.748  0.00  0.00    +0.000 A 
BRANCH   9  12
ATOM     12  O   UNL     1      -7.154  -2.574 128.771  0.00  0.00    +0.000 OA
ATOM     13  C   UNL     1      -7.897  -3.205 129.805  0.00  0.00    +0.000 C 
ENDBRANCH   9  12
ENDBRANCH   1   2
BRANCH   1  14
ATOM     14  C   UNL     1      -6.737   2.689 125.845  0.00  0.00    +0.000 C 
ATOM     15  C   UNL     1      -5.487   1.796 125.877  0.00  0.00    +0.000 C 
ATOM     16  C   UNL     1      -4.753   1.964 127.223  0.00  0.00    +0.000 C 
ATOM     17  C   UNL     1      -5.753   1.994 128.386  0.00  0.00    +0.000 C 
ATOM     18  C   UNL     1      -6.841   3.059 128.237  0.00  0.00    +0.000 C 
ATOM     19  N   UNL     1      -6.651   3.726 126.951  0.00  0.00    +0.000 NA
ATOM     20  C   UNL     1      -5.287   4.358 127.042  0.00  0.00    +0.000 C 
ATOM     21  C   UNL     1      -4.123   3.343 127.278  0.00  0.00    +0.000 C 
BRANCH  21  22
ATOM     22  C   UNL     1      -2.970   3.428 126.318  0.00  0.00    +0.000 C 
ATOM     23  C   UNL     1      -1.728   3.041 126.633  0.00  0.00    +0.000 C 
ENDBRANCH  21  22
ENDBRANCH   1  14
BRANCH   1  24
ATOM     24  O   UNL     1      -9.109   2.576 125.093  0.00  0.00    +0.000 OA
ATOM     25  H   UNL     1      -9.948   2.086 125.159  0.00  0.00    +0.000 HD
ENDBRANCH   1  24
TORSDOF 5
ENDMDL
MODEL 3
REMARK VINA RESULT:      -7.1      2.054      3.129
REMARK  Name = Quinine
REMARK  6 active torsions:
REMARK  status: ('A' for Active; 'I' for Inactive)
REMARK    1  A    between atoms: C_2  and  C_12
REMARK    2  A    between atoms: C_9  and  C_10
REMARK    3  A    between atoms: C_12  and  O_13
REMARK    4  A    between atoms: C_12  and  C_14
REMARK    5  A    between atoms: C_21  and  O_22
REMARK    6  A    between atoms: O_22  and  C_23
REMARK                            x       y       z     vdW  Elec       q    Type
REMARK                         _______ _______ _______ _____ _____    ______ ____
ROOT
ATOM      1  C   UNL     1      -8.381  -0.076 125.405  0.00  0.00    +0.000 C 
ENDROOT
BRANCH   1   2
ATOM      2  C   UNL     1      -7.791   0.995 126.391  0.00  0.00    +0.000 A 
ATOM      3  C   UNL     1      -8.068   0.887 127.760  0.00  0.00    +0.000 A 
ATOM      4  C   UNL     1      -8.438   2.048 128.452  0.00  0.00    +0.000 A 
ATOM      5  N   UNL     1      -8.449   3.272 127.920  0.00  0.00    +0.000 NA
ATOM      6  C   UNL     1      -7.839   3.391 126.742  0.00  0.00    +0.000 A 
ATOM      7  C   UNL     1      -7.658   4.674 126.305  0.00  0.00    +0.000 A 
ATOM      8  C   UNL     1      -6.849   4.922 125.205  0.00  0.00    +0.000 A 
ATOM      9  C   UNL     1      -6.296   3.862 124.492  0.00  0.00    +0.000 A 
ATOM     10  C   UNL     1      -6.612   2.550 124.832  0.00  0.00    +0.000 A 
ATOM     11  C   UNL     1      -7.397   2.285 125.970  0.00  0.00    +0.000 A 
BRANCH   9  12
ATOM     12  O   UNL     1      -5.420   3.989 123.451  0.00  0.00    +0.000 OA
ATOM     13  C   UNL     1      -5.989   3.777 122.166  0.00  0.00    +0.000 C 
ENDBRANCH   9  12
ENDBRANCH   1   2
BRANCH   1  14
ATOM     14  C   UNL     1      -7.514  -1.452 125.213  0.00  0.00    +0.000 C 
ATOM     15  C   UNL     1      -6.196  -1.172 124.474  0.00  0.00    +0.000 C 
ATOM     16  C   UNL     1      -6.181  -1.916 123.123  0.00  0.00    +0.000 C 
ATOM     17  C   UNL     1      -7.541  -1.797 122.422  0.00  0.00    +0.000 C 
ATOM     18  C   UNL     1      -8.719  -2.269 123.276  0.00  0.00    +0.000 C 
ATOM     19  N   UNL     1      -8.204  -2.653 124.588  0.00  0.00    +0.000 NA
ATOM     20  C   UNL     1      -7.251  -3.785 124.313  0.00  0.00    +0.000 C 
ATOM     21  C   UNL     1      -6.057  -3.407 123.377  0.00  0.00    +0.000 C 
BRANCH  21  22
ATOM     22  C   UNL     1      -4.685  -3.736 123.894  0.00  0.00    +0.000 C 
ATOM     23  C   UNL     1      -4.021  -4.845 123.548  0.00  0.00    +0.000 C 
ENDBRANCH  21  22
ENDBRANCH   1  14
BRANCH   1  24
ATOM     24  O   UNL     1      -9.719  -0.439 125.777  0.00  0.00    +0.000 OA
ATOM     25  H   UNL     1     -10.325   0.144 125.287  0.00  0.00    +0.000 HD
ENDBRANCH   1  24
TORSDOF 5
ENDMDL
MODEL 4
REMARK VINA RESULT:      -7.1      7.786      9.892
REMARK  Name = Quinine
REMARK  6 active torsions:
REMARK  status: ('A' for Active; 'I' for Inactive)
REMARK    1  A    between atoms: C_2  and  C_12
REMARK    2  A    between atoms: C_9  and  C_10
REMARK    3  A    between atoms: C_12  and  O_13
REMARK    4  A    between atoms: C_12  and  C_14
REMARK    5  A    between atoms: C_21  and  O_22
REMARK    6  A    between atoms: O_22  and  C_23
REMARK                            x       y       z     vdW  Elec       q    Type
REMARK                         _______ _______ _______ _____ _____    ______ ____
ROOT
ATOM      1  C   UNL     1      -6.700   5.555 130.412  0.00  0.00    +0.000 C 
ENDROOT
BRANCH   1   2
ATOM      2  C   UNL     1      -7.752   6.226 131.365  0.00  0.00    +0.000 A 
ATOM      3  C   UNL     1      -7.678   5.981 132.742  0.00  0.00    +0.000 A 
ATOM      4  C   UNL     1      -8.866   5.691 133.426  0.00  0.00    +0.000 A 
ATOM      5  N   UNL     1     -10.081   5.729 132.875  0.00  0.00    +0.000 NA
ATOM      6  C   UNL     1     -10.152   6.313 131.680  0.00  0.00    +0.000 A 
ATOM      7  C   UNL     1     -11.417   6.548 131.219  0.00  0.00    +0.000 A 
ATOM      8  C   UNL     1     -11.607   7.339 130.095  0.00  0.00    +0.000 A 
ATOM      9  C   UNL     1     -10.509   7.817 129.383  0.00  0.00    +0.000 A 
ATOM     10  C   UNL     1      -9.221   7.442 129.752  0.00  0.00    +0.000 A 
ATOM     11  C   UNL     1      -9.013   6.676 130.914  0.00  0.00    +0.000 A 
BRANCH   9  12
ATOM     12  O   UNL     1     -10.575   8.670 128.318  0.00  0.00    +0.000 OA
ATOM     13  C   UNL     1     -11.067   8.087 127.119  0.00  0.00    +0.000 C 
ENDBRANCH   9  12
ENDBRANCH   1   2
BRANCH   1  14
ATOM     14  C   UNL     1      -5.166   5.444 130.974  0.00  0.00    +0.000 C 
ATOM     15  C   UNL     1      -4.682   6.797 131.520  0.00  0.00    +0.000 C 
ATOM     16  C   UNL     1      -3.492   7.308 130.683  0.00  0.00    +0.000 C 
ATOM     17  C   UNL     1      -3.747   7.087 129.186  0.00  0.00    +0.000 C 
ATOM     18  C   UNL     1      -4.068   5.636 128.823  0.00  0.00    +0.000 C 
ATOM     19  N   UNL     1      -4.106   4.856 130.058  0.00  0.00    +0.000 NA
ATOM     20  C   UNL     1      -2.719   4.973 130.632  0.00  0.00    +0.000 C 
ATOM     21  C   UNL     1      -2.280   6.438 130.956  0.00  0.00    +0.000 C 
BRANCH  21  22
ATOM     22  C   UNL     1      -1.768   6.679 132.348  0.00  0.00    +0.000 C 
ATOM     23  C   UNL     1      -0.726   7.477 132.614  0.00  0.00    +0.000 C 
ENDBRANCH  21  22
ENDBRANCH   1  14
BRANCH   1  24
ATOM     24  O   UNL     1      -7.126   4.243 130.014  0.00  0.00    +0.000 OA
ATOM     25  H   UNL     1      -6.982   3.649 130.772  0.00  0.00    +0.000 HD
ENDBRANCH   1  24
TORSDOF 5
ENDMDL
MODEL 5
REMARK VINA RESULT:      -6.8      3.726      6.523
REMARK  Name = Quinine
REMARK  6 active torsions:
REMARK  status: ('A' for Active; 'I' for Inactive)
REMARK    1  A    between atoms: C_2  and  C_12
REMARK    2  A    between atoms: C_9  and  C_10
REMARK    3  A    between atoms: C_12  and  O_13
REMARK    4  A    between atoms: C_12  and  C_14
REMARK    5  A    between atoms: C_21  and  O_22
REMARK    6  A    between atoms: O_22  and  C_23
REMARK                            x       y       z     vdW  Elec       q    Type
REMARK                         _______ _______ _______ _____ _____    ______ ____
ROOT
ATOM      1  C   UNL     1      -6.067   0.425 127.220  0.00  0.00    +0.000 C 
ENDROOT
BRANCH   1   2
ATOM      2  C   UNL     1      -7.022   0.061 126.028  0.00  0.00    +0.000 A 
ATOM      3  C   UNL     1      -8.262   0.702 125.927  0.00  0.00    +0.000 A 
ATOM      4  C   UNL     1      -9.388  -0.079 125.635  0.00  0.00    +0.000 A 
ATOM      5  N   UNL     1      -9.347  -1.382 125.347  0.00  0.00    +0.000 NA
ATOM      6  C   UNL     1      -8.137  -1.876 125.094  0.00  0.00    +0.000 A 
ATOM      7  C   UNL     1      -8.118  -3.146 124.587  0.00  0.00    +0.000 A 
ATOM      8  C   UNL     1      -6.936  -3.674 124.089  0.00  0.00    +0.000 A 
ATOM      9  C   UNL     1      -5.750  -2.949 124.187  0.00  0.00    +0.000 A 
ATOM     10  C   UNL     1      -5.733  -1.727 124.852  0.00  0.00    +0.000 A 
ATOM     11  C   UNL     1      -6.932  -1.162 125.325  0.00  0.00    +0.000 A 
BRANCH   9  12
ATOM     12  O   UNL     1      -4.551  -3.331 123.658  0.00  0.00    +0.000 OA
ATOM     13  C   UNL     1      -4.348  -4.736 123.595  0.00  0.00    +0.000 C 
ENDBRANCH   9  12
ENDBRANCH   1   2
BRANCH   1  14
ATOM     14  C   UNL     1      -5.875  -0.714 128.381  0.00  0.00    +0.000 C 
ATOM     15  C   UNL     1      -7.192  -1.465 128.635  0.00  0.00    +0.000 C 
ATOM     16  C   UNL     1      -7.673  -1.214 130.079  0.00  0.00    +0.000 C 
ATOM     17  C   UNL     1      -7.501   0.263 130.458  0.00  0.00    +0.000 C 
ATOM     18  C   UNL     1      -6.075   0.785 130.274  0.00  0.00    +0.000 C 
ATOM     19  N   UNL     1      -5.266  -0.291 129.708  0.00  0.00    +0.000 NA
ATOM     20  C   UNL     1      -5.309  -1.389 130.736  0.00  0.00    +0.000 C 
ATOM     21  C   UNL     1      -6.744  -1.925 131.045  0.00  0.00    +0.000 C 
BRANCH  21  22
ATOM     22  C   UNL     1      -6.928  -3.414 130.943  0.00  0.00    +0.000 C 
ATOM     23  C   UNL     1      -5.926  -4.255 130.659  0.00  0.00    +0.000 C 
ENDBRANCH  21  22
ENDBRANCH   1  14
BRANCH   1  24
ATOM     24  O   UNL     1      -4.766   0.800 126.744  0.00  0.00    +0.000 OA
ATOM     25  H   UNL     1      -4.894   1.344 125.947  0.00  0.00    +0.000 HD
ENDBRANCH   1  24
TORSDOF 5
ENDMDL
MODEL 6
REMARK VINA RESULT:      -6.7      5.383      8.881
REMARK  Name = Quinine
REMARK  6 active torsions:
REMARK  status: ('A' for Active; 'I' for Inactive)
REMARK    1  A    between atoms: C_2  and  C_12
REMARK    2  A    between atoms: C_9  and  C_10
REMARK    3  A    between atoms: C_12  and  O_13
REMARK    4  A    between atoms: C_12  and  C_14
REMARK    5  A    between atoms: C_21  and  O_22
REMARK    6  A    between atoms: O_22  and  C_23
REMARK                            x       y       z     vdW  Elec       q    Type
REMARK                         _______ _______ _______ _____ _____    ______ ____
ROOT
ATOM      1  C   UNL     1      -4.924   6.885 130.567  0.00  0.00    +0.000 C 
ENDROOT
BRANCH   1   2
ATOM      2  C   UNL     1      -5.813   6.589 131.826  0.00  0.00    +0.000 A 
ATOM      3  C   UNL     1      -5.197   6.174 133.014  0.00  0.00    +0.000 A 
ATOM      4  C   UNL     1      -5.767   5.103 133.715  0.00  0.00    +0.000 A 
ATOM      5  N   UNL     1      -6.916   4.511 133.383  0.00  0.00    +0.000 NA
ATOM      6  C   UNL     1      -7.653   5.155 132.479  0.00  0.00    +0.000 A 
ATOM      7  C   UNL     1      -8.920   4.669 132.304  0.00  0.00    +0.000 A 
ATOM      8  C   UNL     1      -9.838   5.389 131.554  0.00  0.00    +0.000 A 
ATOM      9  C   UNL     1      -9.448   6.558 130.904  0.00  0.00    +0.000 A 
ATOM     10  C   UNL     1      -8.118   6.967 130.942  0.00  0.00    +0.000 A 
ATOM     11  C   UNL     1      -7.187   6.270 131.733  0.00  0.00    +0.000 A 
BRANCH   9  12
ATOM     12  O   UNL     1     -10.283   7.388 130.212  0.00  0.00    +0.000 OA
ATOM     13  C   UNL     1     -11.452   6.763 129.700  0.00  0.00    +0.000 C 
ENDBRANCH   9  12
ENDBRANCH   1   2
BRANCH   1  14
ATOM     14  C   UNL     1      -4.935   5.758 129.379  0.00  0.00    +0.000 C 
ATOM     15  C   UNL     1      -4.121   4.521 129.789  0.00  0.00    +0.000 C 
ATOM     16  C   UNL     1      -2.911   4.350 128.848  0.00  0.00    +0.000 C 
ATOM     17  C   UNL     1      -2.240   5.703 128.575  0.00  0.00    +0.000 C 
ATOM     18  C   UNL     1      -3.195   6.765 128.027  0.00  0.00    +0.000 C 
ATOM     19  N   UNL     1      -4.536   6.189 127.977  0.00  0.00    +0.000 NA
ATOM     20  C   UNL     1      -4.423   5.026 127.028  0.00  0.00    +0.000 C 
ATOM     21  C   UNL     1      -3.402   3.929 127.476  0.00  0.00    +0.000 C 
BRANCH  21  22
ATOM     22  C   UNL     1      -3.925   2.521 127.518  0.00  0.00    +0.000 C 
ATOM     23  C   UNL     1      -4.805   2.042 126.631  0.00  0.00    +0.000 C 
ENDBRANCH  21  22
ENDBRANCH   1  14
BRANCH   1  24
ATOM     24  O   UNL     1      -5.262   8.153 129.983  0.00  0.00    +0.000 OA
ATOM     25  H   UNL     1      -5.012   8.115 129.043  0.00  0.00    +0.000 HD
ENDBRANCH   1  24
TORSDOF 5
ENDMDL
MODEL 7
REMARK VINA RESULT:      -6.5      6.649     10.169
REMARK  Name = Quinine
REMARK  6 active torsions:
REMARK  status: ('A' for Active; 'I' for Inactive)
REMARK    1  A    between atoms: C_2  and  C_12
REMARK    2  A    between atoms: C_9  and  C_10
REMARK    3  A    between atoms: C_12  and  O_13
REMARK    4  A    between atoms: C_12  and  C_14
REMARK    5  A    between atoms: C_21  and  O_22
REMARK    6  A    between atoms: O_22  and  C_23
REMARK                            x       y       z     vdW  Elec       q    Type
REMARK                         _______ _______ _______ _____ _____    ______ ____
ROOT
ATOM      1  C   UNL     1      -5.087   6.637 130.939  0.00  0.00    +0.000 C 
ENDROOT
BRANCH   1   2
ATOM      2  C   UNL     1      -5.017   5.922 132.335  0.00  0.00    +0.000 A 
ATOM      3  C   UNL     1      -6.164   5.297 132.840  0.00  0.00    +0.000 A 
ATOM      4  C   UNL     1      -6.491   5.506 134.187  0.00  0.00    +0.000 A 
ATOM      5  N   UNL     1      -5.730   6.180 135.052  0.00  0.00    +0.000 NA
ATOM      6  C   UNL     1      -4.491   6.443 134.642  0.00  0.00    +0.000 A 
ATOM      7  C   UNL     1      -3.649   6.933 135.602  0.00  0.00    +0.000 A 
ATOM      8  C   UNL     1      -2.290   7.037 135.342  0.00  0.00    +0.000 A 
ATOM      9  C   UNL     1      -1.795   6.731 134.076  0.00  0.00    +0.000 A 
ATOM     10  C   UNL     1      -2.669   6.393 133.048  0.00  0.00    +0.000 A 
ATOM     11  C   UNL     1      -4.044   6.243 133.309  0.00  0.00    +0.000 A 
BRANCH   9  12
ATOM     12  O   UNL     1      -0.473   6.716 133.734  0.00  0.00    +0.000 OA
ATOM     13  C   UNL     1       0.358   7.548 134.531  0.00  0.00    +0.000 C 
ENDBRANCH   9  12
ENDBRANCH   1   2
BRANCH   1  14
ATOM     14  C   UNL     1      -4.784   5.710 129.624  0.00  0.00    +0.000 C 
ATOM     15  C   UNL     1      -3.695   4.669 129.926  0.00  0.00    +0.000 C 
ATOM     16  C   UNL     1      -2.457   4.928 129.043  0.00  0.00    +0.000 C 
ATOM     17  C   UNL     1      -2.143   6.428 128.976  0.00  0.00    +0.000 C 
ATOM     18  C   UNL     1      -3.320   7.286 128.508  0.00  0.00    +0.000 C 
ATOM     19  N   UNL     1      -4.471   6.408 128.311  0.00  0.00    +0.000 NA
ATOM     20  C   UNL     1      -4.044   5.445 127.235  0.00  0.00    +0.000 C 
ATOM     21  C   UNL     1      -2.792   4.585 127.603  0.00  0.00    +0.000 C 
BRANCH  21  22
ATOM     22  C   UNL     1      -2.944   3.098 127.444  0.00  0.00    +0.000 C 
ATOM     23  C   UNL     1      -3.926   2.538 126.726  0.00  0.00    +0.000 C 
ENDBRANCH  21  22
ENDBRANCH   1  14
BRANCH   1  24
ATOM     24  O   UNL     1      -6.358   7.277 130.751  0.00  0.00    +0.000 OA
ATOM     25  H   UNL     1      -6.512   7.341 129.792  0.00  0.00    +0.000 HD
ENDBRANCH   1  24
TORSDOF 5
ENDMDL
MODEL 8
REMARK VINA RESULT:      -6.4      3.854      6.047
REMARK  Name = Quinine
REMARK  6 active torsions:
REMARK  status: ('A' for Active; 'I' for Inactive)
REMARK    1  A    between atoms: C_2  and  C_12
REMARK    2  A    between atoms: C_9  and  C_10
REMARK    3  A    between atoms: C_12  and  O_13
REMARK    4  A    between atoms: C_12  and  C_14
REMARK    5  A    between atoms: C_21  and  O_22
REMARK    6  A    between atoms: O_22  and  C_23
REMARK                            x       y       z     vdW  Elec       q    Type
REMARK                         _______ _______ _______ _____ _____    ______ ____
ROOT
ATOM      1  C   UNL     1      -6.857  -1.804 127.001  0.00  0.00    +0.000 C 
ENDROOT
BRANCH   1   2
ATOM      2  C   UNL     1      -8.218  -1.846 126.220  0.00  0.00    +0.000 A 
ATOM      3  C   UNL     1      -8.811  -3.086 125.950  0.00  0.00    +0.000 A 
ATOM      4  C   UNL     1      -9.320  -3.308 124.664  0.00  0.00    +0.000 A 
ATOM      5  N   UNL     1      -9.370  -2.384 123.703  0.00  0.00    +0.000 NA
ATOM      6  C   UNL     1      -9.140  -1.133 124.097  0.00  0.00    +0.000 A 
ATOM      7  C   UNL     1      -9.406  -0.168 123.165  0.00  0.00    +0.000 A 
ATOM      8  C   UNL     1      -9.409   1.169 123.536  0.00  0.00    +0.000 A 
ATOM      9  C   UNL     1      -9.053   1.536 124.832  0.00  0.00    +0.000 A 
ATOM     10  C   UNL     1      -8.620   0.571 125.736  0.00  0.00    +0.000 A 
ATOM     11  C   UNL     1      -8.652  -0.791 125.386  0.00  0.00    +0.000 A 
BRANCH   9  12
ATOM     12  O   UNL     1      -9.103   2.807 125.329  0.00  0.00    +0.000 OA
ATOM     13  C   UNL     1      -8.013   3.637 124.952  0.00  0.00    +0.000 C 
ENDBRANCH   9  12
ENDBRANCH   1   2
BRANCH   1  14
ATOM     14  C   UNL     1      -6.818  -2.566 128.450  0.00  0.00    +0.000 C 
ATOM     15  C   UNL     1      -7.780  -1.899 129.447  0.00  0.00    +0.000 C 
ATOM     16  C   UNL     1      -6.988  -1.310 130.631  0.00  0.00    +0.000 C 
ATOM     17  C   UNL     1      -5.720  -0.601 130.136  0.00  0.00    +0.000 C 
ATOM     18  C   UNL     1      -4.814  -1.485 129.277  0.00  0.00    +0.000 C 
ATOM     19  N   UNL     1      -5.468  -2.781 129.113  0.00  0.00    +0.000 NA
ATOM     20  C   UNL     1      -5.592  -3.332 130.508  0.00  0.00    +0.000 C 
ATOM     21  C   UNL     1      -6.438  -2.443 131.476  0.00  0.00    +0.000 C 
BRANCH  21  22
ATOM     22  C   UNL     1      -7.553  -3.139 132.204  0.00  0.00    +0.000 C 
ATOM     23  C   UNL     1      -7.700  -3.089 133.534  0.00  0.00    +0.000 C 
ENDBRANCH  21  22
ENDBRANCH   1  14
BRANCH   1  24
ATOM     24  O   UNL     1      -5.784  -2.318 126.198  0.00  0.00    +0.000 OA
ATOM     25  H   UNL     1      -5.025  -2.468 126.788  0.00  0.00    +0.000 HD
ENDBRANCH   1  24
TORSDOF 5
ENDMDL
MODEL 9
REMARK VINA RESULT:      -6.4      4.155      7.085
REMARK  Name = Quinine
REMARK  6 active torsions:
REMARK  status: ('A' for Active; 'I' for Inactive)
REMARK    1  A    between atoms: C_2  and  C_12
REMARK    2  A    between atoms: C_9  and  C_10
REMARK    3  A    between atoms: C_12  and  O_13
REMARK    4  A    between atoms: C_12  and  C_14
REMARK    5  A    between atoms: C_21  and  O_22
REMARK    6  A    between atoms: O_22  and  C_23
REMARK                            x       y       z     vdW  Elec       q    Type
REMARK                         _______ _______ _______ _____ _____    ______ ____
ROOT
ATOM      1  C   UNL     1      -7.758   2.990 128.784  0.00  0.00    +0.000 C 
ENDROOT
BRANCH   1   2
ATOM      2  C   UNL     1      -7.866   3.769 130.142  0.00  0.00    +0.000 A 
ATOM      3  C   UNL     1      -7.441   3.146 131.322  0.00  0.00    +0.000 A 
ATOM      4  C   UNL     1      -8.260   3.248 132.455  0.00  0.00    +0.000 A 
ATOM      5  N   UNL     1      -9.371   3.984 132.518  0.00  0.00    +0.000 NA
ATOM      6  C   UNL     1      -9.548   4.843 131.515  0.00  0.00    +0.000 A 
ATOM      7  C   UNL     1     -10.562   5.744 131.690  0.00  0.00    +0.000 A 
ATOM      8  C   UNL     1     -10.695   6.813 130.815  0.00  0.00    +0.000 A 
ATOM      9  C   UNL     1      -9.856   6.918 129.708  0.00  0.00    +0.000 A 
ATOM     10  C   UNL     1      -8.933   5.913 129.433  0.00  0.00    +0.000 A 
ATOM     11  C   UNL     1      -8.759   4.847 130.335  0.00  0.00    +0.000 A 
BRANCH   9  12
ATOM     12  O   UNL     1      -9.841   7.966 128.832  0.00  0.00    +0.000 OA
ATOM     13  C   UNL     1     -11.124   8.450 128.460  0.00  0.00    +0.000 C 
ENDBRANCH   9  12
ENDBRANCH   1   2
BRANCH   1  14
ATOM     14  C   UNL     1      -6.255   2.805 128.161  0.00  0.00    +0.000 C 
ATOM     15  C   UNL     1      -5.465   4.122 128.235  0.00  0.00    +0.000 C 
ATOM     16  C   UNL     1      -5.131   4.618 126.814  0.00  0.00    +0.000 C 
ATOM     17  C   UNL     1      -6.340   4.453 125.883  0.00  0.00    +0.000 C 
ATOM     18  C   UNL     1      -6.892   3.027 125.834  0.00  0.00    +0.000 C 
ATOM     19  N   UNL     1      -6.123   2.210 126.769  0.00  0.00    +0.000 NA
ATOM     20  C   UNL     1      -4.709   2.259 126.254  0.00  0.00    +0.000 C 
ATOM     21  C   UNL     1      -4.097   3.696 126.195  0.00  0.00    +0.000 C 
BRANCH  21  22
ATOM     22  C   UNL     1      -2.768   3.875 126.874  0.00  0.00    +0.000 C 
ATOM     23  C   UNL     1      -1.748   3.021 126.718  0.00  0.00    +0.000 C 
ENDBRANCH  21  22
ENDBRANCH   1  14
BRANCH   1  24
ATOM     24  O   UNL     1      -8.362   1.691 128.885  0.00  0.00    +0.000 OA
ATOM     25  H   UNL     1      -7.796   1.152 129.465  0.00  0.00    +0.000 HD
ENDBRANCH   1  24
TORSDOF 5
ENDMDL
