MODEL 1
REMARK VINA RESULT:      -7.8      0.000      0.000
REMARK  Name = Quinagolide
REMARK  11 active torsions:
REMARK  status: ('A' for Active; 'I' for Inactive)
REMARK    1  A    between atoms: C_4  and  N_21
REMARK    2  A    between atoms: N_6  and  C_7
REMARK    3  A    between atoms: C_7  and  C_8
REMARK    4  A    between atoms: C_8  and  C_9
REMARK    5  A    between atoms: C_17  and  O_18
REMARK    6  A    between atoms: N_21  and  S_22
REMARK    7  A    between atoms: S_22  and  N_25
REMARK    8  A    between atoms: N_25  and  C_26
REMARK    9  A    between atoms: N_25  and  C_28
REMARK   10  A    between atoms: C_26  and  C_27
REMARK   11  A    between atoms: C_28  and  C_29
REMARK                            x       y       z     vdW  Elec       q    Type
REMARK                         _______ _______ _______ _____ _____    ______ ____
ROOT
ATOM      1  C   UNL     1      -6.221   3.041 123.358  0.00  0.00    +0.000 C 
ATOM      2  C   UNL     1      -6.001   3.064 124.873  0.00  0.00    +0.000 C 
ATOM      3  C   UNL     1      -6.772   1.923 125.535  0.00  0.00    +0.000 C 
ATOM      4  C   UNL     1      -8.239   2.066 125.198  0.00  0.00    +0.000 C 
ATOM      5  N   UNL     1      -8.441   1.955 123.741  0.00  0.00    +0.000 NA
ATOM      6  C   UNL     1      -7.731   3.048 123.025  0.00  0.00    +0.000 C 
ATOM      7  C   UNL     1      -7.877   2.946 121.494  0.00  0.00    +0.000 C 
ATOM      8  C   UNL     1      -7.005   3.905 120.723  0.00  0.00    +0.000 A 
ATOM      9  C   UNL     1      -7.312   4.164 119.381  0.00  0.00    +0.000 A 
ATOM     10  C   UNL     1      -6.517   5.022 118.625  0.00  0.00    +0.000 A 
ATOM     11  C   UNL     1      -5.404   5.634 119.203  0.00  0.00    +0.000 A 
ATOM     12  C   UNL     1      -5.091   5.371 120.533  0.00  0.00    +0.000 A 
ATOM     13  C   UNL     1      -5.870   4.496 121.299  0.00  0.00    +0.000 A 
ATOM     14  C   UNL     1      -5.502   4.238 122.731  0.00  0.00    +0.000 C 
ENDROOT
BRANCH  12  15
ATOM     15  O   UNL     1      -4.009   5.961 121.128  0.00  0.00    +0.000 OA
ATOM     16  H   UNL     1      -3.631   5.349 121.780  0.00  0.00    +0.000 HD
ENDBRANCH  12  15
BRANCH   3  17
ATOM     17  N   UNL     1      -6.243   0.615 125.023  0.00  0.00    +0.000 NA
ATOM     18  H   UNL     1      -5.281   0.825 124.848  0.00  0.00    +0.000 HD
BRANCH  17  19
ATOM     19  S   UNL     1      -6.431  -0.697 126.049  0.00  0.00    +0.000 S 
ATOM     20  O   UNL     1      -5.170  -0.865 126.723  0.00  0.00    +0.000 OA
ATOM     21  O   UNL     1      -7.656  -0.557 126.805  0.00  0.00    +0.000 OA
BRANCH  19  22
ATOM     22  N   UNL     1      -6.675  -2.062 125.051  0.00  0.00    +0.000 NA
BRANCH  22  23
ATOM     23  C   UNL     1      -5.516  -2.978 124.888  0.00  0.00    +0.000 C 
ATOM     24  C   UNL     1      -4.889  -2.940 123.517  0.00  0.00    +0.000 C 
ENDBRANCH  22  23
BRANCH  22  25
ATOM     25  C   UNL     1      -7.876  -2.817 125.610  0.00  0.00    +0.000 C 
ATOM     26  C   UNL     1      -8.377  -3.932 124.711  0.00  0.00    +0.000 C 
ENDBRANCH  22  25
ENDBRANCH  19  22
ENDBRANCH  17  19
ENDBRANCH   3  17
BRANCH   5  27
ATOM     27  C   UNL     1      -9.870   1.882 123.445  0.00  0.00    +0.000 C 
BRANCH  27  28
ATOM     28  C   UNL     1     -10.269   0.570 122.764  0.00  0.00    +0.000 C 
ATOM     29  C   UNL     1      -9.220  -0.491 122.990  0.00  0.00    +0.000 C 
ENDBRANCH  27  28
ENDBRANCH   5  27
TORSDOF 8
ENDMDL
MODEL 2
REMARK VINA RESULT:      -7.4      4.034      6.406
REMARK  Name = Quinagolide
REMARK  11 active torsions:
REMARK  status: ('A' for Active; 'I' for Inactive)
REMARK    1  A    between atoms: C_4  and  N_21
REMARK    2  A    between atoms: N_6  and  C_7
REMARK    3  A    between atoms: C_7  and  C_8
REMARK    4  A    between atoms: C_8  and  C_9
REMARK    5  A    between atoms: C_17  and  O_18
REMARK    6  A    between atoms: N_21  and  S_22
REMARK    7  A    between atoms: S_22  and  N_25
REMARK    8  A    between atoms: N_25  and  C_26
REMARK    9  A    between atoms: N_25  and  C_28
REMARK   10  A    between atoms: C_26  and  C_27
REMARK   11  A    between atoms: C_28  and  C_29
REMARK                            x       y       z     vdW  Elec       q    Type
REMARK                         _______ _______ _______ _____ _____    ______ ____
ROOT
ATOM      1  C   UNL     1      -7.681   3.163 124.772  0.00  0.00    +0.000 C 
ATOM      2  C   UNL     1      -8.543   2.329 125.724  0.00  0.00    +0.000 C 
ATOM      3  C   UNL     1      -7.982   2.402 127.144  0.00  0.00    +0.000 C 
ATOM      4  C   UNL     1      -6.554   1.904 127.129  0.00  0.00    +0.000 C 
ATOM      5  N   UNL     1      -5.720   2.772 126.275  0.00  0.00    +0.000 NA
ATOM      6  C   UNL     1      -6.196   2.740 124.867  0.00  0.00    +0.000 C 
ATOM      7  C   UNL     1      -5.382   3.668 123.945  0.00  0.00    +0.000 C 
ATOM      8  C   UNL     1      -5.958   3.827 122.560  0.00  0.00    +0.000 A 
ATOM      9  C   UNL     1      -5.136   4.329 121.543  0.00  0.00    +0.000 A 
ATOM     10  C   UNL     1      -5.637   4.517 120.256  0.00  0.00    +0.000 A 
ATOM     11  C   UNL     1      -6.966   4.206 119.971  0.00  0.00    +0.000 A 
ATOM     12  C   UNL     1      -7.787   3.717 120.981  0.00  0.00    +0.000 A 
ATOM     13  C   UNL     1      -7.304   3.541 122.284  0.00  0.00    +0.000 A 
ATOM     14  C   UNL     1      -8.220   3.009 123.348  0.00  0.00    +0.000 C 
ENDROOT
BRANCH  12  15
ATOM     15  O   UNL     1      -9.094   3.397 120.730  0.00  0.00    +0.000 OA
ATOM     16  H   UNL     1      -9.318   2.580 121.204  0.00  0.00    +0.000 HD
ENDBRANCH  12  15
BRANCH   3  17
ATOM     17  N   UNL     1      -8.036   3.824 127.618  0.00  0.00    +0.000 NA
ATOM     18  H   UNL     1      -8.742   4.220 127.031  0.00  0.00    +0.000 HD
BRANCH  17  19
ATOM     19  S   UNL     1      -8.370   4.036 129.247  0.00  0.00    +0.000 S 
ATOM     20  O   UNL     1      -9.622   3.369 129.491  0.00  0.00    +0.000 OA
ATOM     21  O   UNL     1      -7.199   3.713 130.033  0.00  0.00    +0.000 OA
BRANCH  19  22
ATOM     22  N   UNL     1      -8.617   5.710 129.477  0.00  0.00    +0.000 NA
BRANCH  22  23
ATOM     23  C   UNL     1      -9.973   6.229 129.159  0.00  0.00    +0.000 C 
ATOM     24  C   UNL     1     -10.115   7.721 129.323  0.00  0.00    +0.000 C 
ENDBRANCH  22  23
BRANCH  22  25
ATOM     25  C   UNL     1      -8.255   6.021 130.925  0.00  0.00    +0.000 C 
ATOM     26  C   UNL     1      -7.063   6.949 131.078  0.00  0.00    +0.000 C 
ENDBRANCH  22  25
ENDBRANCH  19  22
ENDBRANCH  17  19
ENDBRANCH   3  17
BRANCH   5  27
ATOM     27  C   UNL     1      -4.313   2.414 126.434  0.00  0.00    +0.000 C 
BRANCH  27  28
ATOM     28  C   UNL     1      -3.474   3.554 127.021  0.00  0.00    +0.000 C 
ATOM     29  C   UNL     1      -2.006   3.332 126.752  0.00  0.00    +0.000 C 
ENDBRANCH  27  28
ENDBRANCH   5  27
TORSDOF 8
ENDMDL
MODEL 3
REMARK VINA RESULT:      -7.4      2.747      5.392
REMARK  Name = Quinagolide
REMARK  11 active torsions:
REMARK  status: ('A' for Active; 'I' for Inactive)
REMARK    1  A    between atoms: C_4  and  N_21
REMARK    2  A    between atoms: N_6  and  C_7
REMARK    3  A    between atoms: C_7  and  C_8
REMARK    4  A    between atoms: C_8  and  C_9
REMARK    5  A    between atoms: C_17  and  O_18
REMARK    6  A    between atoms: N_21  and  S_22
REMARK    7  A    between atoms: S_22  and  N_25
REMARK    8  A    between atoms: N_25  and  C_26
REMARK    9  A    between atoms: N_25  and  C_28
REMARK   10  A    between atoms: C_26  and  C_27
REMARK   11  A    between atoms: C_28  and  C_29
REMARK                            x       y       z     vdW  Elec       q    Type
REMARK                         _______ _______ _______ _____ _____    ______ ____
ROOT
ATOM      1  C   UNL     1      -7.299   3.059 125.230  0.00  0.00    +0.000 C 
ATOM      2  C   UNL     1      -8.699   2.915 124.626  0.00  0.00    +0.000 C 
ATOM      3  C   UNL     1      -8.605   2.377 123.199  0.00  0.00    +0.000 C 
ATOM      4  C   UNL     1      -7.756   3.321 122.378  0.00  0.00    +0.000 C 
ATOM      5  N   UNL     1      -6.386   3.380 122.923  0.00  0.00    +0.000 NA
ATOM      6  C   UNL     1      -6.394   3.913 124.311  0.00  0.00    +0.000 C 
ATOM      7  C   UNL     1      -4.987   3.951 124.939  0.00  0.00    +0.000 C 
ATOM      8  C   UNL     1      -4.973   4.284 126.410  0.00  0.00    +0.000 A 
ATOM      9  C   UNL     1      -3.771   4.706 126.993  0.00  0.00    +0.000 A 
ATOM     10  C   UNL     1      -3.709   4.997 128.354  0.00  0.00    +0.000 A 
ATOM     11  C   UNL     1      -4.848   4.871 129.149  0.00  0.00    +0.000 A 
ATOM     12  C   UNL     1      -6.041   4.443 128.575  0.00  0.00    +0.000 A 
ATOM     13  C   UNL     1      -6.114   4.128 127.212  0.00  0.00    +0.000 A 
ATOM     14  C   UNL     1      -7.419   3.671 126.627  0.00  0.00    +0.000 C 
ENDROOT
BRANCH  12  15
ATOM     15  O   UNL     1      -7.176   4.316 129.328  0.00  0.00    +0.000 OA
ATOM     16  H   UNL     1      -6.939   4.349 130.269  0.00  0.00    +0.000 HD
ENDBRANCH  12  15
BRANCH   3  17
ATOM     17  N   UNL     1      -7.986   1.010 123.231  0.00  0.00    +0.000 NA
ATOM     18  H   UNL     1      -7.377   1.069 124.022  0.00  0.00    +0.000 HD
BRANCH  17  19
ATOM     19  S   UNL     1      -9.059  -0.272 123.348  0.00  0.00    +0.000 S 
ATOM     20  O   UNL     1      -9.347  -0.429 124.750  0.00  0.00    +0.000 OA
ATOM     21  O   UNL     1     -10.131  -0.103 122.392  0.00  0.00    +0.000 OA
BRANCH  19  22
ATOM     22  N   UNL     1      -8.212  -1.662 122.831  0.00  0.00    +0.000 NA
BRANCH  22  23
ATOM     23  C   UNL     1      -6.744  -1.513 122.649  0.00  0.00    +0.000 C 
ATOM     24  C   UNL     1      -5.922  -2.481 123.463  0.00  0.00    +0.000 C 
ENDBRANCH  22  23
BRANCH  22  25
ATOM     25  C   UNL     1      -8.514  -2.769 123.834  0.00  0.00    +0.000 C 
ATOM     26  C   UNL     1      -9.702  -3.636 123.459  0.00  0.00    +0.000 C 
ENDBRANCH  22  25
ENDBRANCH  19  22
ENDBRANCH  17  19
ENDBRANCH   3  17
BRANCH   5  27
ATOM     27  C   UNL     1      -5.522   4.122 122.007  0.00  0.00    +0.000 C 
BRANCH  27  28
ATOM     28  C   UNL     1      -6.052   4.132 120.570  0.00  0.00    +0.000 C 
ATOM     29  C   UNL     1      -5.392   5.223 119.764  0.00  0.00    +0.000 C 
ENDBRANCH  27  28
ENDBRANCH   5  27
TORSDOF 8
ENDMDL
MODEL 4
REMARK VINA RESULT:      -7.4      5.005      7.508
REMARK  Name = Quinagolide
REMARK  11 active torsions:
REMARK  status: ('A' for Active; 'I' for Inactive)
REMARK    1  A    between atoms: C_4  and  N_21
REMARK    2  A    between atoms: N_6  and  C_7
REMARK    3  A    between atoms: C_7  and  C_8
REMARK    4  A    between atoms: C_8  and  C_9
REMARK    5  A    between atoms: C_17  and  O_18
REMARK    6  A    between atoms: N_21  and  S_22
REMARK    7  A    between atoms: S_22  and  N_25
REMARK    8  A    between atoms: N_25  and  C_26
REMARK    9  A    between atoms: N_25  and  C_28
REMARK   10  A    between atoms: C_26  and  C_27
REMARK   11  A    between atoms: C_28  and  C_29
REMARK                            x       y       z     vdW  Elec       q    Type
REMARK                         _______ _______ _______ _____ _____    ______ ____
ROOT
ATOM      1  C   UNL     1      -7.500   3.862 126.566  0.00  0.00    +0.000 C 
ATOM      2  C   UNL     1      -8.107   3.210 127.811  0.00  0.00    +0.000 C 
ATOM      3  C   UNL     1      -7.709   3.991 129.063  0.00  0.00    +0.000 C 
ATOM      4  C   UNL     1      -6.200   4.029 129.152  0.00  0.00    +0.000 C 
ATOM      5  N   UNL     1      -5.637   4.738 127.987  0.00  0.00    +0.000 NA
ATOM      6  C   UNL     1      -5.970   4.025 126.726  0.00  0.00    +0.000 C 
ATOM      7  C   UNL     1      -5.440   4.754 125.475  0.00  0.00    +0.000 C 
ATOM      8  C   UNL     1      -5.931   4.182 124.170  0.00  0.00    +0.000 A 
ATOM      9  C   UNL     1      -5.247   4.509 122.992  0.00  0.00    +0.000 A 
ATOM     10  C   UNL     1      -5.684   4.023 121.761  0.00  0.00    +0.000 A 
ATOM     11  C   UNL     1      -6.811   3.205 121.692  0.00  0.00    +0.000 A 
ATOM     12  C   UNL     1      -7.499   2.887 122.859  0.00  0.00    +0.000 A 
ATOM     13  C   UNL     1      -7.083   3.383 124.101  0.00  0.00    +0.000 A 
ATOM     14  C   UNL     1      -7.850   3.017 125.339  0.00  0.00    +0.000 C 
ENDROOT
BRANCH  12  15
ATOM     15  O   UNL     1      -8.605   2.082 122.824  0.00  0.00    +0.000 OA
ATOM     16  H   UNL     1      -8.685   1.613 123.670  0.00  0.00    +0.000 HD
ENDBRANCH  12  15
BRANCH   3  17
ATOM     17  N   UNL     1      -8.263   5.382 128.968  0.00  0.00    +0.000 NA
ATOM     18  H   UNL     1      -8.567   5.428 128.016  0.00  0.00    +0.000 HD
BRANCH  17  19
ATOM     19  S   UNL     1      -9.491   5.751 130.047  0.00  0.00    +0.000 S 
ATOM     20  O   UNL     1      -9.885   4.504 130.649  0.00  0.00    +0.000 OA
ATOM     21  O   UNL     1      -9.099   6.874 130.870  0.00  0.00    +0.000 OA
BRANCH  19  22
ATOM     22  N   UNL     1     -10.804   6.317 129.113  0.00  0.00    +0.000 NA
BRANCH  22  23
ATOM     23  C   UNL     1     -12.160   6.122 129.689  0.00  0.00    +0.000 C 
ATOM     24  C   UNL     1     -12.629   7.262 130.558  0.00  0.00    +0.000 C 
ENDBRANCH  22  23
BRANCH  22  25
ATOM     25  C   UNL     1     -10.551   7.795 128.835  0.00  0.00    +0.000 C 
ATOM     26  C   UNL     1     -10.877   8.221 127.415  0.00  0.00    +0.000 C 
ENDBRANCH  22  25
ENDBRANCH  19  22
ENDBRANCH  17  19
ENDBRANCH   3  17
BRANCH   5  27
ATOM     27  C   UNL     1      -4.206   4.956 128.186  0.00  0.00    +0.000 C 
BRANCH  27  28
ATOM     28  C   UNL     1      -3.429   3.650 128.381  0.00  0.00    +0.000 C 
ATOM     29  C   UNL     1      -2.365   3.498 127.322  0.00  0.00    +0.000 C 
ENDBRANCH  27  28
ENDBRANCH   5  27
TORSDOF 8
ENDMDL
MODEL 5
REMARK VINA RESULT:      -7.3      5.646      8.217
REMARK  Name = Quinagolide
REMARK  11 active torsions:
REMARK  status: ('A' for Active; 'I' for Inactive)
REMARK    1  A    between atoms: C_4  and  N_21
REMARK    2  A    between atoms: N_6  and  C_7
REMARK    3  A    between atoms: C_7  and  C_8
REMARK    4  A    between atoms: C_8  and  C_9
REMARK    5  A    between atoms: C_17  and  O_18
REMARK    6  A    between atoms: N_21  and  S_22
REMARK    7  A    between atoms: S_22  and  N_25
REMARK    8  A    between atoms: N_25  and  C_26
REMARK    9  A    between atoms: N_25  and  C_28
REMARK   10  A    between atoms: C_26  and  C_27
REMARK   11  A    between atoms: C_28  and  C_29
REMARK                            x       y       z     vdW  Elec       q    Type
REMARK                         _______ _______ _______ _____ _____    ______ ____
ROOT
ATOM      1  C   UNL     1      -7.966  -2.268 127.832  0.00  0.00    +0.000 C 
ATOM      2  C   UNL     1      -8.544  -2.929 129.087  0.00  0.00    +0.000 C 
ATOM      3  C   UNL     1      -7.823  -2.415 130.333  0.00  0.00    +0.000 C 
ATOM      4  C   UNL     1      -6.346  -2.710 130.196  0.00  0.00    +0.000 C 
ATOM      5  N   UNL     1      -5.788  -1.996 129.032  0.00  0.00    +0.000 NA
ATOM      6  C   UNL     1      -6.431  -2.457 127.774  0.00  0.00    +0.000 C 
ATOM      7  C   UNL     1      -5.912  -1.705 126.533  0.00  0.00    +0.000 C 
ATOM      8  C   UNL     1      -6.681  -1.989 125.268  0.00  0.00    +0.000 A 
ATOM      9  C   UNL     1      -6.095  -1.669 124.036  0.00  0.00    +0.000 A 
ATOM     10  C   UNL     1      -6.783  -1.891 122.845  0.00  0.00    +0.000 A 
ATOM     11  C   UNL     1      -8.067  -2.435 122.870  0.00  0.00    +0.000 A 
ATOM     12  C   UNL     1      -8.656  -2.744 124.092  0.00  0.00    +0.000 A 
ATOM     13  C   UNL     1      -7.984  -2.509 125.298  0.00  0.00    +0.000 A 
ATOM     14  C   UNL     1      -8.652  -2.858 126.597  0.00  0.00    +0.000 C 
ENDROOT
BRANCH  12  15
ATOM     15  O   UNL     1      -9.912  -3.285 124.148  0.00  0.00    +0.000 OA
ATOM     16  H   UNL     1     -10.268  -3.358 123.248  0.00  0.00    +0.000 HD
ENDBRANCH  12  15
BRANCH   3  17
ATOM     17  N   UNL     1      -8.052  -0.938 130.456  0.00  0.00    +0.000 NA
ATOM     18  H   UNL     1      -8.818  -0.786 129.831  0.00  0.00    +0.000 HD
BRANCH  17  19
ATOM     19  S   UNL     1      -8.372  -0.378 132.002  0.00  0.00    +0.000 S 
ATOM     20  O   UNL     1      -9.656   0.272 131.937  0.00  0.00    +0.000 OA
ATOM     21  O   UNL     1      -8.128  -1.429 132.965  0.00  0.00    +0.000 OA
BRANCH  19  22
ATOM     22  N   UNL     1      -7.200   0.818 132.337  0.00  0.00    +0.000 NA
BRANCH  22  23
ATOM     23  C   UNL     1      -6.000   0.833 131.460  0.00  0.00    +0.000 C 
ATOM     24  C   UNL     1      -4.791   0.160 132.060  0.00  0.00    +0.000 C 
ENDBRANCH  22  23
BRANCH  22  25
ATOM     25  C   UNL     1      -7.909   2.167 132.290  0.00  0.00    +0.000 C 
ATOM     26  C   UNL     1      -7.961   2.886 133.626  0.00  0.00    +0.000 C 
ENDBRANCH  22  25
ENDBRANCH  19  22
ENDBRANCH  17  19
ENDBRANCH   3  17
BRANCH   5  27
ATOM     27  C   UNL     1      -4.332  -2.115 129.032  0.00  0.00    +0.000 C 
BRANCH  27  28
ATOM     28  C   UNL     1      -3.844  -3.420 129.669  0.00  0.00    +0.000 C 
ATOM     29  C   UNL     1      -2.709  -4.013 128.871  0.00  0.00    +0.000 C 
ENDBRANCH  27  28
ENDBRANCH   5  27
TORSDOF 8
ENDMDL
MODEL 6
REMARK VINA RESULT:      -7.2      4.653      8.520
REMARK  Name = Quinagolide
REMARK  11 active torsions:
REMARK  status: ('A' for Active; 'I' for Inactive)
REMARK    1  A    between atoms: C_4  and  N_21
REMARK    2  A    between atoms: N_6  and  C_7
REMARK    3  A    between atoms: C_7  and  C_8
REMARK    4  A    between atoms: C_8  and  C_9
REMARK    5  A    between atoms: C_17  and  O_18
REMARK    6  A    between atoms: N_21  and  S_22
REMARK    7  A    between atoms: S_22  and  N_25
REMARK    8  A    between atoms: N_25  and  C_26
REMARK    9  A    between atoms: N_25  and  C_28
REMARK   10  A    between atoms: C_26  and  C_27
REMARK   11  A    between atoms: C_28  and  C_29
REMARK                            x       y       z     vdW  Elec       q    Type
REMARK                         _______ _______ _______ _____ _____    ______ ____
ROOT
ATOM      1  C   UNL     1      -8.050   1.398 128.064  0.00  0.00    +0.000 C 
ATOM      2  C   UNL     1      -7.218   2.431 128.830  0.00  0.00    +0.000 C 
ATOM      3  C   UNL     1      -7.628   3.845 128.423  0.00  0.00    +0.000 C 
ATOM      4  C   UNL     1      -7.437   3.996 126.930  0.00  0.00    +0.000 C 
ATOM      5  N   UNL     1      -8.311   3.052 126.206  0.00  0.00    +0.000 NA
ATOM      6  C   UNL     1      -7.960   1.647 126.540  0.00  0.00    +0.000 C 
ATOM      7  C   UNL     1      -8.878   0.625 125.842  0.00  0.00    +0.000 C 
ATOM      8  C   UNL     1      -8.695  -0.796 126.312  0.00  0.00    +0.000 A 
ATOM      9  C   UNL     1      -9.187  -1.838 125.515  0.00  0.00    +0.000 A 
ATOM     10  C   UNL     1      -9.063  -3.163 125.926  0.00  0.00    +0.000 A 
ATOM     11  C   UNL     1      -8.445  -3.464 127.139  0.00  0.00    +0.000 A 
ATOM     12  C   UNL     1      -7.964  -2.431 127.938  0.00  0.00    +0.000 A 
ATOM     13  C   UNL     1      -8.099  -1.093 127.547  0.00  0.00    +0.000 A 
ATOM     14  C   UNL     1      -7.566  -0.006 128.435  0.00  0.00    +0.000 C 
ENDROOT
BRANCH  12  15
ATOM     15  O   UNL     1      -7.348  -2.696 129.130  0.00  0.00    +0.000 OA
ATOM     16  H   UNL     1      -8.018  -2.755 129.830  0.00  0.00    +0.000 HD
ENDBRANCH  12  15
BRANCH   3  17
ATOM     17  N   UNL     1      -9.065   4.063 128.791  0.00  0.00    +0.000 NA
ATOM     18  H   UNL     1      -9.331   3.172 129.160  0.00  0.00    +0.000 HD
BRANCH  17  19
ATOM     19  S   UNL     1      -9.359   5.311 129.871  0.00  0.00    +0.000 S 
ATOM     20  O   UNL     1      -9.764   4.689 131.104  0.00  0.00    +0.000 OA
ATOM     21  O   UNL     1      -8.258   6.248 129.848  0.00  0.00    +0.000 OA
BRANCH  19  22
ATOM     22  N   UNL     1     -10.698   6.177 129.259  0.00  0.00    +0.000 NA
BRANCH  22  23
ATOM     23  C   UNL     1     -12.003   5.940 129.931  0.00  0.00    +0.000 C 
ATOM     24  C   UNL     1     -12.394   7.016 130.911  0.00  0.00    +0.000 C 
ENDBRANCH  22  23
BRANCH  22  25
ATOM     25  C   UNL     1     -10.335   7.657 129.309  0.00  0.00    +0.000 C 
ATOM     26  C   UNL     1     -10.597   8.402 128.013  0.00  0.00    +0.000 C 
ENDBRANCH  22  25
ENDBRANCH  19  22
ENDBRANCH  17  19
ENDBRANCH   3  17
BRANCH   5  27
ATOM     27  C   UNL     1      -8.279   3.348 124.776  0.00  0.00    +0.000 C 
BRANCH  27  28
ATOM     28  C   UNL     1      -6.895   3.791 124.293  0.00  0.00    +0.000 C 
ATOM     29  C   UNL     1      -6.594   3.219 122.930  0.00  0.00    +0.000 C 
ENDBRANCH  27  28
ENDBRANCH   5  27
TORSDOF 8
ENDMDL
MODEL 7
REMARK VINA RESULT:      -7.1      3.222      8.136
REMARK  Name = Quinagolide
REMARK  11 active torsions:
REMARK  status: ('A' for Active; 'I' for Inactive)
REMARK    1  A    between atoms: C_4  and  N_21
REMARK    2  A    between atoms: N_6  and  C_7
REMARK    3  A    between atoms: C_7  and  C_8
REMARK    4  A    between atoms: C_8  and  C_9
REMARK    5  A    between atoms: C_17  and  O_18
REMARK    6  A    between atoms: N_21  and  S_22
REMARK    7  A    between atoms: S_22  and  N_25
REMARK    8  A    between atoms: N_25  and  C_26
REMARK    9  A    between atoms: N_25  and  C_28
REMARK   10  A    between atoms: C_26  and  C_27
REMARK   11  A    between atoms: C_28  and  C_29
REMARK                            x       y       z     vdW  Elec       q    Type
REMARK                         _______ _______ _______ _____ _____    ______ ____
ROOT
ATOM      1  C   UNL     1      -6.083  -0.970 127.091  0.00  0.00    +0.000 C 
ATOM      2  C   UNL     1      -5.618  -0.279 125.806  0.00  0.00    +0.000 C 
ATOM      3  C   UNL     1      -6.820   0.260 125.031  0.00  0.00    +0.000 C 
ATOM      4  C   UNL     1      -7.753  -0.890 124.721  0.00  0.00    +0.000 C 
ATOM      5  N   UNL     1      -8.259  -1.488 125.972  0.00  0.00    +0.000 NA
ATOM      6  C   UNL     1      -7.143  -2.052 126.775  0.00  0.00    +0.000 C 
ATOM      7  C   UNL     1      -7.619  -2.648 128.114  0.00  0.00    +0.000 C 
ATOM      8  C   UNL     1      -6.504  -3.040 129.050  0.00  0.00    +0.000 A 
ATOM      9  C   UNL     1      -6.788  -3.912 130.109  0.00  0.00    +0.000 A 
ATOM     10  C   UNL     1      -5.793  -4.278 131.013  0.00  0.00    +0.000 A 
ATOM     11  C   UNL     1      -4.500  -3.776 130.869  0.00  0.00    +0.000 A 
ATOM     12  C   UNL     1      -4.216  -2.901 129.825  0.00  0.00    +0.000 A 
ATOM     13  C   UNL     1      -5.211  -2.510 128.920  0.00  0.00    +0.000 A 
ATOM     14  C   UNL     1      -4.867  -1.565 127.805  0.00  0.00    +0.000 C 
ENDROOT
BRANCH  12  15
ATOM     15  O   UNL     1      -2.956  -2.397 129.655  0.00  0.00    +0.000 OA
ATOM     16  H   UNL     1      -2.932  -1.482 129.978  0.00  0.00    +0.000 HD
ENDBRANCH  12  15
BRANCH   3  17
ATOM     17  N   UNL     1      -7.519   1.290 125.869  0.00  0.00    +0.000 NA
ATOM     18  H   UNL     1      -7.062   1.195 126.753  0.00  0.00    +0.000 HD
BRANCH  17  19
ATOM     19  S   UNL     1      -7.462   2.860 125.288  0.00  0.00    +0.000 S 
ATOM     20  O   UNL     1      -8.758   3.432 125.545  0.00  0.00    +0.000 OA
ATOM     21  O   UNL     1      -6.263   3.515 125.762  0.00  0.00    +0.000 OA
BRANCH  19  22
ATOM     22  N   UNL     1      -7.270   2.744 123.595  0.00  0.00    +0.000 NA
BRANCH  22  23
ATOM     23  C   UNL     1      -8.487   2.972 122.773  0.00  0.00    +0.000 C 
ATOM     24  C   UNL     1      -9.385   1.766 122.656  0.00  0.00    +0.000 C 
ENDBRANCH  22  23
BRANCH  22  25
ATOM     25  C   UNL     1      -6.171   3.726 123.200  0.00  0.00    +0.000 C 
ATOM     26  C   UNL     1      -5.973   3.861 121.701  0.00  0.00    +0.000 C 
ENDBRANCH  22  25
ENDBRANCH  19  22
ENDBRANCH  17  19
ENDBRANCH   3  17
BRANCH   5  27
ATOM     27  C   UNL     1      -9.315  -2.450 125.666  0.00  0.00    +0.000 C 
BRANCH  27  28
ATOM     28  C   UNL     1      -8.869  -3.521 124.665  0.00  0.00    +0.000 C 
ATOM     29  C   UNL     1      -9.666  -3.424 123.387  0.00  0.00    +0.000 C 
ENDBRANCH  27  28
ENDBRANCH   5  27
TORSDOF 8
ENDMDL
MODEL 8
REMARK VINA RESULT:      -6.9      2.809      5.654
REMARK  Name = Quinagolide
REMARK  11 active torsions:
REMARK  status: ('A' for Active; 'I' for Inactive)
REMARK    1  A    between atoms: C_4  and  N_21
REMARK    2  A    between atoms: N_6  and  C_7
REMARK    3  A    between atoms: C_7  and  C_8
REMARK    4  A    between atoms: C_8  and  C_9
REMARK    5  A    between atoms: C_17  and  O_18
REMARK    6  A    between atoms: N_21  and  S_22
REMARK    7  A    between atoms: S_22  and  N_25
REMARK    8  A    between atoms: N_25  and  C_26
REMARK    9  A    between atoms: N_25  and  C_28
REMARK   10  A    between atoms: C_26  and  C_27
REMARK   11  A    between atoms: C_28  and  C_29
REMARK                            x       y       z     vdW  Elec       q    Type
REMARK                         _______ _______ _______ _____ _____    ______ ____
ROOT
ATOM      1  C   UNL     1      -6.505   2.709 126.411  0.00  0.00    +0.000 C 
ATOM      2  C   UNL     1      -7.980   2.405 126.138  0.00  0.00    +0.000 C 
ATOM      3  C   UNL     1      -8.167   1.953 124.690  0.00  0.00    +0.000 C 
ATOM      4  C   UNL     1      -7.661   3.043 123.772  0.00  0.00    +0.000 C 
ATOM      5  N   UNL     1      -6.217   3.262 123.988  0.00  0.00    +0.000 NA
ATOM      6  C   UNL     1      -5.957   3.722 125.378  0.00  0.00    +0.000 C 
ATOM      7  C   UNL     1      -4.456   3.921 125.664  0.00  0.00    +0.000 C 
ATOM      8  C   UNL     1      -4.130   4.183 127.113  0.00  0.00    +0.000 A 
ATOM      9  C   UNL     1      -2.883   4.736 127.434  0.00  0.00    +0.000 A 
ATOM     10  C   UNL     1      -2.532   4.968 128.762  0.00  0.00    +0.000 A 
ATOM     11  C   UNL     1      -3.424   4.650 129.786  0.00  0.00    +0.000 A 
ATOM     12  C   UNL     1      -4.658   4.091 129.472  0.00  0.00    +0.000 A 
ATOM     13  C   UNL     1      -5.017   3.834 128.143  0.00  0.00    +0.000 A 
ATOM     14  C   UNL     1      -6.359   3.231 127.842  0.00  0.00    +0.000 C 
ENDROOT
BRANCH  12  15
ATOM     15  O   UNL     1      -5.555   3.774 130.455  0.00  0.00    +0.000 OA
ATOM     16  H   UNL     1      -6.423   4.145 130.226  0.00  0.00    +0.000 HD
ENDBRANCH  12  15
BRANCH   3  17
ATOM     17  N   UNL     1      -7.398   0.684 124.471  0.00  0.00    +0.000 NA
ATOM     18  H   UNL     1      -6.501   0.908 124.852  0.00  0.00    +0.000 HD
BRANCH  17  19
ATOM     19  S   UNL     1      -8.056  -0.694 125.159  0.00  0.00    +0.000 S 
ATOM     20  O   UNL     1      -7.283  -0.961 126.344  0.00  0.00    +0.000 OA
ATOM     21  O   UNL     1      -9.495  -0.566 125.233  0.00  0.00    +0.000 OA
BRANCH  19  22
ATOM     22  N   UNL     1      -7.776  -1.968 124.056  0.00  0.00    +0.000 NA
BRANCH  22  23
ATOM     23  C   UNL     1      -8.860  -2.249 123.079  0.00  0.00    +0.000 C 
ATOM     24  C   UNL     1      -9.684  -3.468 123.407  0.00  0.00    +0.000 C 
ENDBRANCH  22  23
BRANCH  22  25
ATOM     25  C   UNL     1      -6.473  -1.653 123.329  0.00  0.00    +0.000 C 
ATOM     26  C   UNL     1      -5.385  -2.692 123.532  0.00  0.00    +0.000 C 
ENDBRANCH  22  25
ENDBRANCH  19  22
ENDBRANCH  17  19
ENDBRANCH   3  17
BRANCH   5  27
ATOM     27  C   UNL     1      -5.696   4.158 122.959  0.00  0.00    +0.000 C 
BRANCH  27  28
ATOM     28  C   UNL     1      -6.098   3.733 121.543  0.00  0.00    +0.000 C 
ATOM     29  C   UNL     1      -5.357   4.544 120.509  0.00  0.00    +0.000 C 
ENDBRANCH  27  28
ENDBRANCH   5  27
TORSDOF 8
ENDMDL
MODEL 9
REMARK VINA RESULT:      -6.8      4.699      7.574
REMARK  Name = Quinagolide
REMARK  11 active torsions:
REMARK  status: ('A' for Active; 'I' for Inactive)
REMARK    1  A    between atoms: C_4  and  N_21
REMARK    2  A    between atoms: N_6  and  C_7
REMARK    3  A    between atoms: C_7  and  C_8
REMARK    4  A    between atoms: C_8  and  C_9
REMARK    5  A    between atoms: C_17  and  O_18
REMARK    6  A    between atoms: N_21  and  S_22
REMARK    7  A    between atoms: S_22  and  N_25
REMARK    8  A    between atoms: N_25  and  C_26
REMARK    9  A    between atoms: N_25  and  C_28
REMARK   10  A    between atoms: C_26  and  C_27
REMARK   11  A    between atoms: C_28  and  C_29
REMARK                            x       y       z     vdW  Elec       q    Type
REMARK                         _______ _______ _______ _____ _____    ______ ____
ROOT
ATOM      1  C   UNL     1      -7.847   0.513 127.066  0.00  0.00    +0.000 C 
ATOM      2  C   UNL     1      -7.827   0.673 128.588  0.00  0.00    +0.000 C 
ATOM      3  C   UNL     1      -7.115   1.969 128.973  0.00  0.00    +0.000 C 
ATOM      4  C   UNL     1      -5.710   1.937 128.414  0.00  0.00    +0.000 C 
ATOM      5  N   UNL     1      -5.749   1.870 126.940  0.00  0.00    +0.000 NA
ATOM      6  C   UNL     1      -6.416   0.621 126.487  0.00  0.00    +0.000 C 
ATOM      7  C   UNL     1      -6.520   0.528 124.952  0.00  0.00    +0.000 C 
ATOM      8  C   UNL     1      -7.371  -0.614 124.457  0.00  0.00    +0.000 A 
ATOM      9  C   UNL     1      -7.243  -1.019 123.121  0.00  0.00    +0.000 A 
ATOM     10  C   UNL     1      -8.030  -2.052 122.616  0.00  0.00    +0.000 A 
ATOM     11  C   UNL     1      -8.955  -2.693 123.440  0.00  0.00    +0.000 A 
ATOM     12  C   UNL     1      -9.092  -2.286 124.763  0.00  0.00    +0.000 A 
ATOM     13  C   UNL     1      -8.322  -1.237 125.280  0.00  0.00    +0.000 A 
ATOM     14  C   UNL     1      -8.496  -0.828 126.714  0.00  0.00    +0.000 C 
ENDROOT
BRANCH  12  15
ATOM     15  O   UNL     1      -9.987  -2.901 125.597  0.00  0.00    +0.000 OA
ATOM     16  H   UNL     1      -9.507  -3.492 126.198  0.00  0.00    +0.000 HD
ENDBRANCH  12  15
BRANCH   3  17
ATOM     17  N   UNL     1      -7.876   3.132 128.408  0.00  0.00    +0.000 NA
ATOM     18  H   UNL     1      -8.566   2.682 127.840  0.00  0.00    +0.000 HD
BRANCH  17  19
ATOM     19  S   UNL     1      -8.557   4.172 129.532  0.00  0.00    +0.000 S 
ATOM     20  O   UNL     1      -7.871   5.429 129.384  0.00  0.00    +0.000 OA
ATOM     21  O   UNL     1      -9.999   4.107 129.449  0.00  0.00    +0.000 OA
BRANCH  19  22
ATOM     22  N   UNL     1      -8.167   3.544 131.072  0.00  0.00    +0.000 NA
BRANCH  22  23
ATOM     23  C   UNL     1      -7.370   4.425 131.964  0.00  0.00    +0.000 C 
ATOM     24  C   UNL     1      -8.201   5.298 132.870  0.00  0.00    +0.000 C 
ENDBRANCH  22  23
BRANCH  22  25
ATOM     25  C   UNL     1      -9.480   3.155 131.742  0.00  0.00    +0.000 C 
ATOM     26  C   UNL     1      -9.650   1.661 131.950  0.00  0.00    +0.000 C 
ENDBRANCH  22  25
ENDBRANCH  19  22
ENDBRANCH  17  19
ENDBRANCH   3  17
BRANCH   5  27
ATOM     27  C   UNL     1      -4.403   2.052 126.403  0.00  0.00    +0.000 C 
BRANCH  27  28
ATOM     28  C   UNL     1      -3.475   2.796 127.368  0.00  0.00    +0.000 C 
ATOM     29  C   UNL     1      -2.151   3.099 126.711  0.00  0.00    +0.000 C 
ENDBRANCH  27  28
ENDBRANCH   5  27
TORSDOF 8
ENDMDL
