MODEL 1
REMARK VINA RESULT:      -7.7      0.000      0.000
REMARK  Name = Quinupramine
REMARK  1 active torsions:
REMARK  status: ('A' for Active; 'I' for Inactive)
REMARK    1  A    between atoms: C_7  and  N_9
REMARK                            x       y       z     vdW  Elec       q    Type
REMARK                         _______ _______ _______ _____ _____    ______ ____
ROOT
ATOM      1  N   UNL     1      -7.179   1.469 124.027  0.00  0.00    +0.000 N 
ATOM      2  C   UNL     1      -7.405   0.092 124.055  0.00  0.00    +0.000 A 
ATOM      3  C   UNL     1      -6.420  -0.806 124.508  0.00  0.00    +0.000 A 
ATOM      4  C   UNL     1      -6.521  -2.195 124.312  0.00  0.00    +0.000 A 
ATOM      5  C   UNL     1      -7.622  -2.737 123.665  0.00  0.00    +0.000 A 
ATOM      6  C   UNL     1      -8.630  -1.887 123.235  0.00  0.00    +0.000 A 
ATOM      7  C   UNL     1      -8.545  -0.486 123.424  0.00  0.00    +0.000 A 
ATOM      8  C   UNL     1      -9.733   0.294 122.873  0.00  0.00    +0.000 C 
ATOM      9  C   UNL     1      -9.787   1.804 123.103  0.00  0.00    +0.000 C 
ATOM     10  C   UNL     1      -8.643   2.469 122.386  0.00  0.00    +0.000 A 
ATOM     11  C   UNL     1      -8.807   3.335 121.307  0.00  0.00    +0.000 A 
ATOM     12  C   UNL     1      -7.684   3.915 120.703  0.00  0.00    +0.000 A 
ATOM     13  C   UNL     1      -6.395   3.640 121.150  0.00  0.00    +0.000 A 
ATOM     14  C   UNL     1      -6.223   2.761 122.207  0.00  0.00    +0.000 A 
ATOM     15  C   UNL     1      -7.347   2.198 122.823  0.00  0.00    +0.000 A 
ENDROOT
BRANCH   1  22
ATOM     16  C   UNL     1      -7.274   4.177 126.765  0.00  0.00    +0.000 C 
ATOM     17  C   UNL     1      -5.987   3.757 127.499  0.00  0.00    +0.000 C 
ATOM     18  N   UNL     1      -5.663   2.329 127.281  0.00  0.00    +0.000 NA
ATOM     19  C   UNL     1      -6.810   1.501 127.727  0.00  0.00    +0.000 C 
ATOM     20  C   UNL     1      -8.130   1.872 127.031  0.00  0.00    +0.000 C 
ATOM     21  C   UNL     1      -7.858   2.959 126.003  0.00  0.00    +0.000 C 
ATOM     22  C   UNL     1      -6.757   2.464 125.050  0.00  0.00    +0.000 C 
ATOM     23  C   UNL     1      -5.480   2.105 125.827  0.00  0.00    +0.000 C 
ENDBRANCH   1  22
TORSDOF 1
ENDMDL
MODEL 2
REMARK VINA RESULT:      -7.6      3.645      7.538
REMARK  Name = Quinupramine
REMARK  1 active torsions:
REMARK  status: ('A' for Active; 'I' for Inactive)
REMARK    1  A    between atoms: C_7  and  N_9
REMARK                            x       y       z     vdW  Elec       q    Type
REMARK                         _______ _______ _______ _____ _____    ______ ____
ROOT
ATOM      1  N   UNL     1      -6.871  -1.656 127.890  0.00  0.00    +0.000 N 
ATOM      2  C   UNL     1      -7.417  -0.465 128.370  0.00  0.00    +0.000 A 
ATOM      3  C   UNL     1      -7.271   0.747 127.668  0.00  0.00    +0.000 A 
ATOM      4  C   UNL     1      -7.583   1.993 128.243  0.00  0.00    +0.000 A 
ATOM      5  C   UNL     1      -8.068   2.067 129.540  0.00  0.00    +0.000 A 
ATOM      6  C   UNL     1      -8.257   0.893 130.253  0.00  0.00    +0.000 A 
ATOM      7  C   UNL     1      -7.948  -0.369 129.690  0.00  0.00    +0.000 A 
ATOM      8  C   UNL     1      -8.202  -1.550 130.621  0.00  0.00    +0.000 C 
ATOM      9  C   UNL     1      -7.988  -2.965 130.084  0.00  0.00    +0.000 C 
ATOM     10  C   UNL     1      -6.535  -3.165 129.746  0.00  0.00    +0.000 A 
ATOM     11  C   UNL     1      -5.700  -4.052 130.424  0.00  0.00    +0.000 A 
ATOM     12  C   UNL     1      -4.359  -4.180 130.037  0.00  0.00    +0.000 A 
ATOM     13  C   UNL     1      -3.830  -3.431 128.990  0.00  0.00    +0.000 A 
ATOM     14  C   UNL     1      -4.648  -2.531 128.327  0.00  0.00    +0.000 A 
ATOM     15  C   UNL     1      -5.993  -2.419 128.701  0.00  0.00    +0.000 A 
ENDROOT
BRANCH   1  22
ATOM     16  C   UNL     1      -8.187  -3.950 125.091  0.00  0.00    +0.000 C 
ATOM     17  C   UNL     1      -7.588  -3.174 123.904  0.00  0.00    +0.000 C 
ATOM     18  N   UNL     1      -7.356  -1.748 124.232  0.00  0.00    +0.000 NA
ATOM     19  C   UNL     1      -8.639  -1.137 124.660  0.00  0.00    +0.000 C 
ATOM     20  C   UNL     1      -9.292  -1.870 125.844  0.00  0.00    +0.000 C 
ATOM     21  C   UNL     1      -8.373  -2.994 126.297  0.00  0.00    +0.000 C 
ATOM     22  C   UNL     1      -6.989  -2.398 126.606  0.00  0.00    +0.000 C 
ATOM     23  C   UNL     1      -6.416  -1.677 125.375  0.00  0.00    +0.000 C 
ENDBRANCH   1  22
TORSDOF 1
ENDMDL
MODEL 3
REMARK VINA RESULT:      -7.6      2.791      5.182
REMARK  Name = Quinupramine
REMARK  1 active torsions:
REMARK  status: ('A' for Active; 'I' for Inactive)
REMARK    1  A    between atoms: C_7  and  N_9
REMARK                            x       y       z     vdW  Elec       q    Type
REMARK                         _______ _______ _______ _____ _____    ______ ____
ROOT
ATOM      1  N   UNL     1      -7.033  -1.103 126.984  0.00  0.00    +0.000 N 
ATOM      2  C   UNL     1      -7.158  -1.516 128.311  0.00  0.00    +0.000 A 
ATOM      3  C   UNL     1      -6.408  -0.918 129.342  0.00  0.00    +0.000 A 
ATOM      4  C   UNL     1      -6.324  -1.474 130.631  0.00  0.00    +0.000 A 
ATOM      5  C   UNL     1      -7.000  -2.645 130.938  0.00  0.00    +0.000 A 
ATOM      6  C   UNL     1      -7.777  -3.246 129.959  0.00  0.00    +0.000 A 
ATOM      7  C   UNL     1      -7.874  -2.700 128.656  0.00  0.00    +0.000 A 
ATOM      8  C   UNL     1      -8.756  -3.500 127.705  0.00  0.00    +0.000 C 
ATOM      9  C   UNL     1      -9.003  -2.952 126.300  0.00  0.00    +0.000 C 
ATOM     10  C   UNL     1      -7.707  -2.914 125.534  0.00  0.00    +0.000 A 
ATOM     11  C   UNL     1      -7.446  -3.707 124.418  0.00  0.00    +0.000 A 
ATOM     12  C   UNL     1      -6.213  -3.600 123.762  0.00  0.00    +0.000 A 
ATOM     13  C   UNL     1      -5.227  -2.722 124.204  0.00  0.00    +0.000 A 
ATOM     14  C   UNL     1      -5.472  -1.948 125.327  0.00  0.00    +0.000 A 
ATOM     15  C   UNL     1      -6.712  -2.040 125.970  0.00  0.00    +0.000 A 
ENDROOT
BRANCH   1  22
ATOM     16  C   UNL     1      -8.524   2.056 125.360  0.00  0.00    +0.000 C 
ATOM     17  C   UNL     1      -7.377   3.018 125.715  0.00  0.00    +0.000 C 
ATOM     18  N   UNL     1      -6.617   2.564 126.903  0.00  0.00    +0.000 NA
ATOM     19  C   UNL     1      -7.551   2.423 128.047  0.00  0.00    +0.000 C 
ATOM     20  C   UNL     1      -8.725   1.473 127.755  0.00  0.00    +0.000 C 
ATOM     21  C   UNL     1      -8.544   0.877 126.367  0.00  0.00    +0.000 C 
ATOM     22  C   UNL     1      -7.159   0.212 126.299  0.00  0.00    +0.000 C 
ATOM     23  C   UNL     1      -6.048   1.226 126.614  0.00  0.00    +0.000 C 
ENDBRANCH   1  22
TORSDOF 1
ENDMDL
MODEL 4
REMARK VINA RESULT:      -7.4      4.561      7.488
REMARK  Name = Quinupramine
REMARK  1 active torsions:
REMARK  status: ('A' for Active; 'I' for Inactive)
REMARK    1  A    between atoms: C_7  and  N_9
REMARK                            x       y       z     vdW  Elec       q    Type
REMARK                         _______ _______ _______ _____ _____    ______ ____
ROOT
ATOM      1  N   UNL     1      -7.173  -1.513 129.682  0.00  0.00    +0.000 N 
ATOM      2  C   UNL     1      -7.630  -0.317 130.237  0.00  0.00    +0.000 A 
ATOM      3  C   UNL     1      -7.889  -0.197 131.615  0.00  0.00    +0.000 A 
ATOM      4  C   UNL     1      -8.583   0.899 132.159  0.00  0.00    +0.000 A 
ATOM      5  C   UNL     1      -9.031   1.924 131.340  0.00  0.00    +0.000 A 
ATOM      6  C   UNL     1      -8.766   1.860 129.980  0.00  0.00    +0.000 A 
ATOM      7  C   UNL     1      -8.068   0.764 129.416  0.00  0.00    +0.000 A 
ATOM      8  C   UNL     1      -7.881   0.850 127.905  0.00  0.00    +0.000 C 
ATOM      9  C   UNL     1      -7.063  -0.235 127.206  0.00  0.00    +0.000 C 
ATOM     10  C   UNL     1      -7.761  -1.562 127.339  0.00  0.00    +0.000 A 
ATOM     11  C   UNL     1      -8.303  -2.261 126.261  0.00  0.00    +0.000 A 
ATOM     12  C   UNL     1      -8.930  -3.495 126.477  0.00  0.00    +0.000 A 
ATOM     13  C   UNL     1      -9.037  -4.044 127.751  0.00  0.00    +0.000 A 
ATOM     14  C   UNL     1      -8.522  -3.344 128.830  0.00  0.00    +0.000 A 
ATOM     15  C   UNL     1      -7.877  -2.120 128.611  0.00  0.00    +0.000 A 
ENDROOT
BRANCH   1  22
ATOM     16  C   UNL     1      -3.691  -3.153 129.545  0.00  0.00    +0.000 C 
ATOM     17  C   UNL     1      -3.606  -3.553 131.029  0.00  0.00    +0.000 C 
ATOM     18  N   UNL     1      -4.460  -2.699 131.886  0.00  0.00    +0.000 NA
ATOM     19  C   UNL     1      -4.062  -1.282 131.705  0.00  0.00    +0.000 C 
ATOM     20  C   UNL     1      -4.123  -0.819 130.239  0.00  0.00    +0.000 C 
ATOM     21  C   UNL     1      -4.663  -1.956 129.385  0.00  0.00    +0.000 C 
ATOM     22  C   UNL     1      -6.015  -2.403 129.966  0.00  0.00    +0.000 C 
ATOM     23  C   UNL     1      -5.865  -2.837 131.433  0.00  0.00    +0.000 C 
ENDBRANCH   1  22
TORSDOF 1
ENDMDL
MODEL 5
REMARK VINA RESULT:      -7.2      2.407      3.845
REMARK  Name = Quinupramine
REMARK  1 active torsions:
REMARK  status: ('A' for Active; 'I' for Inactive)
REMARK    1  A    between atoms: C_7  and  N_9
REMARK                            x       y       z     vdW  Elec       q    Type
REMARK                         _______ _______ _______ _____ _____    ______ ____
ROOT
ATOM      1  N   UNL     1      -5.948  -0.127 126.108  0.00  0.00    +0.000 N 
ATOM      2  C   UNL     1      -6.004  -1.051 125.063  0.00  0.00    +0.000 A 
ATOM      3  C   UNL     1      -5.273  -2.254 125.106  0.00  0.00    +0.000 A 
ATOM      4  C   UNL     1      -5.108  -3.076 123.977  0.00  0.00    +0.000 A 
ATOM      5  C   UNL     1      -5.683  -2.728 122.764  0.00  0.00    +0.000 A 
ATOM      6  C   UNL     1      -6.439  -1.567 122.690  0.00  0.00    +0.000 A 
ATOM      7  C   UNL     1      -6.616  -0.729 123.817  0.00  0.00    +0.000 A 
ATOM      8  C   UNL     1      -7.461   0.512 123.550  0.00  0.00    +0.000 C 
ATOM      9  C   UNL     1      -7.789   1.439 124.719  0.00  0.00    +0.000 C 
ATOM     10  C   UNL     1      -6.523   2.057 125.249  0.00  0.00    +0.000 A 
ATOM     11  C   UNL     1      -6.234   3.418 125.166  0.00  0.00    +0.000 A 
ATOM     12  C   UNL     1      -5.032   3.907 125.693  0.00  0.00    +0.000 A 
ATOM     13  C   UNL     1      -4.105   3.062 126.296  0.00  0.00    +0.000 A 
ATOM     14  C   UNL     1      -4.375   1.705 126.362  0.00  0.00    +0.000 A 
ATOM     15  C   UNL     1      -5.586   1.220 125.853  0.00  0.00    +0.000 A 
ENDROOT
BRANCH   1  22
ATOM     16  C   UNL     1      -7.713  -0.163 129.531  0.00  0.00    +0.000 C 
ATOM     17  C   UNL     1      -6.757  -1.143 130.233  0.00  0.00    +0.000 C 
ATOM     18  N   UNL     1      -6.060  -2.027 129.271  0.00  0.00    +0.000 NA
ATOM     19  C   UNL     1      -7.071  -2.766 128.475  0.00  0.00    +0.000 C 
ATOM     20  C   UNL     1      -8.062  -1.841 127.748  0.00  0.00    +0.000 C 
ATOM     21  C   UNL     1      -7.662  -0.395 127.999  0.00  0.00    +0.000 C 
ATOM     22  C   UNL     1      -6.196  -0.213 127.572  0.00  0.00    +0.000 C 
ATOM     23  C   UNL     1      -5.278  -1.181 128.338  0.00  0.00    +0.000 C 
ENDBRANCH   1  22
TORSDOF 1
ENDMDL
MODEL 6
REMARK VINA RESULT:      -6.9      6.791      9.333
REMARK  Name = Quinupramine
REMARK  1 active torsions:
REMARK  status: ('A' for Active; 'I' for Inactive)
REMARK    1  A    between atoms: C_7  and  N_9
REMARK                            x       y       z     vdW  Elec       q    Type
REMARK                         _______ _______ _______ _____ _____    ______ ____
ROOT
ATOM      1  N   UNL     1      -4.464   5.481 131.049  0.00  0.00    +0.000 N 
ATOM      2  C   UNL     1      -4.031   4.932 129.841  0.00  0.00    +0.000 A 
ATOM      3  C   UNL     1      -4.029   3.541 129.625  0.00  0.00    +0.000 A 
ATOM      4  C   UNL     1      -3.369   2.950 128.532  0.00  0.00    +0.000 A 
ATOM      5  C   UNL     1      -2.698   3.735 127.607  0.00  0.00    +0.000 A 
ATOM      6  C   UNL     1      -2.706   5.113 127.767  0.00  0.00    +0.000 A 
ATOM      7  C   UNL     1      -3.365   5.724 128.861  0.00  0.00    +0.000 A 
ATOM      8  C   UNL     1      -3.257   7.245 128.887  0.00  0.00    +0.000 C 
ATOM      9  C   UNL     1      -4.008   8.013 129.974  0.00  0.00    +0.000 C 
ATOM     10  C   UNL     1      -3.450   7.656 131.326  0.00  0.00    +0.000 A 
ATOM     11  C   UNL     1      -2.769   8.558 132.143  0.00  0.00    +0.000 A 
ATOM     12  C   UNL     1      -2.288   8.140 133.391  0.00  0.00    +0.000 A 
ATOM     13  C   UNL     1      -2.466   6.834 133.838  0.00  0.00    +0.000 A 
ATOM     14  C   UNL     1      -3.121   5.927 133.022  0.00  0.00    +0.000 A 
ATOM     15  C   UNL     1      -3.619   6.350 131.784  0.00  0.00    +0.000 A 
ENDROOT
BRANCH   1  22
ATOM     16  C   UNL     1      -8.036   6.073 132.363  0.00  0.00    +0.000 C 
ATOM     17  C   UNL     1      -8.323   4.628 132.805  0.00  0.00    +0.000 C 
ATOM     18  N   UNL     1      -7.502   3.644 132.063  0.00  0.00    +0.000 NA
ATOM     19  C   UNL     1      -7.754   3.804 130.610  0.00  0.00    +0.000 C 
ATOM     20  C   UNL     1      -7.487   5.233 130.103  0.00  0.00    +0.000 C 
ATOM     21  C   UNL     1      -6.953   6.072 131.253  0.00  0.00    +0.000 C 
ATOM     22  C   UNL     1      -5.719   5.367 131.840  0.00  0.00    +0.000 C 
ATOM     23  C   UNL     1      -6.071   3.946 132.310  0.00  0.00    +0.000 C 
ENDBRANCH   1  22
TORSDOF 1
ENDMDL
MODEL 7
REMARK VINA RESULT:      -6.8      6.984      9.496
REMARK  Name = Quinupramine
REMARK  1 active torsions:
REMARK  status: ('A' for Active; 'I' for Inactive)
REMARK    1  A    between atoms: C_7  and  N_9
REMARK                            x       y       z     vdW  Elec       q    Type
REMARK                         _______ _______ _______ _____ _____    ______ ____
ROOT
ATOM      1  N   UNL     1      -4.233   5.787 131.131  0.00  0.00    +0.000 N 
ATOM      2  C   UNL     1      -3.593   5.136 130.075  0.00  0.00    +0.000 A 
ATOM      3  C   UNL     1      -2.819   5.845 129.136  0.00  0.00    +0.000 A 
ATOM      4  C   UNL     1      -2.378   5.264 127.933  0.00  0.00    +0.000 A 
ATOM      5  C   UNL     1      -2.686   3.945 127.634  0.00  0.00    +0.000 A 
ATOM      6  C   UNL     1      -3.417   3.204 128.550  0.00  0.00    +0.000 A 
ATOM      7  C   UNL     1      -3.869   3.772 129.766  0.00  0.00    +0.000 A 
ATOM      8  C   UNL     1      -4.673   2.819 130.643  0.00  0.00    +0.000 C 
ATOM      9  C   UNL     1      -5.132   3.302 132.018  0.00  0.00    +0.000 C 
ATOM     10  C   UNL     1      -6.103   4.441 131.859  0.00  0.00    +0.000 A 
ATOM     11  C   UNL     1      -7.449   4.364 132.214  0.00  0.00    +0.000 A 
ATOM     12  C   UNL     1      -8.280   5.478 132.036  0.00  0.00    +0.000 A 
ATOM     13  C   UNL     1      -7.796   6.668 131.501  0.00  0.00    +0.000 A 
ATOM     14  C   UNL     1      -6.465   6.744 131.125  0.00  0.00    +0.000 A 
ATOM     15  C   UNL     1      -5.631   5.637 131.321  0.00  0.00    +0.000 A 
ENDROOT
BRANCH   1  22
ATOM     16  C   UNL     1      -2.926   7.092 134.510  0.00  0.00    +0.000 C 
ATOM     17  C   UNL     1      -2.172   8.319 133.967  0.00  0.00    +0.000 C 
ATOM     18  N   UNL     1      -1.776   8.147 132.551  0.00  0.00    +0.000 NA
ATOM     19  C   UNL     1      -0.941   6.927 132.429  0.00  0.00    +0.000 C 
ATOM     20  C   UNL     1      -1.638   5.662 132.958  0.00  0.00    +0.000 C 
ATOM     21  C   UNL     1      -3.049   6.022 133.395  0.00  0.00    +0.000 C 
ATOM     22  C   UNL     1      -3.769   6.695 132.214  0.00  0.00    +0.000 C 
ATOM     23  C   UNL     1      -3.001   7.941 131.742  0.00  0.00    +0.000 C 
ENDBRANCH   1  22
TORSDOF 1
ENDMDL
MODEL 8
REMARK VINA RESULT:      -6.6      4.422      6.566
REMARK  Name = Quinupramine
REMARK  1 active torsions:
REMARK  status: ('A' for Active; 'I' for Inactive)
REMARK    1  A    between atoms: C_7  and  N_9
REMARK                            x       y       z     vdW  Elec       q    Type
REMARK                         _______ _______ _______ _____ _____    ______ ____
ROOT
ATOM      1  N   UNL     1      -6.315  -1.114 129.602  0.00  0.00    +0.000 N 
ATOM      2  C   UNL     1      -5.905  -2.167 130.420  0.00  0.00    +0.000 A 
ATOM      3  C   UNL     1      -4.868  -2.008 131.359  0.00  0.00    +0.000 A 
ATOM      4  C   UNL     1      -4.267  -3.101 132.009  0.00  0.00    +0.000 A 
ATOM      5  C   UNL     1      -4.693  -4.395 131.751  0.00  0.00    +0.000 A 
ATOM      6  C   UNL     1      -5.735  -4.590 130.856  0.00  0.00    +0.000 A 
ATOM      7  C   UNL     1      -6.352  -3.502 130.193  0.00  0.00    +0.000 A 
ATOM      8  C   UNL     1      -7.467  -3.902 129.234  0.00  0.00    +0.000 C 
ATOM      9  C   UNL     1      -8.261  -2.800 128.534  0.00  0.00    +0.000 C 
ATOM     10  C   UNL     1      -7.353  -2.023 127.619  0.00  0.00    +0.000 A 
ATOM     11  C   UNL     1      -7.473  -2.022 126.230  0.00  0.00    +0.000 A 
ATOM     12  C   UNL     1      -6.587  -1.262 125.456  0.00  0.00    +0.000 A 
ATOM     13  C   UNL     1      -5.573  -0.509 126.040  0.00  0.00    +0.000 A 
ATOM     14  C   UNL     1      -5.433  -0.523 127.418  0.00  0.00    +0.000 A 
ATOM     15  C   UNL     1      -6.332  -1.267 128.192  0.00  0.00    +0.000 A 
ENDROOT
BRANCH   1  22
ATOM     16  C   UNL     1      -8.591   1.934 130.210  0.00  0.00    +0.000 C 
ATOM     17  C   UNL     1      -7.633   2.713 131.128  0.00  0.00    +0.000 C 
ATOM     18  N   UNL     1      -6.670   1.821 131.814  0.00  0.00    +0.000 NA
ATOM     19  C   UNL     1      -7.423   0.804 132.589  0.00  0.00    +0.000 C 
ATOM     20  C   UNL     1      -8.403  -0.010 131.727  0.00  0.00    +0.000 C 
ATOM     21  C   UNL     1      -8.259   0.421 130.275  0.00  0.00    +0.000 C 
ATOM     22  C   UNL     1      -6.783   0.274 129.868  0.00  0.00    +0.000 C 
ATOM     23  C   UNL     1      -5.875   1.109 130.785  0.00  0.00    +0.000 C 
ENDBRANCH   1  22
TORSDOF 1
ENDMDL
MODEL 9
REMARK VINA RESULT:      -6.4      6.992      9.508
REMARK  Name = Quinupramine
REMARK  1 active torsions:
REMARK  status: ('A' for Active; 'I' for Inactive)
REMARK    1  A    between atoms: C_7  and  N_9
REMARK                            x       y       z     vdW  Elec       q    Type
REMARK                         _______ _______ _______ _____ _____    ______ ____
ROOT
ATOM      1  N   UNL     1      -4.798   4.161 130.905  0.00  0.00    +0.000 N 
ATOM      2  C   UNL     1      -4.061   5.053 130.125  0.00  0.00    +0.000 A 
ATOM      3  C   UNL     1      -4.451   5.377 128.811  0.00  0.00    +0.000 A 
ATOM      4  C   UNL     1      -3.605   6.064 127.922  0.00  0.00    +0.000 A 
ATOM      5  C   UNL     1      -2.339   6.464 128.323  0.00  0.00    +0.000 A 
ATOM      6  C   UNL     1      -1.931   6.193 129.621  0.00  0.00    +0.000 A 
ATOM      7  C   UNL     1      -2.770   5.503 130.529  0.00  0.00    +0.000 A 
ATOM      8  C   UNL     1      -2.153   5.277 131.905  0.00  0.00    +0.000 C 
ATOM      9  C   UNL     1      -3.006   4.622 132.991  0.00  0.00    +0.000 C 
ATOM     10  C   UNL     1      -3.346   3.212 132.588  0.00  0.00    +0.000 A 
ATOM     11  C   UNL     1      -2.879   2.084 133.259  0.00  0.00    +0.000 A 
ATOM     12  C   UNL     1      -3.253   0.808 132.818  0.00  0.00    +0.000 A 
ATOM     13  C   UNL     1      -4.079   0.634 131.711  0.00  0.00    +0.000 A 
ATOM     14  C   UNL     1      -4.528   1.751 131.026  0.00  0.00    +0.000 A 
ATOM     15  C   UNL     1      -4.171   3.026 131.479  0.00  0.00    +0.000 A 
ENDROOT
BRANCH   1  22
ATOM     16  C   UNL     1      -8.035   4.526 132.960  0.00  0.00    +0.000 C 
ATOM     17  C   UNL     1      -9.004   4.666 131.772  0.00  0.00    +0.000 C 
ATOM     18  N   UNL     1      -8.329   5.181 130.559  0.00  0.00    +0.000 NA
ATOM     19  C   UNL     1      -7.699   6.486 130.875  0.00  0.00    +0.000 C 
ATOM     20  C   UNL     1      -6.718   6.414 132.058  0.00  0.00    +0.000 C 
ATOM     21  C   UNL     1      -6.615   4.971 132.526  0.00  0.00    +0.000 C 
ATOM     22  C   UNL     1      -6.224   4.095 131.324  0.00  0.00    +0.000 C 
ATOM     23  C   UNL     1      -7.249   4.235 130.187  0.00  0.00    +0.000 C 
ENDBRANCH   1  22
TORSDOF 1
ENDMDL
