MODEL 1
REMARK VINA RESULT:      -7.8      0.000      0.000
REMARK  Name = Quinidine
REMARK  6 active torsions:
REMARK  status: ('A' for Active; 'I' for Inactive)
REMARK    1  A    between atoms: C_7  and  C_8
REMARK    2  A    between atoms: C_10  and  C_13
REMARK    3  A    between atoms: C_13  and  O_14
REMARK    4  A    between atoms: C_13  and  C_15
REMARK    5  A    between atoms: C_18  and  O_19
REMARK    6  A    between atoms: O_19  and  C_20
REMARK                            x       y       z     vdW  Elec       q    Type
REMARK                         _______ _______ _______ _____ _____    ______ ____
ROOT
ATOM      1  C   UNL     1      -8.925   0.625 125.951  0.00  0.00    +0.000 C 
ENDROOT
BRANCH   1   2
ATOM      2  C   UNL     1      -8.332   1.287 124.545  0.00  0.00    +0.000 A 
ATOM      3  C   UNL     1      -7.070   2.127 124.447  0.00  0.00    +0.000 A 
ATOM      4  C   UNL     1      -5.949   2.261 125.378  0.00  0.00    +0.000 A 
ATOM      5  C   UNL     1      -5.094   3.381 125.444  0.00  0.00    +0.000 A 
ATOM      6  C   UNL     1      -5.106   4.262 124.391  0.00  0.00    +0.000 A 
ATOM      7  C   UNL     1      -6.055   4.077 123.376  0.00  0.00    +0.000 A 
ATOM      8  C   UNL     1      -7.049   3.084 123.409  0.00  0.00    +0.000 A 
ATOM      9  N   UNL     1      -8.005   3.166 122.467  0.00  0.00    +0.000 NA
ATOM     10  C   UNL     1      -9.074   2.341 122.532  0.00  0.00    +0.000 A 
ATOM     11  C   UNL     1      -9.294   1.416 123.531  0.00  0.00    +0.000 A 
BRANCH   5  12
ATOM     12  O   UNL     1      -4.397   3.529 126.616  0.00  0.00    +0.000 OA
ATOM     13  C   UNL     1      -3.003   3.235 126.587  0.00  0.00    +0.000 C 
ENDBRANCH   5  12
ENDBRANCH   1   2
BRANCH   1  20
ATOM     14  C   UNL     1      -9.033  -3.118 125.690  0.00  0.00    +0.000 C 
ATOM     15  C   UNL     1      -9.000  -3.627 127.104  0.00  0.00    +0.000 C 
ATOM     16  C   UNL     1      -7.859  -2.854 127.822  0.00  0.00    +0.000 C 
ATOM     17  N   UNL     1      -7.155  -1.786 126.934  0.00  0.00    +0.000 NA
ATOM     18  C   UNL     1      -6.637  -2.534 125.753  0.00  0.00    +0.000 C 
ATOM     19  C   UNL     1      -7.726  -3.279 124.924  0.00  0.00    +0.000 C 
ATOM     20  C   UNL     1      -8.206  -0.769 126.599  0.00  0.00    +0.000 C 
ATOM     21  C   UNL     1      -9.146  -1.664 125.912  0.00  0.00    +0.000 C 
BRANCH  19  22
ATOM     22  C   UNL     1      -7.777  -2.728 123.506  0.00  0.00    +0.000 C 
ATOM     23  C   UNL     1      -6.830  -1.869 123.055  0.00  0.00    +0.000 C 
ENDBRANCH  19  22
ENDBRANCH   1  20
BRANCH   1  24
ATOM     24  O   UNL     1      -9.107   1.609 126.962  0.00  0.00    +0.000 OA
ATOM     25  H   UNL     1     -10.067   1.737 127.040  0.00  0.00    +0.000 HD
ENDBRANCH   1  24
TORSDOF 5
ENDMDL
MODEL 2
REMARK VINA RESULT:      -7.3      2.447      3.627
REMARK  Name = Quinidine
REMARK  6 active torsions:
REMARK  status: ('A' for Active; 'I' for Inactive)
REMARK    1  A    between atoms: C_7  and  C_8
REMARK    2  A    between atoms: C_10  and  C_13
REMARK    3  A    between atoms: C_13  and  O_14
REMARK    4  A    between atoms: C_13  and  C_15
REMARK    5  A    between atoms: C_18  and  O_19
REMARK    6  A    between atoms: O_19  and  C_20
REMARK                            x       y       z     vdW  Elec       q    Type
REMARK                         _______ _______ _______ _____ _____    ______ ____
ROOT
ATOM      1  C   UNL     1      -9.855   1.127 123.850  0.00  0.00    +0.000 C 
ENDROOT
BRANCH   1   2
ATOM      2  C   UNL     1      -8.842   2.288 124.477  0.00  0.00    +0.000 A 
ATOM      3  C   UNL     1      -7.853   3.106 123.665  0.00  0.00    +0.000 A 
ATOM      4  C   UNL     1      -7.784   3.346 122.223  0.00  0.00    +0.000 A 
ATOM      5  C   UNL     1      -6.607   3.693 121.525  0.00  0.00    +0.000 A 
ATOM      6  C   UNL     1      -5.531   4.129 122.257  0.00  0.00    +0.000 A 
ATOM      7  C   UNL     1      -5.610   4.082 123.656  0.00  0.00    +0.000 A 
ATOM      8  C   UNL     1      -6.701   3.540 124.357  0.00  0.00    +0.000 A 
ATOM      9  N   UNL     1      -6.538   3.381 125.682  0.00  0.00    +0.000 NA
ATOM     10  C   UNL     1      -7.482   2.725 126.394  0.00  0.00    +0.000 A 
ATOM     11  C   UNL     1      -8.618   2.157 125.856  0.00  0.00    +0.000 A 
BRANCH   5  12
ATOM     12  O   UNL     1      -6.628   3.462 120.173  0.00  0.00    +0.000 OA
ATOM     13  C   UNL     1      -6.565   4.600 119.317  0.00  0.00    +0.000 C 
ENDBRANCH   5  12
ENDBRANCH   1   2
BRANCH   1  20
ATOM     14  C   UNL     1      -7.352  -1.586 123.165  0.00  0.00    +0.000 C 
ATOM     15  C   UNL     1      -8.158  -2.804 122.811  0.00  0.00    +0.000 C 
ATOM     16  C   UNL     1      -9.271  -2.923 123.889  0.00  0.00    +0.000 C 
ATOM     17  N   UNL     1      -9.271  -1.770 124.936  0.00  0.00    +0.000 NA
ATOM     18  C   UNL     1      -7.916  -1.802 125.557  0.00  0.00    +0.000 C 
ATOM     19  C   UNL     1      -6.735  -1.612 124.557  0.00  0.00    +0.000 C 
ATOM     20  C   UNL     1      -9.560  -0.514 124.169  0.00  0.00    +0.000 C 
ATOM     21  C   UNL     1      -8.410  -0.561 123.256  0.00  0.00    +0.000 C 
BRANCH  19  22
ATOM     22  C   UNL     1      -5.951  -0.353 124.903  0.00  0.00    +0.000 C 
ATOM     23  C   UNL     1      -5.242  -0.265 126.053  0.00  0.00    +0.000 C 
ENDBRANCH  19  22
ENDBRANCH   1  20
BRANCH   1  24
ATOM     24  O   UNL     1     -11.224   1.441 124.077  0.00  0.00    +0.000 OA
ATOM     25  H   UNL     1     -11.359   2.329 123.706  0.00  0.00    +0.000 HD
ENDBRANCH   1  24
TORSDOF 5
ENDMDL
MODEL 3
REMARK VINA RESULT:      -7.3      2.095      6.279
REMARK  Name = Quinidine
REMARK  6 active torsions:
REMARK  status: ('A' for Active; 'I' for Inactive)
REMARK    1  A    between atoms: C_7  and  C_8
REMARK    2  A    between atoms: C_10  and  C_13
REMARK    3  A    between atoms: C_13  and  O_14
REMARK    4  A    between atoms: C_13  and  C_15
REMARK    5  A    between atoms: C_18  and  O_19
REMARK    6  A    between atoms: O_19  and  C_20
REMARK                            x       y       z     vdW  Elec       q    Type
REMARK                         _______ _______ _______ _____ _____    ______ ____
ROOT
ATOM      1  C   UNL     1      -6.360  -0.249 124.846  0.00  0.00    +0.000 C 
ENDROOT
BRANCH   1   2
ATOM      2  C   UNL     1      -7.703  -1.208 125.062  0.00  0.00    +0.000 A 
ATOM      3  C   UNL     1      -8.129  -1.819 126.386  0.00  0.00    +0.000 A 
ATOM      4  C   UNL     1      -7.743  -1.472 127.754  0.00  0.00    +0.000 A 
ATOM      5  C   UNL     1      -7.794  -2.361 128.849  0.00  0.00    +0.000 A 
ATOM      6  C   UNL     1      -8.523  -3.515 128.707  0.00  0.00    +0.000 A 
ATOM      7  C   UNL     1      -9.066  -3.812 127.448  0.00  0.00    +0.000 A 
ATOM      8  C   UNL     1      -8.842  -3.034 126.300  0.00  0.00    +0.000 A 
ATOM      9  N   UNL     1      -9.258  -3.560 125.134  0.00  0.00    +0.000 NA
ATOM     10  C   UNL     1      -8.938  -2.942 123.974  0.00  0.00    +0.000 A 
ATOM     11  C   UNL     1      -8.169  -1.802 123.878  0.00  0.00    +0.000 A 
BRANCH   5  12
ATOM     12  O   UNL     1      -7.016  -2.022 129.927  0.00  0.00    +0.000 OA
ATOM     13  C   UNL     1      -7.193  -2.778 131.121  0.00  0.00    +0.000 C 
ENDBRANCH   5  12
ENDBRANCH   1   2
BRANCH   1  20
ATOM     14  C   UNL     1      -7.090   2.727 122.677  0.00  0.00    +0.000 C 
ATOM     15  C   UNL     1      -6.085   3.773 123.068  0.00  0.00    +0.000 C 
ATOM     16  C   UNL     1      -6.090   3.827 124.621  0.00  0.00    +0.000 C 
ATOM     17  N   UNL     1      -7.041   2.792 125.293  0.00  0.00    +0.000 NA
ATOM     18  C   UNL     1      -8.394   3.084 124.740  0.00  0.00    +0.000 C 
ATOM     19  C   UNL     1      -8.502   2.976 123.188  0.00  0.00    +0.000 C 
ATOM     20  C   UNL     1      -6.508   1.441 124.921  0.00  0.00    +0.000 C 
ATOM     21  C   UNL     1      -6.618   1.570 123.462  0.00  0.00    +0.000 C 
BRANCH  19  22
ATOM     22  C   UNL     1      -9.493   1.886 122.805  0.00  0.00    +0.000 C 
ATOM     23  C   UNL     1     -10.303   1.319 123.732  0.00  0.00    +0.000 C 
ENDBRANCH  19  22
ENDBRANCH   1  20
BRANCH   1  24
ATOM     24  O   UNL     1      -5.263  -0.689 125.638  0.00  0.00    +0.000 OA
ATOM     25  H   UNL     1      -4.503  -0.740 125.035  0.00  0.00    +0.000 HD
ENDBRANCH   1  24
TORSDOF 5
ENDMDL
MODEL 4
REMARK VINA RESULT:      -7.1      3.085      5.929
REMARK  Name = Quinidine
REMARK  6 active torsions:
REMARK  status: ('A' for Active; 'I' for Inactive)
REMARK    1  A    between atoms: C_7  and  C_8
REMARK    2  A    between atoms: C_10  and  C_13
REMARK    3  A    between atoms: C_13  and  O_14
REMARK    4  A    between atoms: C_13  and  C_15
REMARK    5  A    between atoms: C_18  and  O_19
REMARK    6  A    between atoms: O_19  and  C_20
REMARK                            x       y       z     vdW  Elec       q    Type
REMARK                         _______ _______ _______ _____ _____    ______ ____
ROOT
ATOM      1  C   UNL     1      -5.727  -1.094 127.138  0.00  0.00    +0.000 C 
ENDROOT
BRANCH   1   2
ATOM      2  C   UNL     1      -6.679  -1.654 128.383  0.00  0.00    +0.000 A 
ATOM      3  C   UNL     1      -7.556  -0.782 129.264  0.00  0.00    +0.000 A 
ATOM      4  C   UNL     1      -8.047   0.581 129.055  0.00  0.00    +0.000 A 
ATOM      5  C   UNL     1      -8.427   1.461 130.090  0.00  0.00    +0.000 A 
ATOM      6  C   UNL     1      -8.644   0.931 131.338  0.00  0.00    +0.000 A 
ATOM      7  C   UNL     1      -8.352  -0.424 131.548  0.00  0.00    +0.000 A 
ATOM      8  C   UNL     1      -7.773  -1.257 130.576  0.00  0.00    +0.000 A 
ATOM      9  N   UNL     1      -7.365  -2.468 130.995  0.00  0.00    +0.000 NA
ATOM     10  C   UNL     1      -6.662  -3.260 130.154  0.00  0.00    +0.000 A 
ATOM     11  C   UNL     1      -6.285  -2.908 128.875  0.00  0.00    +0.000 A 
BRANCH   5  12
ATOM     12  O   UNL     1      -8.447   2.793 129.761  0.00  0.00    +0.000 OA
ATOM     13  C   UNL     1      -9.583   3.549 130.171  0.00  0.00    +0.000 C 
ENDBRANCH   5  12
ENDBRANCH   1   2
BRANCH   1  20
ATOM     14  C   UNL     1      -6.595  -2.889 123.958  0.00  0.00    +0.000 C 
ATOM     15  C   UNL     1      -6.153  -1.982 122.844  0.00  0.00    +0.000 C 
ATOM     16  C   UNL     1      -6.682  -0.564 123.196  0.00  0.00    +0.000 C 
ATOM     17  N   UNL     1      -7.427  -0.482 124.561  0.00  0.00    +0.000 NA
ATOM     18  C   UNL     1      -8.545  -1.463 124.460  0.00  0.00    +0.000 C 
ATOM     19  C   UNL     1      -8.100  -2.932 124.185  0.00  0.00    +0.000 C 
ATOM     20  C   UNL     1      -6.409  -0.822 125.608  0.00  0.00    +0.000 C 
ATOM     21  C   UNL     1      -6.071  -2.171 125.136  0.00  0.00    +0.000 C 
BRANCH  19  22
ATOM     22  C   UNL     1      -8.520  -3.832 125.339  0.00  0.00    +0.000 C 
ATOM     23  C   UNL     1      -9.230  -3.345 126.384  0.00  0.00    +0.000 C 
ENDBRANCH  19  22
ENDBRANCH   1  20
BRANCH   1  24
ATOM     24  O   UNL     1      -4.937   0.020 127.538  0.00  0.00    +0.000 OA
ATOM     25  H   UNL     1      -4.141  -0.004 126.981  0.00  0.00    +0.000 HD
ENDBRANCH   1  24
TORSDOF 5
ENDMDL
MODEL 5
REMARK VINA RESULT:      -7.0      3.001      4.806
REMARK  Name = Quinidine
REMARK  6 active torsions:
REMARK  status: ('A' for Active; 'I' for Inactive)
REMARK    1  A    between atoms: C_7  and  C_8
REMARK    2  A    between atoms: C_10  and  C_13
REMARK    3  A    between atoms: C_13  and  O_14
REMARK    4  A    between atoms: C_13  and  C_15
REMARK    5  A    between atoms: C_18  and  O_19
REMARK    6  A    between atoms: O_19  and  C_20
REMARK                            x       y       z     vdW  Elec       q    Type
REMARK                         _______ _______ _______ _____ _____    ______ ____
ROOT
ATOM      1  C   UNL     1      -6.648   0.282 127.732  0.00  0.00    +0.000 C 
ENDROOT
BRANCH   1   2
ATOM      2  C   UNL     1      -7.774  -0.200 126.605  0.00  0.00    +0.000 A 
ATOM      3  C   UNL     1      -7.479  -1.091 125.411  0.00  0.00    +0.000 A 
ATOM      4  C   UNL     1      -6.345  -1.979 125.152  0.00  0.00    +0.000 A 
ATOM      5  C   UNL     1      -5.917  -2.375 123.867  0.00  0.00    +0.000 A 
ATOM      6  C   UNL     1      -6.775  -2.176 122.814  0.00  0.00    +0.000 A 
ATOM      7  C   UNL     1      -7.967  -1.475 123.046  0.00  0.00    +0.000 A 
ATOM      8  C   UNL     1      -8.301  -0.894 124.280  0.00  0.00    +0.000 A 
ATOM      9  N   UNL     1      -9.375  -0.084 124.286  0.00  0.00    +0.000 NA
ATOM     10  C   UNL     1      -9.663   0.629 125.398  0.00  0.00    +0.000 A 
ATOM     11  C   UNL     1      -8.909   0.624 126.552  0.00  0.00    +0.000 A 
BRANCH   5  12
ATOM     12  O   UNL     1      -4.628  -2.837 123.785  0.00  0.00    +0.000 OA
ATOM     13  C   UNL     1      -4.448  -4.241 123.623  0.00  0.00    +0.000 C 
ENDBRANCH   5  12
ENDBRANCH   1   2
BRANCH   1  20
ATOM     14  C   UNL     1      -7.555  -1.886 130.659  0.00  0.00    +0.000 C 
ATOM     15  C   UNL     1      -6.418  -1.753 131.633  0.00  0.00    +0.000 C 
ATOM     16  C   UNL     1      -5.112  -1.932 130.811  0.00  0.00    +0.000 C 
ATOM     17  N   UNL     1      -5.343  -2.127 129.282  0.00  0.00    +0.000 NA
ATOM     18  C   UNL     1      -6.221  -3.326 129.166  0.00  0.00    +0.000 C 
ATOM     19  C   UNL     1      -7.592  -3.204 129.898  0.00  0.00    +0.000 C 
ATOM     20  C   UNL     1      -5.975  -0.858 128.795  0.00  0.00    +0.000 C 
ATOM     21  C   UNL     1      -7.176  -0.888 129.640  0.00  0.00    +0.000 C 
BRANCH  19  22
ATOM     22  C   UNL     1      -8.734  -3.301 128.896  0.00  0.00    +0.000 C 
ATOM     23  C   UNL     1      -8.532  -3.797 127.651  0.00  0.00    +0.000 C 
ENDBRANCH  19  22
ENDBRANCH   1  20
BRANCH   1  24
ATOM     24  O   UNL     1      -5.628   1.085 127.150  0.00  0.00    +0.000 OA
ATOM     25  H   UNL     1      -5.821   1.998 127.420  0.00  0.00    +0.000 HD
ENDBRANCH   1  24
TORSDOF 5
ENDMDL
MODEL 6
REMARK VINA RESULT:      -7.0      2.649      5.639
REMARK  Name = Quinidine
REMARK  6 active torsions:
REMARK  status: ('A' for Active; 'I' for Inactive)
REMARK    1  A    between atoms: C_7  and  C_8
REMARK    2  A    between atoms: C_10  and  C_13
REMARK    3  A    between atoms: C_13  and  O_14
REMARK    4  A    between atoms: C_13  and  C_15
REMARK    5  A    between atoms: C_18  and  O_19
REMARK    6  A    between atoms: O_19  and  C_20
REMARK                            x       y       z     vdW  Elec       q    Type
REMARK                         _______ _______ _______ _____ _____    ______ ____
ROOT
ATOM      1  C   UNL     1      -7.049   2.669 123.578  0.00  0.00    +0.000 C 
ENDROOT
BRANCH   1   2
ATOM      2  C   UNL     1      -8.214   1.483 123.637  0.00  0.00    +0.000 A 
ATOM      3  C   UNL     1      -7.935   0.000 123.813  0.00  0.00    +0.000 A 
ATOM      4  C   UNL     1      -6.737  -0.684 124.301  0.00  0.00    +0.000 A 
ATOM      5  C   UNL     1      -6.391  -2.015 123.985  0.00  0.00    +0.000 A 
ATOM      6  C   UNL     1      -7.363  -2.820 123.445  0.00  0.00    +0.000 A 
ATOM      7  C   UNL     1      -8.599  -2.247 123.116  0.00  0.00    +0.000 A 
ATOM      8  C   UNL     1      -8.879  -0.875 123.235  0.00  0.00    +0.000 A 
ATOM      9  N   UNL     1     -10.033  -0.453 122.688  0.00  0.00    +0.000 NA
ATOM     10  C   UNL     1     -10.293   0.873 122.627  0.00  0.00    +0.000 A 
ATOM     11  C   UNL     1      -9.436   1.862 123.060  0.00  0.00    +0.000 A 
BRANCH   5  12
ATOM     12  O   UNL     1      -5.071  -2.345 124.161  0.00  0.00    +0.000 OA
ATOM     13  C   UNL     1      -4.626  -3.576 123.599  0.00  0.00    +0.000 C 
ENDBRANCH   5  12
ENDBRANCH   1   2
BRANCH   1  20
ATOM     14  C   UNL     1      -6.466   4.185 126.962  0.00  0.00    +0.000 C 
ATOM     15  C   UNL     1      -5.068   4.734 126.928  0.00  0.00    +0.000 C 
ATOM     16  C   UNL     1      -4.172   3.616 126.328  0.00  0.00    +0.000 C 
ATOM     17  N   UNL     1      -4.949   2.336 125.900  0.00  0.00    +0.000 NA
ATOM     18  C   UNL     1      -5.643   1.866 127.132  0.00  0.00    +0.000 C 
ATOM     19  C   UNL     1      -6.627   2.899 127.762  0.00  0.00    +0.000 C 
ATOM     20  C   UNL     1      -5.877   2.765 124.803  0.00  0.00    +0.000 C 
ATOM     21  C   UNL     1      -6.643   3.764 125.559  0.00  0.00    +0.000 C 
BRANCH  19  22
ATOM     22  C   UNL     1      -8.046   2.346 127.754  0.00  0.00    +0.000 C 
ATOM     23  C   UNL     1      -8.293   1.059 127.412  0.00  0.00    +0.000 C 
ENDBRANCH  19  22
ENDBRANCH   1  20
BRANCH   1  24
ATOM     24  O   UNL     1      -6.438   2.746 122.296  0.00  0.00    +0.000 OA
ATOM     25  H   UNL     1      -6.241   1.830 122.038  0.00  0.00    +0.000 HD
ENDBRANCH   1  24
TORSDOF 5
ENDMDL
MODEL 7
REMARK VINA RESULT:      -6.9      2.970      5.947
REMARK  Name = Quinidine
REMARK  6 active torsions:
REMARK  status: ('A' for Active; 'I' for Inactive)
REMARK    1  A    between atoms: C_7  and  C_8
REMARK    2  A    between atoms: C_10  and  C_13
REMARK    3  A    between atoms: C_13  and  O_14
REMARK    4  A    between atoms: C_13  and  C_15
REMARK    5  A    between atoms: C_18  and  O_19
REMARK    6  A    between atoms: O_19  and  C_20
REMARK                            x       y       z     vdW  Elec       q    Type
REMARK                         _______ _______ _______ _____ _____    ______ ____
ROOT
ATOM      1  C   UNL     1      -5.349   0.086 126.741  0.00  0.00    +0.000 C 
ENDROOT
BRANCH   1   2
ATOM      2  C   UNL     1      -6.158   0.388 128.163  0.00  0.00    +0.000 A 
ATOM      3  C   UNL     1      -6.450  -0.651 129.233  0.00  0.00    +0.000 A 
ATOM      4  C   UNL     1      -5.847  -1.964 129.463  0.00  0.00    +0.000 A 
ATOM      5  C   UNL     1      -6.481  -3.027 130.142  0.00  0.00    +0.000 A 
ATOM      6  C   UNL     1      -7.592  -2.738 130.893  0.00  0.00    +0.000 A 
ATOM      7  C   UNL     1      -8.114  -1.437 130.843  0.00  0.00    +0.000 A 
ATOM      8  C   UNL     1      -7.611  -0.428 130.005  0.00  0.00    +0.000 A 
ATOM      9  N   UNL     1      -8.343   0.697 129.920  0.00  0.00    +0.000 NA
ATOM     10  C   UNL     1      -8.004   1.645 129.017  0.00  0.00    +0.000 A 
ATOM     11  C   UNL     1      -6.958   1.541 128.125  0.00  0.00    +0.000 A 
BRANCH   5  12
ATOM     12  O   UNL     1      -5.970  -4.277 129.898  0.00  0.00    +0.000 OA
ATOM     13  C   UNL     1      -5.487  -5.013 131.018  0.00  0.00    +0.000 C 
ENDBRANCH   5  12
ENDBRANCH   1   2
BRANCH   1  20
ATOM     14  C   UNL     1      -6.794  -2.993 125.154  0.00  0.00    +0.000 C 
ATOM     15  C   UNL     1      -6.435  -2.907 123.697  0.00  0.00    +0.000 C 
ATOM     16  C   UNL     1      -6.791  -1.465 123.241  0.00  0.00    +0.000 C 
ATOM     17  N   UNL     1      -7.332  -0.551 124.381  0.00  0.00    +0.000 NA
ATOM     18  C   UNL     1      -8.530  -1.257 124.917  0.00  0.00    +0.000 C 
ATOM     19  C   UNL     1      -8.252  -2.687 125.471  0.00  0.00    +0.000 C 
ATOM     20  C   UNL     1      -6.211  -0.416 125.368  0.00  0.00    +0.000 C 
ATOM     21  C   UNL     1      -6.054  -1.838 125.698  0.00  0.00    +0.000 C 
BRANCH  19  22
ATOM     22  C   UNL     1      -8.581  -2.750 126.956  0.00  0.00    +0.000 C 
ATOM     23  C   UNL     1      -8.946  -3.914 127.543  0.00  0.00    +0.000 C 
ENDBRANCH  19  22
ENDBRANCH   1  20
BRANCH   1  24
ATOM     24  O   UNL     1      -4.452   1.140 126.410  0.00  0.00    +0.000 OA
ATOM     25  H   UNL     1      -3.905   0.806 125.679  0.00  0.00    +0.000 HD
ENDBRANCH   1  24
TORSDOF 5
ENDMDL
MODEL 8
REMARK VINA RESULT:      -6.8      3.477      6.844
REMARK  Name = Quinidine
REMARK  6 active torsions:
REMARK  status: ('A' for Active; 'I' for Inactive)
REMARK    1  A    between atoms: C_7  and  C_8
REMARK    2  A    between atoms: C_10  and  C_13
REMARK    3  A    between atoms: C_13  and  O_14
REMARK    4  A    between atoms: C_13  and  C_15
REMARK    5  A    between atoms: C_18  and  O_19
REMARK    6  A    between atoms: O_19  and  C_20
REMARK                            x       y       z     vdW  Elec       q    Type
REMARK                         _______ _______ _______ _____ _____    ______ ____
ROOT
ATOM      1  C   UNL     1      -5.302  -1.737 127.398  0.00  0.00    +0.000 C 
ENDROOT
BRANCH   1   2
ATOM      2  C   UNL     1      -5.231  -2.674 128.771  0.00  0.00    +0.000 A 
ATOM      3  C   UNL     1      -6.119  -2.495 129.991  0.00  0.00    +0.000 A 
ATOM      4  C   UNL     1      -7.387  -1.780 130.139  0.00  0.00    +0.000 A 
ATOM      5  C   UNL     1      -7.877  -1.266 131.358  0.00  0.00    +0.000 A 
ATOM      6  C   UNL     1      -7.301  -1.710 132.521  0.00  0.00    +0.000 A 
ATOM      7  C   UNL     1      -6.178  -2.545 132.435  0.00  0.00    +0.000 A 
ATOM      8  C   UNL     1      -5.556  -2.892 131.223  0.00  0.00    +0.000 A 
ATOM      9  N   UNL     1      -4.375  -3.527 131.320  0.00  0.00    +0.000 NA
ATOM     10  C   UNL     1      -3.648  -3.752 130.202  0.00  0.00    +0.000 A 
ATOM     11  C   UNL     1      -4.009  -3.344 128.935  0.00  0.00    +0.000 A 
BRANCH   5  12
ATOM     12  O   UNL     1      -8.830  -0.284 131.249  0.00  0.00    +0.000 OA
ATOM     13  C   UNL     1      -8.451   0.921 130.590  0.00  0.00    +0.000 C 
ENDBRANCH   5  12
ENDBRANCH   1   2
BRANCH   1  20
ATOM     14  C   UNL     1      -6.103  -1.302 123.756  0.00  0.00    +0.000 C 
ATOM     15  C   UNL     1      -7.482  -0.707 123.710  0.00  0.00    +0.000 C 
ATOM     16  C   UNL     1      -8.355  -1.549 124.681  0.00  0.00    +0.000 C 
ATOM     17  N   UNL     1      -7.576  -2.670 125.431  0.00  0.00    +0.000 NA
ATOM     18  C   UNL     1      -6.987  -3.524 124.361  0.00  0.00    +0.000 C 
ATOM     19  C   UNL     1      -6.031  -2.776 123.382  0.00  0.00    +0.000 C 
ATOM     20  C   UNL     1      -6.559  -1.969 126.281  0.00  0.00    +0.000 C 
ATOM     21  C   UNL     1      -5.831  -1.282 125.207  0.00  0.00    +0.000 C 
BRANCH  19  22
ATOM     22  C   UNL     1      -4.628  -3.362 123.468  0.00  0.00    +0.000 C 
ATOM     23  C   UNL     1      -4.435  -4.685 123.688  0.00  0.00    +0.000 C 
ENDBRANCH  19  22
ENDBRANCH   1  20
BRANCH   1  24
ATOM     24  O   UNL     1      -5.144  -0.355 127.693  0.00  0.00    +0.000 OA
ATOM     25  H   UNL     1      -5.804   0.111 127.152  0.00  0.00    +0.000 HD
ENDBRANCH   1  24
TORSDOF 5
ENDMDL
MODEL 9
REMARK VINA RESULT:      -6.7      2.795      4.975
REMARK  Name = Quinidine
REMARK  6 active torsions:
REMARK  status: ('A' for Active; 'I' for Inactive)
REMARK    1  A    between atoms: C_7  and  C_8
REMARK    2  A    between atoms: C_10  and  C_13
REMARK    3  A    between atoms: C_13  and  O_14
REMARK    4  A    between atoms: C_13  and  C_15
REMARK    5  A    between atoms: C_18  and  O_19
REMARK    6  A    between atoms: O_19  and  C_20
REMARK                            x       y       z     vdW  Elec       q    Type
REMARK                         _______ _______ _______ _____ _____    ______ ____
ROOT
ATOM      1  C   UNL     1      -5.543   0.016 126.544  0.00  0.00    +0.000 C 
ENDROOT
BRANCH   1   2
ATOM      2  C   UNL     1      -5.840  -0.995 125.255  0.00  0.00    +0.000 A 
ATOM      3  C   UNL     1      -6.944  -0.794 124.232  0.00  0.00    +0.000 A 
ATOM      4  C   UNL     1      -7.726   0.400 123.907  0.00  0.00    +0.000 A 
ATOM      5  C   UNL     1      -9.009   0.380 123.320  0.00  0.00    +0.000 A 
ATOM      6  C   UNL     1      -9.432  -0.789 122.738  0.00  0.00    +0.000 A 
ATOM      7  C   UNL     1      -8.629  -1.931 122.872  0.00  0.00    +0.000 A 
ATOM      8  C   UNL     1      -7.450  -1.970 123.636  0.00  0.00    +0.000 A 
ATOM      9  N   UNL     1      -6.908  -3.184 123.834  0.00  0.00    +0.000 NA
ATOM     10  C   UNL     1      -5.865  -3.316 124.685  0.00  0.00    +0.000 A 
ATOM     11  C   UNL     1      -5.314  -2.286 125.417  0.00  0.00    +0.000 A 
BRANCH   5  12
ATOM     12  O   UNL     1      -9.754   1.521 123.478  0.00  0.00    +0.000 OA
ATOM     13  C   UNL     1      -9.190   2.562 124.271  0.00  0.00    +0.000 C 
ENDBRANCH   5  12
ENDBRANCH   1   2
BRANCH   1  20
ATOM     14  C   UNL     1      -7.718  -1.179 129.361  0.00  0.00    +0.000 C 
ATOM     15  C   UNL     1      -7.122  -0.595 130.611  0.00  0.00    +0.000 C 
ATOM     16  C   UNL     1      -5.595  -0.868 130.538  0.00  0.00    +0.000 C 
ATOM     17  N   UNL     1      -5.134  -1.576 129.229  0.00  0.00    +0.000 NA
ATOM     18  C   UNL     1      -5.911  -2.847 129.175  0.00  0.00    +0.000 C 
ATOM     19  C   UNL     1      -7.459  -2.667 129.165  0.00  0.00    +0.000 C 
ATOM     20  C   UNL     1      -5.445  -0.623 128.113  0.00  0.00    +0.000 C 
ATOM     21  C   UNL     1      -6.896  -0.528 128.322  0.00  0.00    +0.000 C 
BRANCH  19  22
ATOM     22  C   UNL     1      -8.045  -3.226 127.876  0.00  0.00    +0.000 C 
ATOM     23  C   UNL     1      -9.183  -3.960 127.885  0.00  0.00    +0.000 C 
ENDBRANCH  19  22
ENDBRANCH   1  20
BRANCH   1  24
ATOM     24  O   UNL     1      -4.448   0.887 126.290  0.00  0.00    +0.000 OA
ATOM     25  H   UNL     1      -3.827   0.756 127.026  0.00  0.00    +0.000 HD
ENDBRANCH   1  24
TORSDOF 5
ENDMDL
