MODEL 1
REMARK VINA RESULT:      -7.4      0.000      0.000
REMARK  Name = Quinapril
REMARK  13 active torsions:
REMARK  status: ('A' for Active; 'I' for Inactive)
REMARK    1  A    between atoms: C_1  and  C_2
REMARK    2  A    between atoms: C_2  and  O_3
REMARK    3  A    between atoms: O_3  and  C_4
REMARK    4  A    between atoms: C_4  and  C_6
REMARK    5  A    between atoms: C_6  and  C_7
REMARK    6  A    between atoms: C_6  and  N_15
REMARK    7  A    between atoms: C_7  and  C_8
REMARK    8  A    between atoms: C_8  and  C_9
REMARK    9  A    between atoms: N_15  and  CA_16
REMARK   10  A    between atoms: CA_16  and  CB_17
REMARK   11  A    between atoms: CA_16  and  C_18
REMARK   12  A    between atoms: C_29  and  C_30
REMARK   13  A    between atoms: C_30  and  O_31
REMARK                            x       y       z     vdW  Elec       q    Type
REMARK                         _______ _______ _______ _____ _____    ______ ____
ROOT
ATOM      1  CA  ALA A   1      -8.254   4.377 129.501  0.00  0.00    +0.000 C 
ATOM      2  CB  ALA A   1      -9.051   3.106 129.279  0.00  0.00    +0.000 C 
ENDROOT
BRANCH   1   3
ATOM      3  C   ALA A   1      -6.805   4.254 128.913  0.00  0.00    +0.000 C 
ATOM      4  O   ALA A   1      -6.633   3.830 127.763  0.00  0.00    +0.000 OA
ATOM      5  N   UNK A   2      -5.708   4.699 129.672  0.00  0.00    +0.000 N 
ATOM      6  C   UNK A   2      -4.386   4.505 129.051  0.00  0.00    +0.000 C 
ATOM      7  C   UNK A   2      -3.269   4.896 129.996  0.00  0.00    +0.000 A 
ATOM      8  C   UNK A   2      -2.499   6.036 129.825  0.00  0.00    +0.000 A 
ATOM      9  C   UNK A   2      -1.593   6.415 130.820  0.00  0.00    +0.000 A 
ATOM     10  C   UNK A   2      -1.452   5.659 131.991  0.00  0.00    +0.000 A 
ATOM     11  C   UNK A   2      -2.272   4.559 132.217  0.00  0.00    +0.000 A 
ATOM     12  C   UNK A   2      -3.246   4.273 131.263  0.00  0.00    +0.000 A 
ATOM     13  C   UNK A   2      -4.597   3.710 131.642  0.00  0.00    +0.000 C 
ATOM     14  C   UNK A   2      -5.627   4.851 131.168  0.00  0.00    +0.000 C 
BRANCH  14  15
ATOM     15  C   UNK A   2      -5.447   6.379 131.631  0.00  0.00    +0.000 C 
ATOM     16  O   UNK A   2      -4.918   6.783 132.634  0.00  0.00    +0.000 OA
BRANCH  15  17
ATOM     17  O   UNK A   2      -5.824   7.323 130.712  0.00  0.00    +0.000 OA
ATOM     18  H   UNK A   2      -5.822   8.276 130.892  0.00  0.00    +0.000 HD
ENDBRANCH  15  17
ENDBRANCH  14  15
ENDBRANCH   1   3
BRANCH   1  19
ATOM     19  N   ALA A   1      -9.040   5.448 128.812  0.00  0.00    +0.000 NA
ATOM     20  H   ALA A   1      -8.381   6.099 128.368  0.00  0.00    +0.000 HD
BRANCH  19  21
ATOM     21  C   UNK A   0      -9.985   6.208 129.684  0.00  0.00    +0.000 C 
BRANCH  21  22
ATOM     22  C   UNK A   0     -10.552   7.534 129.154  0.00  0.00    +0.000 C 
ATOM     23  O   UNK A   0     -10.037   8.117 128.200  0.00  0.00    +0.000 OA
BRANCH  22  24
ATOM     24  O   UNK A   0     -11.678   7.976 129.794  0.00  0.00    +0.000 OA
BRANCH  24  26
ATOM     25  C   UNK A   0     -13.534   7.330 128.355  0.00  0.00    +0.000 C 
ATOM     26  C   UNK A   0     -12.664   8.461 128.869  0.00  0.00    +0.000 C 
ENDBRANCH  24  26
ENDBRANCH  22  24
ENDBRANCH  21  22
BRANCH  21  27
ATOM     27  C   UNK A   0      -9.308   6.587 130.987  0.00  0.00    +0.000 C 
BRANCH  27  28
ATOM     28  C   UNK A   0     -10.041   6.070 132.211  0.00  0.00    +0.000 C 
BRANCH  28  29
ATOM     29  C   UNK A   0      -9.140   5.215 133.064  0.00  0.00    +0.000 A 
ATOM     30  C   UNK A   0      -8.221   5.783 133.963  0.00  0.00    +0.000 A 
ATOM     31  C   UNK A   0      -7.292   5.002 134.630  0.00  0.00    +0.000 A 
ATOM     32  C   UNK A   0      -7.327   3.624 134.478  0.00  0.00    +0.000 A 
ATOM     33  C   UNK A   0      -8.258   3.036 133.621  0.00  0.00    +0.000 A 
ATOM     34  C   UNK A   0      -9.155   3.828 132.903  0.00  0.00    +0.000 A 
ENDBRANCH  28  29
ENDBRANCH  27  28
ENDBRANCH  21  27
ENDBRANCH  19  21
ENDBRANCH   1  19
TORSDOF 11
ENDMDL
MODEL 2
REMARK VINA RESULT:      -7.4      6.991     10.016
REMARK  Name = Quinapril
REMARK  13 active torsions:
REMARK  status: ('A' for Active; 'I' for Inactive)
REMARK    1  A    between atoms: C_1  and  C_2
REMARK    2  A    between atoms: C_2  and  O_3
REMARK    3  A    between atoms: O_3  and  C_4
REMARK    4  A    between atoms: C_4  and  C_6
REMARK    5  A    between atoms: C_6  and  C_7
REMARK    6  A    between atoms: C_6  and  N_15
REMARK    7  A    between atoms: C_7  and  C_8
REMARK    8  A    between atoms: C_8  and  C_9
REMARK    9  A    between atoms: N_15  and  CA_16
REMARK   10  A    between atoms: CA_16  and  CB_17
REMARK   11  A    between atoms: CA_16  and  C_18
REMARK   12  A    between atoms: C_29  and  C_30
REMARK   13  A    between atoms: C_30  and  O_31
REMARK                            x       y       z     vdW  Elec       q    Type
REMARK                         _______ _______ _______ _____ _____    ______ ____
ROOT
ATOM      1  CA  ALA A   1      -7.780   0.400 126.900  0.00  0.00    +0.000 C 
ATOM      2  CB  ALA A   1      -9.078   1.069 126.487  0.00  0.00    +0.000 C 
ENDROOT
BRANCH   1   3
ATOM      3  C   ALA A   1      -8.003  -1.111 127.257  0.00  0.00    +0.000 C 
ATOM      4  O   ALA A   1      -8.652  -1.841 126.498  0.00  0.00    +0.000 OA
ATOM      5  N   UNK A   2      -7.399  -1.648 128.408  0.00  0.00    +0.000 N 
ATOM      6  C   UNK A   2      -7.700  -3.064 128.680  0.00  0.00    +0.000 C 
ATOM      7  C   UNK A   2      -7.110  -3.509 130.003  0.00  0.00    +0.000 A 
ATOM      8  C   UNK A   2      -6.019  -4.360 130.095  0.00  0.00    +0.000 A 
ATOM      9  C   UNK A   2      -5.434  -4.603 131.341  0.00  0.00    +0.000 A 
ATOM     10  C   UNK A   2      -5.933  -3.996 132.500  0.00  0.00    +0.000 A 
ATOM     11  C   UNK A   2      -6.973  -3.078 132.418  0.00  0.00    +0.000 A 
ATOM     12  C   UNK A   2      -7.460  -2.766 131.150  0.00  0.00    +0.000 A 
ATOM     13  C   UNK A   2      -7.950  -1.380 130.799  0.00  0.00    +0.000 C 
ATOM     14  C   UNK A   2      -6.943  -0.907 129.637  0.00  0.00    +0.000 C 
BRANCH  14  15
ATOM     15  C   UNK A   2      -5.351  -0.961 129.844  0.00  0.00    +0.000 C 
ATOM     16  O   UNK A   2      -4.740  -0.829 130.873  0.00  0.00    +0.000 OA
BRANCH  15  17
ATOM     17  O   UNK A   2      -4.624  -1.329 128.742  0.00  0.00    +0.000 OA
ATOM     18  H   UNK A   2      -3.683  -1.124 128.628  0.00  0.00    +0.000 HD
ENDBRANCH  15  17
ENDBRANCH  14  15
ENDBRANCH   1   3
BRANCH   1  19
ATOM     19  N   ALA A   1      -6.874   0.561 125.720  0.00  0.00    +0.000 NA
ATOM     20  H   ALA A   1      -6.231   1.339 125.909  0.00  0.00    +0.000 HD
BRANCH  19  21
ATOM     21  C   UNK A   0      -7.561   0.786 124.413  0.00  0.00    +0.000 C 
BRANCH  21  22
ATOM     22  C   UNK A   0      -7.591  -0.371 123.402  0.00  0.00    +0.000 C 
ATOM     23  O   UNK A   0      -8.649  -0.896 123.057  0.00  0.00    +0.000 OA
BRANCH  22  24
ATOM     24  O   UNK A   0      -6.369  -0.728 122.898  0.00  0.00    +0.000 OA
BRANCH  24  26
ATOM     25  C   UNK A   0      -5.311  -2.872 123.364  0.00  0.00    +0.000 C 
ATOM     26  C   UNK A   0      -6.326  -2.115 122.529  0.00  0.00    +0.000 C 
ENDBRANCH  24  26
ENDBRANCH  22  24
ENDBRANCH  21  22
BRANCH  21  27
ATOM     27  C   UNK A   0      -6.898   1.923 123.659  0.00  0.00    +0.000 C 
BRANCH  27  28
ATOM     28  C   UNK A   0      -7.828   2.608 122.676  0.00  0.00    +0.000 C 
BRANCH  28  29
ATOM     29  C   UNK A   0      -7.060   3.474 121.713  0.00  0.00    +0.000 A 
ATOM     30  C   UNK A   0      -7.593   3.843 120.466  0.00  0.00    +0.000 A 
ATOM     31  C   UNK A   0      -6.827   4.509 119.524  0.00  0.00    +0.000 A 
ATOM     32  C   UNK A   0      -5.537   4.899 119.850  0.00  0.00    +0.000 A 
ATOM     33  C   UNK A   0      -5.001   4.579 121.098  0.00  0.00    +0.000 A 
ATOM     34  C   UNK A   0      -5.753   3.856 122.024  0.00  0.00    +0.000 A 
ENDBRANCH  28  29
ENDBRANCH  27  28
ENDBRANCH  21  27
ENDBRANCH  19  21
ENDBRANCH   1  19
TORSDOF 11
ENDMDL
MODEL 3
REMARK VINA RESULT:      -7.3      3.210      6.457
REMARK  Name = Quinapril
REMARK  13 active torsions:
REMARK  status: ('A' for Active; 'I' for Inactive)
REMARK    1  A    between atoms: C_1  and  C_2
REMARK    2  A    between atoms: C_2  and  O_3
REMARK    3  A    between atoms: O_3  and  C_4
REMARK    4  A    between atoms: C_4  and  C_6
REMARK    5  A    between atoms: C_6  and  C_7
REMARK    6  A    between atoms: C_6  and  N_15
REMARK    7  A    between atoms: C_7  and  C_8
REMARK    8  A    between atoms: C_8  and  C_9
REMARK    9  A    between atoms: N_15  and  CA_16
REMARK   10  A    between atoms: CA_16  and  CB_17
REMARK   11  A    between atoms: CA_16  and  C_18
REMARK   12  A    between atoms: C_29  and  C_30
REMARK   13  A    between atoms: C_30  and  O_31
REMARK                            x       y       z     vdW  Elec       q    Type
REMARK                         _______ _______ _______ _____ _____    ______ ____
ROOT
ATOM      1  CA  ALA A   1      -4.002   5.315 127.603  0.00  0.00    +0.000 C 
ATOM      2  CB  ALA A   1      -2.641   5.417 128.265  0.00  0.00    +0.000 C 
ENDROOT
BRANCH   1   3
ATOM      3  C   ALA A   1      -4.236   3.889 126.992  0.00  0.00    +0.000 C 
ATOM      4  O   ALA A   1      -3.443   2.970 127.234  0.00  0.00    +0.000 OA
ATOM      5  N   UNK A   2      -5.391   3.643 126.228  0.00  0.00    +0.000 N 
ATOM      6  C   UNK A   2      -5.501   2.287 125.664  0.00  0.00    +0.000 C 
ATOM      7  C   UNK A   2      -6.708   2.162 124.757  0.00  0.00    +0.000 A 
ATOM      8  C   UNK A   2      -7.842   1.445 125.104  0.00  0.00    +0.000 A 
ATOM      9  C   UNK A   2      -8.975   1.504 124.286  0.00  0.00    +0.000 A 
ATOM     10  C   UNK A   2      -8.981   2.279 123.120  0.00  0.00    +0.000 A 
ATOM     11  C   UNK A   2      -7.883   3.068 122.798  0.00  0.00    +0.000 A 
ATOM     12  C   UNK A   2      -6.814   3.082 123.691  0.00  0.00    +0.000 A 
ATOM     13  C   UNK A   2      -5.986   4.324 123.931  0.00  0.00    +0.000 C 
ATOM     14  C   UNK A   2      -6.234   4.647 125.487  0.00  0.00    +0.000 C 
BRANCH  14  15
ATOM     15  C   UNK A   2      -7.720   4.775 126.084  0.00  0.00    +0.000 C 
ATOM     16  O   UNK A   2      -8.747   4.906 125.471  0.00  0.00    +0.000 OA
BRANCH  15  17
ATOM     17  O   UNK A   2      -7.832   4.580 127.436  0.00  0.00    +0.000 OA
ATOM     18  H   UNK A   2      -7.437   5.171 128.097  0.00  0.00    +0.000 HD
ENDBRANCH  15  17
ENDBRANCH  14  15
ENDBRANCH   1   3
BRANCH   1  19
ATOM     19  N   ALA A   1      -4.981   5.615 128.693  0.00  0.00    +0.000 NA
ATOM     20  H   ALA A   1      -5.057   6.636 128.789  0.00  0.00    +0.000 HD
BRANCH  19  21
ATOM     21  C   UNK A   0      -4.664   5.011 130.021  0.00  0.00    +0.000 C 
BRANCH  21  22
ATOM     22  C   UNK A   0      -5.388   3.715 130.419  0.00  0.00    +0.000 C 
ATOM     23  O   UNK A   0      -4.914   2.943 131.251  0.00  0.00    +0.000 OA
BRANCH  22  24
ATOM     24  O   UNK A   0      -6.600   3.522 129.811  0.00  0.00    +0.000 OA
BRANCH  24  26
ATOM     25  C   UNK A   0      -8.943   3.064 130.296  0.00  0.00    +0.000 C 
ATOM     26  C   UNK A   0      -7.496   2.758 130.633  0.00  0.00    +0.000 C 
ENDBRANCH  24  26
ENDBRANCH  22  24
ENDBRANCH  21  22
BRANCH  21  27
ATOM     27  C   UNK A   0      -5.002   5.983 131.136  0.00  0.00    +0.000 C 
BRANCH  27  28
ATOM     28  C   UNK A   0      -6.061   6.996 130.742  0.00  0.00    +0.000 C 
BRANCH  28  29
ATOM     29  C   UNK A   0      -7.385   6.677 131.386  0.00  0.00    +0.000 A 
ATOM     30  C   UNK A   0      -7.462   6.019 132.626  0.00  0.00    +0.000 A 
ATOM     31  C   UNK A   0      -8.675   5.593 133.140  0.00  0.00    +0.000 A 
ATOM     32  C   UNK A   0      -9.846   5.899 132.462  0.00  0.00    +0.000 A 
ATOM     33  C   UNK A   0      -9.795   6.586 131.249  0.00  0.00    +0.000 A 
ATOM     34  C   UNK A   0      -8.568   6.964 130.702  0.00  0.00    +0.000 A 
ENDBRANCH  28  29
ENDBRANCH  27  28
ENDBRANCH  21  27
ENDBRANCH  19  21
ENDBRANCH   1  19
TORSDOF 11
ENDMDL
MODEL 4
REMARK VINA RESULT:      -7.3      2.011      4.707
REMARK  Name = Quinapril
REMARK  13 active torsions:
REMARK  status: ('A' for Active; 'I' for Inactive)
REMARK    1  A    between atoms: C_1  and  C_2
REMARK    2  A    between atoms: C_2  and  O_3
REMARK    3  A    between atoms: O_3  and  C_4
REMARK    4  A    between atoms: C_4  and  C_6
REMARK    5  A    between atoms: C_6  and  C_7
REMARK    6  A    between atoms: C_6  and  N_15
REMARK    7  A    between atoms: C_7  and  C_8
REMARK    8  A    between atoms: C_8  and  C_9
REMARK    9  A    between atoms: N_15  and  CA_16
REMARK   10  A    between atoms: CA_16  and  CB_17
REMARK   11  A    between atoms: CA_16  and  C_18
REMARK   12  A    between atoms: C_29  and  C_30
REMARK   13  A    between atoms: C_30  and  O_31
REMARK                            x       y       z     vdW  Elec       q    Type
REMARK                         _______ _______ _______ _____ _____    ______ ____
ROOT
ATOM      1  CA  ALA A   1      -7.746   5.142 133.948  0.00  0.00    +0.000 C 
ATOM      2  CB  ALA A   1      -7.438   5.560 135.374  0.00  0.00    +0.000 C 
ENDROOT
BRANCH   1   3
ATOM      3  C   ALA A   1      -6.593   4.264 133.347  0.00  0.00    +0.000 C 
ATOM      4  O   ALA A   1      -6.508   3.064 133.638  0.00  0.00    +0.000 OA
ATOM      5  N   UNK A   2      -5.703   4.830 132.417  0.00  0.00    +0.000 N 
ATOM      6  C   UNK A   2      -4.632   3.938 131.941  0.00  0.00    +0.000 C 
ATOM      7  C   UNK A   2      -3.656   4.675 131.047  0.00  0.00    +0.000 A 
ATOM      8  C   UNK A   2      -3.589   4.477 129.677  0.00  0.00    +0.000 A 
ATOM      9  C   UNK A   2      -2.774   5.304 128.897  0.00  0.00    +0.000 A 
ATOM     10  C   UNK A   2      -2.024   6.333 129.481  0.00  0.00    +0.000 A 
ATOM     11  C   UNK A   2      -2.141   6.599 130.840  0.00  0.00    +0.000 A 
ATOM     12  C   UNK A   2      -3.048   5.836 131.573  0.00  0.00    +0.000 A 
ATOM     13  C   UNK A   2      -3.837   6.416 132.724  0.00  0.00    +0.000 C 
ATOM     14  C   UNK A   2      -5.365   6.287 132.238  0.00  0.00    +0.000 C 
BRANCH  14  15
ATOM     15  C   UNK A   2      -5.838   6.867 130.817  0.00  0.00    +0.000 C 
ATOM     16  O   UNK A   2      -5.367   7.794 130.210  0.00  0.00    +0.000 OA
BRANCH  15  17
ATOM     17  O   UNK A   2      -6.800   6.136 130.171  0.00  0.00    +0.000 OA
ATOM     18  H   UNK A   2      -7.569   6.532 129.732  0.00  0.00    +0.000 HD
ENDBRANCH  15  17
ENDBRANCH  14  15
ENDBRANCH   1   3
BRANCH   1  19
ATOM     19  N   ALA A   1      -9.030   4.380 134.042  0.00  0.00    +0.000 NA
ATOM     20  H   ALA A   1      -8.810   3.401 134.264  0.00  0.00    +0.000 HD
BRANCH  19  21
ATOM     21  C   UNK A   0      -9.896   4.435 132.826  0.00  0.00    +0.000 C 
BRANCH  21  22
ATOM     22  C   UNK A   0      -9.560   3.499 131.655  0.00  0.00    +0.000 C 
ATOM     23  O   UNK A   0      -9.942   2.329 131.637  0.00  0.00    +0.000 OA
BRANCH  22  24
ATOM     24  O   UNK A   0      -8.852   4.080 130.637  0.00  0.00    +0.000 OA
BRANCH  24  26
ATOM     25  C   UNK A   0      -7.166   2.705 129.542  0.00  0.00    +0.000 C 
ATOM     26  C   UNK A   0      -8.612   3.163 129.560  0.00  0.00    +0.000 C 
ENDBRANCH  24  26
ENDBRANCH  22  24
ENDBRANCH  21  22
BRANCH  21  27
ATOM     27  C   UNK A   0      -9.858   5.824 132.216  0.00  0.00    +0.000 C 
BRANCH  27  28
ATOM     28  C   UNK A   0     -11.237   6.421 132.011  0.00  0.00    +0.000 C 
BRANCH  28  29
ATOM     29  C   UNK A   0     -11.298   7.224 130.738  0.00  0.00    +0.000 A 
ATOM     30  C   UNK A   0     -12.494   7.815 130.296  0.00  0.00    +0.000 A 
ATOM     31  C   UNK A   0     -12.581   8.421 129.053  0.00  0.00    +0.000 A 
ATOM     32  C   UNK A   0     -11.444   8.525 128.266  0.00  0.00    +0.000 A 
ATOM     33  C   UNK A   0     -10.236   7.980 128.704  0.00  0.00    +0.000 A 
ATOM     34  C   UNK A   0     -10.163   7.318 129.929  0.00  0.00    +0.000 A 
ENDBRANCH  28  29
ENDBRANCH  27  28
ENDBRANCH  21  27
ENDBRANCH  19  21
ENDBRANCH   1  19
TORSDOF 11
ENDMDL
MODEL 5
REMARK VINA RESULT:      -7.3      3.689      6.924
REMARK  Name = Quinapril
REMARK  13 active torsions:
REMARK  status: ('A' for Active; 'I' for Inactive)
REMARK    1  A    between atoms: C_1  and  C_2
REMARK    2  A    between atoms: C_2  and  O_3
REMARK    3  A    between atoms: O_3  and  C_4
REMARK    4  A    between atoms: C_4  and  C_6
REMARK    5  A    between atoms: C_6  and  C_7
REMARK    6  A    between atoms: C_6  and  N_15
REMARK    7  A    between atoms: C_7  and  C_8
REMARK    8  A    between atoms: C_8  and  C_9
REMARK    9  A    between atoms: N_15  and  CA_16
REMARK   10  A    between atoms: CA_16  and  CB_17
REMARK   11  A    between atoms: CA_16  and  C_18
REMARK   12  A    between atoms: C_29  and  C_30
REMARK   13  A    between atoms: C_30  and  O_31
REMARK                            x       y       z     vdW  Elec       q    Type
REMARK                         _______ _______ _______ _____ _____    ______ ____
ROOT
ATOM      1  CA  ALA A   1      -7.950   2.124 128.641  0.00  0.00    +0.000 C 
ATOM      2  CB  ALA A   1      -8.067   1.163 129.809  0.00  0.00    +0.000 C 
ENDROOT
BRANCH   1   3
ATOM      3  C   ALA A   1      -8.254   1.409 127.278  0.00  0.00    +0.000 C 
ATOM      4  O   ALA A   1      -8.761   0.279 127.268  0.00  0.00    +0.000 OA
ATOM      5  N   UNK A   2      -8.017   2.088 126.070  0.00  0.00    +0.000 N 
ATOM      6  C   UNK A   2      -8.296   1.319 124.845  0.00  0.00    +0.000 C 
ATOM      7  C   UNK A   2      -7.890   2.089 123.605  0.00  0.00    +0.000 A 
ATOM      8  C   UNK A   2      -8.807   2.646 122.728  0.00  0.00    +0.000 A 
ATOM      9  C   UNK A   2      -8.360   3.474 121.693  0.00  0.00    +0.000 A 
ATOM     10  C   UNK A   2      -6.997   3.750 121.531  0.00  0.00    +0.000 A 
ATOM     11  C   UNK A   2      -6.070   3.267 122.448  0.00  0.00    +0.000 A 
ATOM     12  C   UNK A   2      -6.555   2.543 123.535  0.00  0.00    +0.000 A 
ATOM     13  C   UNK A   2      -5.910   2.619 124.900  0.00  0.00    +0.000 C 
ATOM     14  C   UNK A   2      -7.069   3.233 125.831  0.00  0.00    +0.000 C 
BRANCH  14  15
ATOM     15  C   UNK A   2      -7.823   4.594 125.431  0.00  0.00    +0.000 C 
ATOM     16  O   UNK A   2      -8.989   4.857 125.577  0.00  0.00    +0.000 OA
BRANCH  15  17
ATOM     17  O   UNK A   2      -7.015   5.612 124.998  0.00  0.00    +0.000 OA
ATOM     18  H   UNK A   2      -7.264   6.549 125.041  0.00  0.00    +0.000 HD
ENDBRANCH  15  17
ENDBRANCH  14  15
ENDBRANCH   1   3
BRANCH   1  19
ATOM     19  N   ALA A   1      -8.944   3.204 128.932  0.00  0.00    +0.000 NA
ATOM     20  H   ALA A   1      -9.590   3.273 128.136  0.00  0.00    +0.000 HD
BRANCH  19  21
ATOM     21  C   UNK A   0      -8.361   4.548 129.221  0.00  0.00    +0.000 C 
BRANCH  21  22
ATOM     22  C   UNK A   0      -6.860   4.634 129.536  0.00  0.00    +0.000 C 
ATOM     23  O   UNK A   0      -6.049   5.032 128.700  0.00  0.00    +0.000 OA
BRANCH  22  24
ATOM     24  O   UNK A   0      -6.517   4.277 130.813  0.00  0.00    +0.000 OA
BRANCH  24  26
ATOM     25  C   UNK A   0      -4.908   4.517 132.626  0.00  0.00    +0.000 C 
ATOM     26  C   UNK A   0      -5.444   5.082 131.324  0.00  0.00    +0.000 C 
ENDBRANCH  24  26
ENDBRANCH  22  24
ENDBRANCH  21  22
BRANCH  21  27
ATOM     27  C   UNK A   0      -9.032   5.162 130.435  0.00  0.00    +0.000 C 
BRANCH  27  28
ATOM     28  C   UNK A   0      -9.021   6.679 130.418  0.00  0.00    +0.000 C 
BRANCH  28  29
ATOM     29  C   UNK A   0     -10.348   7.228 129.963  0.00  0.00    +0.000 A 
ATOM     30  C   UNK A   0     -10.460   8.023 128.809  0.00  0.00    +0.000 A 
ATOM     31  C   UNK A   0     -11.650   8.650 128.481  0.00  0.00    +0.000 A 
ATOM     32  C   UNK A   0     -12.777   8.417 129.254  0.00  0.00    +0.000 A 
ATOM     33  C   UNK A   0     -12.698   7.599 130.382  0.00  0.00    +0.000 A 
ATOM     34  C   UNK A   0     -11.484   7.015 130.746  0.00  0.00    +0.000 A 
ENDBRANCH  28  29
ENDBRANCH  27  28
ENDBRANCH  21  27
ENDBRANCH  19  21
ENDBRANCH   1  19
TORSDOF 11
ENDMDL
MODEL 6
REMARK VINA RESULT:      -7.2      3.395      5.753
REMARK  Name = Quinapril
REMARK  13 active torsions:
REMARK  status: ('A' for Active; 'I' for Inactive)
REMARK    1  A    between atoms: C_1  and  C_2
REMARK    2  A    between atoms: C_2  and  O_3
REMARK    3  A    between atoms: O_3  and  C_4
REMARK    4  A    between atoms: C_4  and  C_6
REMARK    5  A    between atoms: C_6  and  C_7
REMARK    6  A    between atoms: C_6  and  N_15
REMARK    7  A    between atoms: C_7  and  C_8
REMARK    8  A    between atoms: C_8  and  C_9
REMARK    9  A    between atoms: N_15  and  CA_16
REMARK   10  A    between atoms: CA_16  and  CB_17
REMARK   11  A    between atoms: CA_16  and  C_18
REMARK   12  A    between atoms: C_29  and  C_30
REMARK   13  A    between atoms: C_30  and  O_31
REMARK                            x       y       z     vdW  Elec       q    Type
REMARK                         _______ _______ _______ _____ _____    ______ ____
ROOT
ATOM      1  CA  ALA A   1      -7.625   3.442 129.465  0.00  0.00    +0.000 C 
ATOM      2  CB  ALA A   1      -6.206   3.176 129.930  0.00  0.00    +0.000 C 
ENDROOT
BRANCH   1   3
ATOM      3  C   ALA A   1      -8.067   2.421 128.359  0.00  0.00    +0.000 C 
ATOM      4  O   ALA A   1      -8.602   1.352 128.676  0.00  0.00    +0.000 OA
ATOM      5  N   UNK A   2      -7.917   2.761 127.002  0.00  0.00    +0.000 N 
ATOM      6  C   UNK A   2      -8.323   1.722 126.040  0.00  0.00    +0.000 C 
ATOM      7  C   UNK A   2      -8.005   2.134 124.617  0.00  0.00    +0.000 A 
ATOM      8  C   UNK A   2      -8.980   2.495 123.700  0.00  0.00    +0.000 A 
ATOM      9  C   UNK A   2      -8.602   3.012 122.457  0.00  0.00    +0.000 A 
ATOM     10  C   UNK A   2      -7.252   3.172 122.124  0.00  0.00    +0.000 A 
ATOM     11  C   UNK A   2      -6.262   2.892 123.059  0.00  0.00    +0.000 A 
ATOM     12  C   UNK A   2      -6.670   2.490 124.330  0.00  0.00    +0.000 A 
ATOM     13  C   UNK A   2      -5.906   2.877 125.576  0.00  0.00    +0.000 C 
ATOM     14  C   UNK A   2      -6.963   3.762 126.405  0.00  0.00    +0.000 C 
BRANCH  14  15
ATOM     15  C   UNK A   2      -7.713   5.013 125.731  0.00  0.00    +0.000 C 
ATOM     16  O   UNK A   2      -8.839   5.387 125.930  0.00  0.00    +0.000 OA
BRANCH  15  17
ATOM     17  O   UNK A   2      -6.930   5.814 124.942  0.00  0.00    +0.000 OA
ATOM     18  H   UNK A   2      -6.698   5.600 124.024  0.00  0.00    +0.000 HD
ENDBRANCH  15  17
ENDBRANCH  14  15
ENDBRANCH   1   3
BRANCH   1  19
ATOM     19  N   ALA A   1      -8.462   3.315 130.699  0.00  0.00    +0.000 NA
ATOM     20  H   ALA A   1      -9.069   2.492 130.595  0.00  0.00    +0.000 HD
BRANCH  19  21
ATOM     21  C   UNK A   0      -9.292   4.510 131.034  0.00  0.00    +0.000 C 
BRANCH  21  22
ATOM     22  C   UNK A   0     -10.733   4.563 130.503  0.00  0.00    +0.000 C 
ATOM     23  O   UNK A   0     -11.296   3.558 130.069  0.00  0.00    +0.000 OA
BRANCH  22  24
ATOM     24  O   UNK A   0     -11.336   5.789 130.593  0.00  0.00    +0.000 OA
BRANCH  24  26
ATOM     25  C   UNK A   0     -11.550   7.082 128.540  0.00  0.00    +0.000 C 
ATOM     26  C   UNK A   0     -12.179   6.055 129.462  0.00  0.00    +0.000 C 
ENDBRANCH  24  26
ENDBRANCH  22  24
ENDBRANCH  21  22
BRANCH  21  27
ATOM     27  C   UNK A   0      -8.647   5.769 130.486  0.00  0.00    +0.000 C 
BRANCH  27  28
ATOM     28  C   UNK A   0      -8.105   6.680 131.571  0.00  0.00    +0.000 C 
BRANCH  28  29
ATOM     29  C   UNK A   0      -6.604   6.582 131.664  0.00  0.00    +0.000 A 
ATOM     30  C   UNK A   0      -5.974   5.944 132.747  0.00  0.00    +0.000 A 
ATOM     31  C   UNK A   0      -4.599   5.989 132.906  0.00  0.00    +0.000 A 
ATOM     32  C   UNK A   0      -3.821   6.598 131.933  0.00  0.00    +0.000 A 
ATOM     33  C   UNK A   0      -4.424   7.201 130.829  0.00  0.00    +0.000 A 
ATOM     34  C   UNK A   0      -5.813   7.208 130.699  0.00  0.00    +0.000 A 
ENDBRANCH  28  29
ENDBRANCH  27  28
ENDBRANCH  21  27
ENDBRANCH  19  21
ENDBRANCH   1  19
TORSDOF 11
ENDMDL
MODEL 7
REMARK VINA RESULT:      -7.2      5.465      8.313
REMARK  Name = Quinapril
REMARK  13 active torsions:
REMARK  status: ('A' for Active; 'I' for Inactive)
REMARK    1  A    between atoms: C_1  and  C_2
REMARK    2  A    between atoms: C_2  and  O_3
REMARK    3  A    between atoms: O_3  and  C_4
REMARK    4  A    between atoms: C_4  and  C_6
REMARK    5  A    between atoms: C_6  and  C_7
REMARK    6  A    between atoms: C_6  and  N_15
REMARK    7  A    between atoms: C_7  and  C_8
REMARK    8  A    between atoms: C_8  and  C_9
REMARK    9  A    between atoms: N_15  and  CA_16
REMARK   10  A    between atoms: CA_16  and  CB_17
REMARK   11  A    between atoms: CA_16  and  C_18
REMARK   12  A    between atoms: C_29  and  C_30
REMARK   13  A    between atoms: C_30  and  O_31
REMARK                            x       y       z     vdW  Elec       q    Type
REMARK                         _______ _______ _______ _____ _____    ______ ____
ROOT
ATOM      1  CA  ALA A   1      -7.213   0.761 126.621  0.00  0.00    +0.000 C 
ATOM      2  CB  ALA A   1      -7.657   0.043 127.881  0.00  0.00    +0.000 C 
ENDROOT
BRANCH   1   3
ATOM      3  C   ALA A   1      -5.665   1.018 126.622  0.00  0.00    +0.000 C 
ATOM      4  O   ALA A   1      -4.909   0.266 125.995  0.00  0.00    +0.000 OA
ATOM      5  N   UNK A   2      -5.151   2.150 127.279  0.00  0.00    +0.000 N 
ATOM      6  C   UNK A   2      -3.684   2.283 127.258  0.00  0.00    +0.000 C 
ATOM      7  C   UNK A   2      -3.225   3.458 128.097  0.00  0.00    +0.000 A 
ATOM      8  C   UNK A   2      -2.723   4.628 127.547  0.00  0.00    +0.000 A 
ATOM      9  C   UNK A   2      -2.466   5.726 128.373  0.00  0.00    +0.000 A 
ATOM     10  C   UNK A   2      -2.709   5.663 129.751  0.00  0.00    +0.000 A 
ATOM     11  C   UNK A   2      -3.288   4.528 130.308  0.00  0.00    +0.000 A 
ATOM     12  C   UNK A   2      -3.643   3.493 129.445  0.00  0.00    +0.000 A 
ATOM     13  C   UNK A   2      -4.864   2.636 129.682  0.00  0.00    +0.000 C 
ATOM     14  C   UNK A   2      -5.787   2.932 128.398  0.00  0.00    +0.000 C 
BRANCH  14  15
ATOM     15  C   UNK A   2      -6.165   4.434 127.974  0.00  0.00    +0.000 C 
ATOM     16  O   UNK A   2      -6.236   4.886 126.860  0.00  0.00    +0.000 OA
BRANCH  15  17
ATOM     17  O   UNK A   2      -6.580   5.249 128.994  0.00  0.00    +0.000 OA
ATOM     18  H   UNK A   2      -6.846   4.921 129.868  0.00  0.00    +0.000 HD
ENDBRANCH  15  17
ENDBRANCH  14  15
ENDBRANCH   1   3
BRANCH   1  19
ATOM     19  N   ALA A   1      -7.621  -0.144 125.501  0.00  0.00    +0.000 NA
ATOM     20  H   ALA A   1      -6.803  -0.695 125.215  0.00  0.00    +0.000 HD
BRANCH  19  21
ATOM     21  C   UNK A   0      -8.206   0.538 124.309  0.00  0.00    +0.000 C 
BRANCH  21  22
ATOM     22  C   UNK A   0      -9.100  -0.285 123.369  0.00  0.00    +0.000 C 
ATOM     23  O   UNK A   0     -10.238   0.082 123.079  0.00  0.00    +0.000 OA
BRANCH  22  24
ATOM     24  O   UNK A   0      -8.516  -1.415 122.861  0.00  0.00    +0.000 OA
BRANCH  24  26
ATOM     25  C   UNK A   0      -8.338  -3.463 124.168  0.00  0.00    +0.000 C 
ATOM     26  C   UNK A   0      -9.208  -2.605 123.269  0.00  0.00    +0.000 C 
ENDBRANCH  24  26
ENDBRANCH  22  24
ENDBRANCH  21  22
BRANCH  21  27
ATOM     27  C   UNK A   0      -7.103   1.063 123.409  0.00  0.00    +0.000 C 
BRANCH  27  28
ATOM     28  C   UNK A   0      -6.943   2.570 123.480  0.00  0.00    +0.000 C 
BRANCH  28  29
ATOM     29  C   UNK A   0      -7.255   3.213 122.154  0.00  0.00    +0.000 A 
ATOM     30  C   UNK A   0      -8.575   3.327 121.684  0.00  0.00    +0.000 A 
ATOM     31  C   UNK A   0      -8.845   3.778 120.402  0.00  0.00    +0.000 A 
ATOM     32  C   UNK A   0      -7.801   4.210 119.599  0.00  0.00    +0.000 A 
ATOM     33  C   UNK A   0      -6.486   4.144 120.062  0.00  0.00    +0.000 A 
ATOM     34  C   UNK A   0      -6.209   3.634 121.330  0.00  0.00    +0.000 A 
ENDBRANCH  28  29
ENDBRANCH  27  28
ENDBRANCH  21  27
ENDBRANCH  19  21
ENDBRANCH   1  19
TORSDOF 11
ENDMDL
MODEL 8
REMARK VINA RESULT:      -7.1      4.521      8.225
REMARK  Name = Quinapril
REMARK  13 active torsions:
REMARK  status: ('A' for Active; 'I' for Inactive)
REMARK    1  A    between atoms: C_1  and  C_2
REMARK    2  A    between atoms: C_2  and  O_3
REMARK    3  A    between atoms: O_3  and  C_4
REMARK    4  A    between atoms: C_4  and  C_6
REMARK    5  A    between atoms: C_6  and  C_7
REMARK    6  A    between atoms: C_6  and  N_15
REMARK    7  A    between atoms: C_7  and  C_8
REMARK    8  A    between atoms: C_8  and  C_9
REMARK    9  A    between atoms: N_15  and  CA_16
REMARK   10  A    between atoms: CA_16  and  CB_17
REMARK   11  A    between atoms: CA_16  and  C_18
REMARK   12  A    between atoms: C_29  and  C_30
REMARK   13  A    between atoms: C_30  and  O_31
REMARK                            x       y       z     vdW  Elec       q    Type
REMARK                         _______ _______ _______ _____ _____    ______ ____
ROOT
ATOM      1  CA  ALA A   1      -6.589   0.440 128.288  0.00  0.00    +0.000 C 
ATOM      2  CB  ALA A   1      -7.341  -0.854 128.537  0.00  0.00    +0.000 C 
ENDROOT
BRANCH   1   3
ATOM      3  C   ALA A   1      -6.401   1.258 129.613  0.00  0.00    +0.000 C 
ATOM      4  O   ALA A   1      -5.674   0.822 130.515  0.00  0.00    +0.000 OA
ATOM      5  N   UNK A   2      -7.003   2.522 129.739  0.00  0.00    +0.000 N 
ATOM      6  C   UNK A   2      -6.802   3.194 131.035  0.00  0.00    +0.000 C 
ATOM      7  C   UNK A   2      -7.592   4.484 131.117  0.00  0.00    +0.000 A 
ATOM      8  C   UNK A   2      -6.999   5.736 131.072  0.00  0.00    +0.000 A 
ATOM      9  C   UNK A   2      -7.802   6.879 130.995  0.00  0.00    +0.000 A 
ATOM     10  C   UNK A   2      -9.198   6.777 130.961  0.00  0.00    +0.000 A 
ATOM     11  C   UNK A   2      -9.808   5.528 130.924  0.00  0.00    +0.000 A 
ATOM     12  C   UNK A   2      -8.982   4.406 130.883  0.00  0.00    +0.000 A 
ATOM     13  C   UNK A   2      -9.358   3.162 130.111  0.00  0.00    +0.000 C 
ATOM     14  C   UNK A   2      -8.204   3.046 128.997  0.00  0.00    +0.000 C 
BRANCH  14  15
ATOM     15  C   UNK A   2      -7.850   4.282 128.033  0.00  0.00    +0.000 C 
ATOM     16  O   UNK A   2      -8.609   5.102 127.584  0.00  0.00    +0.000 OA
BRANCH  15  17
ATOM     17  O   UNK A   2      -6.515   4.495 127.811  0.00  0.00    +0.000 OA
ATOM     18  H   UNK A   2      -6.078   5.350 127.954  0.00  0.00    +0.000 HD
ENDBRANCH  15  17
ENDBRANCH  14  15
ENDBRANCH   1   3
BRANCH   1  19
ATOM     19  N   ALA A   1      -5.276   0.014 127.711  0.00  0.00    +0.000 NA
ATOM     20  H   ALA A   1      -4.536   0.248 128.383  0.00  0.00    +0.000 HD
BRANCH  19  21
ATOM     21  C   UNK A   0      -4.945   0.598 126.377  0.00  0.00    +0.000 C 
BRANCH  21  22
ATOM     22  C   UNK A   0      -4.926   2.128 126.242  0.00  0.00    +0.000 C 
ATOM     23  O   UNK A   0      -5.605   2.708 125.394  0.00  0.00    +0.000 OA
BRANCH  22  24
ATOM     24  O   UNK A   0      -4.138   2.778 127.153  0.00  0.00    +0.000 OA
BRANCH  24  26
ATOM     25  C   UNK A   0      -1.791   3.029 126.551  0.00  0.00    +0.000 C 
ATOM     26  C   UNK A   0      -3.180   3.638 126.517  0.00  0.00    +0.000 C 
ENDBRANCH  24  26
ENDBRANCH  22  24
ENDBRANCH  21  22
BRANCH  21  27
ATOM     27  C   UNK A   0      -5.955   0.146 125.339  0.00  0.00    +0.000 C 
BRANCH  27  28
ATOM     28  C   UNK A   0      -5.728  -1.280 124.870  0.00  0.00    +0.000 C 
BRANCH  28  29
ATOM     29  C   UNK A   0      -7.017  -1.915 124.419  0.00  0.00    +0.000 A 
ATOM     30  C   UNK A   0      -7.602  -2.979 125.127  0.00  0.00    +0.000 A 
ATOM     31  C   UNK A   0      -8.701  -3.658 124.627  0.00  0.00    +0.000 A 
ATOM     32  C   UNK A   0      -9.290  -3.225 123.450  0.00  0.00    +0.000 A 
ATOM     33  C   UNK A   0      -8.750  -2.144 122.751  0.00  0.00    +0.000 A 
ATOM     34  C   UNK A   0      -7.608  -1.498 123.224  0.00  0.00    +0.000 A 
ENDBRANCH  28  29
ENDBRANCH  27  28
ENDBRANCH  21  27
ENDBRANCH  19  21
ENDBRANCH   1  19
TORSDOF 11
ENDMDL
MODEL 9
REMARK VINA RESULT:      -7.1      4.886      8.665
REMARK  Name = Quinapril
REMARK  13 active torsions:
REMARK  status: ('A' for Active; 'I' for Inactive)
REMARK    1  A    between atoms: C_1  and  C_2
REMARK    2  A    between atoms: C_2  and  O_3
REMARK    3  A    between atoms: O_3  and  C_4
REMARK    4  A    between atoms: C_4  and  C_6
REMARK    5  A    between atoms: C_6  and  C_7
REMARK    6  A    between atoms: C_6  and  N_15
REMARK    7  A    between atoms: C_7  and  C_8
REMARK    8  A    between atoms: C_8  and  C_9
REMARK    9  A    between atoms: N_15  and  CA_16
REMARK   10  A    between atoms: CA_16  and  CB_17
REMARK   11  A    between atoms: CA_16  and  C_18
REMARK   12  A    between atoms: C_29  and  C_30
REMARK   13  A    between atoms: C_30  and  O_31
REMARK                            x       y       z     vdW  Elec       q    Type
REMARK                         _______ _______ _______ _____ _____    ______ ____
ROOT
ATOM      1  CA  ALA A   1      -6.579   2.146 127.935  0.00  0.00    +0.000 C 
ATOM      2  CB  ALA A   1      -6.765   3.547 128.485  0.00  0.00    +0.000 C 
ENDROOT
BRANCH   1   3
ATOM      3  C   ALA A   1      -7.882   1.629 127.231  0.00  0.00    +0.000 C 
ATOM      4  O   ALA A   1      -8.897   2.336 127.204  0.00  0.00    +0.000 OA
ATOM      5  N   UNK A   2      -7.867   0.388 126.569  0.00  0.00    +0.000 N 
ATOM      6  C   UNK A   2      -9.148  -0.028 125.973  0.00  0.00    +0.000 C 
ATOM      7  C   UNK A   2      -9.061  -1.427 125.398  0.00  0.00    +0.000 A 
ATOM      8  C   UNK A   2      -9.049  -1.683 124.036  0.00  0.00    +0.000 A 
ATOM      9  C   UNK A   2      -8.810  -2.983 123.578  0.00  0.00    +0.000 A 
ATOM     10  C   UNK A   2      -8.579  -4.031 124.478  0.00  0.00    +0.000 A 
ATOM     11  C   UNK A   2      -8.507  -3.779 125.843  0.00  0.00    +0.000 A 
ATOM     12  C   UNK A   2      -8.632  -2.456 126.263  0.00  0.00    +0.000 A 
ATOM     13  C   UNK A   2      -7.868  -1.917 127.450  0.00  0.00    +0.000 C 
ATOM     14  C   UNK A   2      -6.937  -0.771 126.810  0.00  0.00    +0.000 C 
BRANCH  14  15
ATOM     15  C   UNK A   2      -5.984  -1.079 125.555  0.00  0.00    +0.000 C 
ATOM     16  O   UNK A   2      -5.458  -2.124 125.272  0.00  0.00    +0.000 OA
BRANCH  15  17
ATOM     17  O   UNK A   2      -5.869  -0.067 124.638  0.00  0.00    +0.000 OA
ATOM     18  H   UNK A   2      -6.594   0.215 124.057  0.00  0.00    +0.000 HD
ENDBRANCH  15  17
ENDBRANCH  14  15
ENDBRANCH   1   3
BRANCH   1  19
ATOM     19  N   ALA A   1      -5.440   2.260 126.972  0.00  0.00    +0.000 NA
ATOM     20  H   ALA A   1      -4.561   2.167 127.497  0.00  0.00    +0.000 HD
BRANCH  19  21
ATOM     21  C   UNK A   0      -5.409   3.516 126.165  0.00  0.00    +0.000 C 
BRANCH  21  22
ATOM     22  C   UNK A   0      -5.870   3.447 124.701  0.00  0.00    +0.000 C 
ATOM     23  O   UNK A   0      -6.670   2.593 124.318  0.00  0.00    +0.000 OA
BRANCH  22  24
ATOM     24  O   UNK A   0      -5.357   4.423 123.888  0.00  0.00    +0.000 OA
BRANCH  24  26
ATOM     25  C   UNK A   0      -4.538   4.806 121.627  0.00  0.00    +0.000 C 
ATOM     26  C   UNK A   0      -5.582   4.136 122.500  0.00  0.00    +0.000 C 
ENDBRANCH  24  26
ENDBRANCH  22  24
ENDBRANCH  21  22
BRANCH  21  27
ATOM     27  C   UNK A   0      -3.994   4.056 126.085  0.00  0.00    +0.000 C 
BRANCH  27  28
ATOM     28  C   UNK A   0      -3.059   3.429 127.103  0.00  0.00    +0.000 C 
BRANCH  28  29
ATOM     29  C   UNK A   0      -2.865   4.333 128.292  0.00  0.00    +0.000 A 
ATOM     30  C   UNK A   0      -3.243   3.938 129.587  0.00  0.00    +0.000 A 
ATOM     31  C   UNK A   0      -3.205   4.825 130.650  0.00  0.00    +0.000 A 
ATOM     32  C   UNK A   0      -2.701   6.102 130.452  0.00  0.00    +0.000 A 
ATOM     33  C   UNK A   0      -2.283   6.502 129.182  0.00  0.00    +0.000 A 
ATOM     34  C   UNK A   0      -2.376   5.627 128.100  0.00  0.00    +0.000 A 
ENDBRANCH  28  29
ENDBRANCH  27  28
ENDBRANCH  21  27
ENDBRANCH  19  21
ENDBRANCH   1  19
TORSDOF 11
ENDMDL
