MODEL 1
REMARK VINA RESULT:      -7.0      0.000      0.000
REMARK  Name = Quinethazone
REMARK  4 active torsions:
REMARK  status: ('A' for Active; 'I' for Inactive)
REMARK    1  A    between atoms: C_1  and  C_2
REMARK    2  A    between atoms: C_2  and  C_3
REMARK    3  A    between atoms: C_9  and  S_15
REMARK    4  A    between atoms: S_15  and  N_16
REMARK                            x       y       z     vdW  Elec       q    Type
REMARK                         _______ _______ _______ _____ _____    ______ ____
ROOT
ATOM      1  C   UNL     1      -8.078   5.057 133.407  0.00  0.00    +0.000 C 
ATOM      2  N   UNL     1      -7.279   6.078 132.800  0.00  0.00    +0.000 N 
ATOM      3  C   UNL     1      -7.567   6.422 131.508  0.00  0.00    +0.000 C 
ATOM      4  O   UNL     1      -6.708   6.678 130.676  0.00  0.00    +0.000 OA
ATOM      5  C   UNL     1      -9.018   6.557 131.239  0.00  0.00    +0.000 A 
ATOM      6  C   UNL     1      -9.462   7.182 130.071  0.00  0.00    +0.000 A 
ATOM      7  C   UNL     1     -10.832   7.405 129.895  0.00  0.00    +0.000 A 
ATOM      8  C   UNL     1     -11.737   7.001 130.882  0.00  0.00    +0.000 A 
ATOM      9 CL   UNL     1     -13.452   7.172 130.734  0.00  0.00    +0.000 Cl
ATOM     10  C   UNL     1     -11.268   6.390 132.059  0.00  0.00    +0.000 A 
ATOM     11  C   UNL     1      -9.905   6.169 132.260  0.00  0.00    +0.000 A 
ATOM     12  N   UNL     1      -9.427   5.576 133.425  0.00  0.00    +0.000 N 
ATOM     13  H   UNL     1      -6.354   6.294 133.140  0.00  0.00    +0.000 HD
ATOM     14  H   UNL     1     -10.026   5.402 134.219  0.00  0.00    +0.000 HD
ENDROOT
BRANCH   7  15
ATOM     15  S   UNL     1     -11.362   8.237 128.423  0.00  0.00    +0.000 S 
ATOM     16  O   UNL     1     -12.393   9.188 128.786  0.00  0.00    +0.000 OA
ATOM     17  O   UNL     1     -10.193   8.625 127.676  0.00  0.00    +0.000 OA
BRANCH  15  18
ATOM     18  N   UNL     1     -12.075   7.006 127.552  0.00  0.00    +0.000 NA
ATOM     19  H   UNL     1     -12.400   7.257 126.621  0.00  0.00    +0.000 HD
ATOM     20  H   UNL     1     -12.564   6.302 128.095  0.00  0.00    +0.000 HD
ENDBRANCH  15  18
ENDBRANCH   7  15
BRANCH   1  22
ATOM     21  C   UNL     1      -7.563   5.767 135.795  0.00  0.00    +0.000 C 
ATOM     22  C   UNL     1      -7.581   4.631 134.787  0.00  0.00    +0.000 C 
ENDBRANCH   1  22
TORSDOF 3
ENDMDL
MODEL 2
REMARK VINA RESULT:      -7.0      3.368      5.789
REMARK  Name = Quinethazone
REMARK  4 active torsions:
REMARK  status: ('A' for Active; 'I' for Inactive)
REMARK    1  A    between atoms: C_1  and  C_2
REMARK    2  A    between atoms: C_2  and  C_3
REMARK    3  A    between atoms: C_9  and  S_15
REMARK    4  A    between atoms: S_15  and  N_16
REMARK                            x       y       z     vdW  Elec       q    Type
REMARK                         _______ _______ _______ _____ _____    ______ ____
ROOT
ATOM      1  C   UNL     1     -12.673   9.729 129.369  0.00  0.00    +0.000 C 
ATOM      2  N   UNL     1     -12.590   9.099 128.087  0.00  0.00    +0.000 N 
ATOM      3  C   UNL     1     -11.466   8.367 127.813  0.00  0.00    +0.000 C 
ATOM      4  O   UNL     1     -10.921   8.362 126.720  0.00  0.00    +0.000 OA
ATOM      5  C   UNL     1     -11.033   7.503 128.937  0.00  0.00    +0.000 A 
ATOM      6  C   UNL     1     -10.097   6.488 128.724  0.00  0.00    +0.000 A 
ATOM      7  C   UNL     1      -9.793   5.608 129.768  0.00  0.00    +0.000 A 
ATOM      8  C   UNL     1     -10.425   5.754 131.009  0.00  0.00    +0.000 A 
ATOM      9 CL   UNL     1     -10.074   4.763 132.382  0.00  0.00    +0.000 Cl
ATOM     10  C   UNL     1     -11.378   6.771 131.198  0.00  0.00    +0.000 A 
ATOM     11  C   UNL     1     -11.705   7.651 130.165  0.00  0.00    +0.000 A 
ATOM     12  N   UNL     1     -12.654   8.654 130.336  0.00  0.00    +0.000 N 
ATOM     13  H   UNL     1     -13.125   9.432 127.300  0.00  0.00    +0.000 HD
ATOM     14  H   UNL     1     -13.234   8.705 131.160  0.00  0.00    +0.000 HD
ENDROOT
BRANCH   7  15
ATOM     15  S   UNL     1      -8.634   4.306 129.456  0.00  0.00    +0.000 S 
ATOM     16  O   UNL     1      -7.471   4.525 130.291  0.00  0.00    +0.000 OA
ATOM     17  O   UNL     1      -9.347   3.055 129.452  0.00  0.00    +0.000 OA
BRANCH  15  18
ATOM     18  N   UNL     1      -8.196   4.588 127.872  0.00  0.00    +0.000 NA
ATOM     19  H   UNL     1      -8.838   4.230 127.168  0.00  0.00    +0.000 HD
ATOM     20  H   UNL     1      -7.199   4.629 127.685  0.00  0.00    +0.000 HD
ENDBRANCH  15  18
ENDBRANCH   7  15
BRANCH   1  22
ATOM     21  C   UNL     1     -13.599  11.877 130.371  0.00  0.00    +0.000 C 
ATOM     22  C   UNL     1     -13.883  10.651 129.520  0.00  0.00    +0.000 C 
ENDBRANCH   1  22
TORSDOF 3
ENDMDL
MODEL 3
REMARK VINA RESULT:      -6.6      3.588      6.341
REMARK  Name = Quinethazone
REMARK  4 active torsions:
REMARK  status: ('A' for Active; 'I' for Inactive)
REMARK    1  A    between atoms: C_1  and  C_2
REMARK    2  A    between atoms: C_2  and  C_3
REMARK    3  A    between atoms: C_9  and  S_15
REMARK    4  A    between atoms: S_15  and  N_16
REMARK                            x       y       z     vdW  Elec       q    Type
REMARK                         _______ _______ _______ _____ _____    ______ ____
ROOT
ATOM      1  C   UNL     1     -11.164   7.551 129.084  0.00  0.00    +0.000 C 
ATOM      2  N   UNL     1     -11.841   7.580 130.345  0.00  0.00    +0.000 N 
ATOM      3  C   UNL     1     -11.461   6.665 131.289  0.00  0.00    +0.000 C 
ATOM      4  O   UNL     1     -12.252   6.098 132.028  0.00  0.00    +0.000 OA
ATOM      5  C   UNL     1      -9.992   6.502 131.400  0.00  0.00    +0.000 A 
ATOM      6  C   UNL     1      -9.438   5.841 132.499  0.00  0.00    +0.000 A 
ATOM      7  C   UNL     1      -8.047   5.805 132.644  0.00  0.00    +0.000 A 
ATOM      8  C   UNL     1      -7.230   6.425 131.692  0.00  0.00    +0.000 A 
ATOM      9 CL   UNL     1      -5.502   6.383 131.744  0.00  0.00    +0.000 Cl
ATOM     10  C   UNL     1      -7.808   7.101 130.602  0.00  0.00    +0.000 A 
ATOM     11  C   UNL     1      -9.194   7.160 130.446  0.00  0.00    +0.000 A 
ATOM     12  N   UNL     1      -9.777   7.836 129.379  0.00  0.00    +0.000 N 
ATOM     13  H   UNL     1     -12.759   7.986 130.440  0.00  0.00    +0.000 HD
ATOM     14  H   UNL     1      -9.236   8.415 128.753  0.00  0.00    +0.000 HD
ENDROOT
BRANCH   7  15
ATOM     15  S   UNL     1      -7.375   4.995 134.070  0.00  0.00    +0.000 S 
ATOM     16  O   UNL     1      -6.679   3.805 133.628  0.00  0.00    +0.000 OA
ATOM     17  O   UNL     1      -6.743   5.988 134.899  0.00  0.00    +0.000 OA
BRANCH  15  18
ATOM     18  N   UNL     1      -8.747   4.519 134.891  0.00  0.00    +0.000 NA
ATOM     19  H   UNL     1      -9.603   4.497 134.341  0.00  0.00    +0.000 HD
ATOM     20  H   UNL     1      -8.777   4.748 135.880  0.00  0.00    +0.000 HD
ENDBRANCH  15  18
ENDBRANCH   7  15
BRANCH   1  22
ATOM     21  C   UNL     1     -13.076   9.121 128.491  0.00  0.00    +0.000 C 
ATOM     22  C   UNL     1     -11.764   8.498 128.046  0.00  0.00    +0.000 C 
ENDBRANCH   1  22
TORSDOF 3
ENDMDL
MODEL 4
REMARK VINA RESULT:      -6.4      8.461     10.567
REMARK  Name = Quinethazone
REMARK  4 active torsions:
REMARK  status: ('A' for Active; 'I' for Inactive)
REMARK    1  A    between atoms: C_1  and  C_2
REMARK    2  A    between atoms: C_2  and  C_3
REMARK    3  A    between atoms: C_9  and  S_15
REMARK    4  A    between atoms: S_15  and  N_16
REMARK                            x       y       z     vdW  Elec       q    Type
REMARK                         _______ _______ _______ _____ _____    ______ ____
ROOT
ATOM      1  C   UNL     1      -6.934   3.748 120.558  0.00  0.00    +0.000 C 
ATOM      2  N   UNL     1      -8.262   3.747 121.092  0.00  0.00    +0.000 N 
ATOM      3  C   UNL     1      -8.488   3.012 122.224  0.00  0.00    +0.000 C 
ATOM      4  O   UNL     1      -9.507   2.362 122.407  0.00  0.00    +0.000 OA
ATOM      5  C   UNL     1      -7.427   3.159 123.249  0.00  0.00    +0.000 A 
ATOM      6  C   UNL     1      -7.647   2.719 124.556  0.00  0.00    +0.000 A 
ATOM      7  C   UNL     1      -6.681   2.976 125.535  0.00  0.00    +0.000 A 
ATOM      8  C   UNL     1      -5.511   3.665 125.196  0.00  0.00    +0.000 A 
ATOM      9 CL   UNL     1      -4.229   3.978 126.313  0.00  0.00    +0.000 Cl
ATOM     10  C   UNL     1      -5.317   4.116 123.877  0.00  0.00    +0.000 A 
ATOM     11  C   UNL     1      -6.275   3.881 122.889  0.00  0.00    +0.000 A 
ATOM     12  N   UNL     1      -6.099   4.331 121.584  0.00  0.00    +0.000 N 
ATOM     13  H   UNL     1      -9.061   3.967 120.518  0.00  0.00    +0.000 HD
ATOM     14  H   UNL     1      -5.345   4.952 121.331  0.00  0.00    +0.000 HD
ENDROOT
BRANCH   7  15
ATOM     15  S   UNL     1      -7.006   2.443 127.193  0.00  0.00    +0.000 S 
ATOM     16  O   UNL     1      -6.182   1.284 127.466  0.00  0.00    +0.000 OA
ATOM     17  O   UNL     1      -7.006   3.601 128.049  0.00  0.00    +0.000 OA
BRANCH  15  18
ATOM     18  N   UNL     1      -8.594   1.941 127.103  0.00  0.00    +0.000 NA
ATOM     19  H   UNL     1      -9.267   2.657 126.840  0.00  0.00    +0.000 HD
ATOM     20  H   UNL     1      -8.861   1.192 127.734  0.00  0.00    +0.000 HD
ENDBRANCH  15  18
ENDBRANCH   7  15
BRANCH   1  22
ATOM     21  C   UNL     1      -5.682   5.471 119.166  0.00  0.00    +0.000 C 
ATOM     22  C   UNL     1      -6.817   4.463 119.212  0.00  0.00    +0.000 C 
ENDBRANCH   1  22
TORSDOF 3
ENDMDL
MODEL 5
REMARK VINA RESULT:      -6.3      9.321     10.090
REMARK  Name = Quinethazone
REMARK  4 active torsions:
REMARK  status: ('A' for Active; 'I' for Inactive)
REMARK    1  A    between atoms: C_1  and  C_2
REMARK    2  A    between atoms: C_2  and  C_3
REMARK    3  A    between atoms: C_9  and  S_15
REMARK    4  A    between atoms: S_15  and  N_16
REMARK                            x       y       z     vdW  Elec       q    Type
REMARK                         _______ _______ _______ _____ _____    ______ ____
ROOT
ATOM      1  C   UNL     1      -5.521  -2.306 124.388  0.00  0.00    +0.000 C 
ATOM      2  N   UNL     1      -5.794  -2.072 125.773  0.00  0.00    +0.000 N 
ATOM      3  C   UNL     1      -5.663  -0.791 126.236  0.00  0.00    +0.000 C 
ATOM      4  O   UNL     1      -5.192  -0.520 127.331  0.00  0.00    +0.000 OA
ATOM      5  C   UNL     1      -6.241   0.229 125.329  0.00  0.00    +0.000 A 
ATOM      6  C   UNL     1      -6.453   1.533 125.783  0.00  0.00    +0.000 A 
ATOM      7  C   UNL     1      -7.110   2.447 124.951  0.00  0.00    +0.000 A 
ATOM      8  C   UNL     1      -7.541   2.048 123.681  0.00  0.00    +0.000 A 
ATOM      9 CL   UNL     1      -8.303   3.115 122.552  0.00  0.00    +0.000 Cl
ATOM     10  C   UNL     1      -7.334   0.725 123.250  0.00  0.00    +0.000 A 
ATOM     11  C   UNL     1      -6.692  -0.205 124.070  0.00  0.00    +0.000 A 
ATOM     12  N   UNL     1      -6.491  -1.520 123.660  0.00  0.00    +0.000 N 
ATOM     13  H   UNL     1      -5.743  -2.815 126.453  0.00  0.00    +0.000 HD
ATOM     14  H   UNL     1      -6.911  -1.886 122.818  0.00  0.00    +0.000 HD
ENDROOT
BRANCH   7  15
ATOM     15  S   UNL     1      -7.402   4.082 125.569  0.00  0.00    +0.000 S 
ATOM     16  O   UNL     1      -8.801   4.398 125.367  0.00  0.00    +0.000 OA
ATOM     17  O   UNL     1      -6.769   4.199 126.857  0.00  0.00    +0.000 OA
BRANCH  15  18
ATOM     18  N   UNL     1      -6.502   5.024 124.528  0.00  0.00    +0.000 NA
ATOM     19  H   UNL     1      -5.534   5.177 124.800  0.00  0.00    +0.000 HD
ATOM     20  H   UNL     1      -7.012   5.740 124.020  0.00  0.00    +0.000 HD
ENDBRANCH  15  18
ENDBRANCH   7  15
BRANCH   1  22
ATOM     21  C   UNL     1      -4.166  -4.321 123.627  0.00  0.00    +0.000 C 
ATOM     22  C   UNL     1      -5.537  -3.785 124.003  0.00  0.00    +0.000 C 
ENDBRANCH   1  22
TORSDOF 3
ENDMDL
MODEL 6
REMARK VINA RESULT:      -6.3     10.146     10.527
REMARK  Name = Quinethazone
REMARK  4 active torsions:
REMARK  status: ('A' for Active; 'I' for Inactive)
REMARK    1  A    between atoms: C_1  and  C_2
REMARK    2  A    between atoms: C_2  and  C_3
REMARK    3  A    between atoms: C_9  and  S_15
REMARK    4  A    between atoms: S_15  and  N_16
REMARK                            x       y       z     vdW  Elec       q    Type
REMARK                         _______ _______ _______ _____ _____    ______ ____
ROOT
ATOM      1  C   UNL     1      -7.486  -2.294 129.832  0.00  0.00    +0.000 C 
ATOM      2  N   UNL     1      -7.849  -3.565 129.283  0.00  0.00    +0.000 N 
ATOM      3  C   UNL     1      -8.666  -3.570 128.185  0.00  0.00    +0.000 C 
ATOM      4  O   UNL     1      -9.562  -4.384 128.021  0.00  0.00    +0.000 OA
ATOM      5  C   UNL     1      -8.295  -2.559 127.166  0.00  0.00    +0.000 A 
ATOM      6  C   UNL     1      -8.831  -2.629 125.878  0.00  0.00    +0.000 A 
ATOM      7  C   UNL     1      -8.376  -1.739 124.900  0.00  0.00    +0.000 A 
ATOM      8  C   UNL     1      -7.397  -0.792 125.220  0.00  0.00    +0.000 A 
ATOM      9 CL   UNL     1      -6.813   0.394 124.104  0.00  0.00    +0.000 Cl
ATOM     10  C   UNL     1      -6.856  -0.749 126.518  0.00  0.00    +0.000 A 
ATOM     11  C   UNL     1      -7.287  -1.637 127.505  0.00  0.00    +0.000 A 
ATOM     12  N   UNL     1      -6.752  -1.613 128.789  0.00  0.00    +0.000 N 
ATOM     13  H   UNL     1      -7.818  -4.407 129.838  0.00  0.00    +0.000 HD
ATOM     14  H   UNL     1      -5.949  -1.048 129.022  0.00  0.00    +0.000 HD
ENDROOT
BRANCH   7  15
ATOM     15  S   UNL     1      -9.044  -1.879 123.264  0.00  0.00    +0.000 S 
ATOM     16  O   UNL     1      -9.919  -0.748 123.035  0.00  0.00    +0.000 OA
ATOM     17  O   UNL     1      -7.971  -2.210 122.364  0.00  0.00    +0.000 OA
BRANCH  15  18
ATOM     18  N   UNL     1      -9.987  -3.250 123.379  0.00  0.00    +0.000 NA
ATOM     19  H   UNL     1     -10.725  -3.218 124.078  0.00  0.00    +0.000 HD
ATOM     20  H   UNL     1      -9.526  -4.127 123.156  0.00  0.00    +0.000 HD
ENDBRANCH  15  18
ENDBRANCH   7  15
BRANCH   1  22
ATOM     21  C   UNL     1      -6.067  -3.755 131.358  0.00  0.00    +0.000 C 
ATOM     22  C   UNL     1      -6.709  -2.395 131.145  0.00  0.00    +0.000 C 
ENDBRANCH   1  22
TORSDOF 3
ENDMDL
MODEL 7
REMARK VINA RESULT:      -6.2      9.436     10.190
REMARK  Name = Quinethazone
REMARK  4 active torsions:
REMARK  status: ('A' for Active; 'I' for Inactive)
REMARK    1  A    between atoms: C_1  and  C_2
REMARK    2  A    between atoms: C_2  and  C_3
REMARK    3  A    between atoms: C_9  and  S_15
REMARK    4  A    between atoms: S_15  and  N_16
REMARK                            x       y       z     vdW  Elec       q    Type
REMARK                         _______ _______ _______ _____ _____    ______ ____
ROOT
ATOM      1  C   UNL     1      -4.351   2.566 126.227  0.00  0.00    +0.000 C 
ATOM      2  N   UNL     1      -5.674   3.110 126.227  0.00  0.00    +0.000 N 
ATOM      3  C   UNL     1      -6.537   2.677 125.258  0.00  0.00    +0.000 C 
ATOM      4  O   UNL     1      -7.331   3.413 124.691  0.00  0.00    +0.000 OA
ATOM      5  C   UNL     1      -6.490   1.212 125.033  0.00  0.00    +0.000 A 
ATOM      6  C   UNL     1      -7.499   0.580 124.303  0.00  0.00    +0.000 A 
ATOM      7  C   UNL     1      -7.499  -0.816 124.206  0.00  0.00    +0.000 A 
ATOM      8  C   UNL     1      -6.494  -1.559 124.834  0.00  0.00    +0.000 A 
ATOM      9 CL   UNL     1      -6.366  -3.280 124.723  0.00  0.00    +0.000 Cl
ATOM     10  C   UNL     1      -5.496  -0.904 125.580  0.00  0.00    +0.000 A 
ATOM     11  C   UNL     1      -5.486   0.487 125.700  0.00  0.00    +0.000 A 
ATOM     12  N   UNL     1      -4.511   1.146 126.444  0.00  0.00    +0.000 N 
ATOM     13  H   UNL     1      -5.880   3.995 126.665  0.00  0.00    +0.000 HD
ATOM     14  H   UNL     1      -3.857   0.646 127.028  0.00  0.00    +0.000 HD
ENDROOT
BRANCH   7  15
ATOM     15  S   UNL     1      -8.815  -1.593 123.309  0.00  0.00    +0.000 S 
ATOM     16  O   UNL     1      -8.263  -2.162 122.097  0.00  0.00    +0.000 OA
ATOM     17  O   UNL     1      -9.595  -2.373 124.235  0.00  0.00    +0.000 OA
BRANCH  15  18
ATOM     18  N   UNL     1      -9.773  -0.296 122.883  0.00  0.00    +0.000 NA
ATOM     19  H   UNL     1      -9.667   0.033 121.926  0.00  0.00    +0.000 HD
ATOM     20  H   UNL     1      -9.999   0.356 123.628  0.00  0.00    +0.000 HD
ENDBRANCH  15  18
ENDBRANCH   7  15
BRANCH   1  22
ATOM     21  C   UNL     1      -1.948   3.087 126.882  0.00  0.00    +0.000 C 
ATOM     22  C   UNL     1      -3.418   3.226 127.241  0.00  0.00    +0.000 C 
ENDBRANCH   1  22
TORSDOF 3
ENDMDL
MODEL 8
REMARK VINA RESULT:      -6.1      8.695      9.836
REMARK  Name = Quinethazone
REMARK  4 active torsions:
REMARK  status: ('A' for Active; 'I' for Inactive)
REMARK    1  A    between atoms: C_1  and  C_2
REMARK    2  A    between atoms: C_2  and  C_3
REMARK    3  A    between atoms: C_9  and  S_15
REMARK    4  A    between atoms: S_15  and  N_16
REMARK                            x       y       z     vdW  Elec       q    Type
REMARK                         _______ _______ _______ _____ _____    ______ ____
ROOT
ATOM      1  C   UNL     1      -8.782  -1.524 124.307  0.00  0.00    +0.000 C 
ATOM      2  N   UNL     1      -9.340  -0.574 123.394  0.00  0.00    +0.000 N 
ATOM      3  C   UNL     1      -9.427   0.727 123.809  0.00  0.00    +0.000 C 
ATOM      4  O   UNL     1     -10.380   1.449 123.553  0.00  0.00    +0.000 OA
ATOM      5  C   UNL     1      -8.213   1.208 124.511  0.00  0.00    +0.000 A 
ATOM      6  C   UNL     1      -8.024   2.575 124.732  0.00  0.00    +0.000 A 
ATOM      7  C   UNL     1      -6.818   3.016 125.286  0.00  0.00    +0.000 A 
ATOM      8  C   UNL     1      -5.821   2.091 125.614  0.00  0.00    +0.000 A 
ATOM      9 CL   UNL     1      -4.323   2.524 126.362  0.00  0.00    +0.000 Cl
ATOM     10  C   UNL     1      -6.024   0.720 125.366  0.00  0.00    +0.000 A 
ATOM     11  C   UNL     1      -7.215   0.261 124.802  0.00  0.00    +0.000 A 
ATOM     12  N   UNL     1      -7.423  -1.090 124.542  0.00  0.00    +0.000 N 
ATOM     13  H   UNL     1      -9.949  -0.860 122.643  0.00  0.00    +0.000 HD
ATOM     14  H   UNL     1      -6.682  -1.770 124.627  0.00  0.00    +0.000 HD
ENDROOT
BRANCH   7  15
ATOM     15  S   UNL     1      -6.590   4.758 125.516  0.00  0.00    +0.000 S 
ATOM     16  O   UNL     1      -6.145   4.981 126.877  0.00  0.00    +0.000 OA
ATOM     17  O   UNL     1      -5.870   5.275 124.382  0.00  0.00    +0.000 OA
BRANCH  15  18
ATOM     18  N   UNL     1      -8.146   5.344 125.377  0.00  0.00    +0.000 NA
ATOM     19  H   UNL     1      -8.831   4.689 125.008  0.00  0.00    +0.000 HD
ATOM     20  H   UNL     1      -8.233   6.339 125.191  0.00  0.00    +0.000 HD
ENDBRANCH  15  18
ENDBRANCH   7  15
BRANCH   1  22
ATOM     21  C   UNL     1      -7.926  -3.909 124.543  0.00  0.00    +0.000 C 
ATOM     22  C   UNL     1      -8.874  -2.969 123.817  0.00  0.00    +0.000 C 
ENDBRANCH   1  22
TORSDOF 3
ENDMDL
MODEL 9
REMARK VINA RESULT:      -6.1     10.733     11.888
REMARK  Name = Quinethazone
REMARK  4 active torsions:
REMARK  status: ('A' for Active; 'I' for Inactive)
REMARK    1  A    between atoms: C_1  and  C_2
REMARK    2  A    between atoms: C_2  and  C_3
REMARK    3  A    between atoms: C_9  and  S_15
REMARK    4  A    between atoms: S_15  and  N_16
REMARK                            x       y       z     vdW  Elec       q    Type
REMARK                         _______ _______ _______ _____ _____    ______ ____
ROOT
ATOM      1  C   UNL     1      -8.537  -2.419 126.210  0.00  0.00    +0.000 C 
ATOM      2  N   UNL     1      -7.238  -2.606 125.640  0.00  0.00    +0.000 N 
ATOM      3  C   UNL     1      -6.165  -2.119 126.337  0.00  0.00    +0.000 C 
ATOM      4  O   UNL     1      -5.207  -1.583 125.801  0.00  0.00    +0.000 OA
ATOM      5  C   UNL     1      -6.229  -2.396 127.792  0.00  0.00    +0.000 A 
ATOM      6  C   UNL     1      -5.093  -2.233 128.589  0.00  0.00    +0.000 A 
ATOM      7  C   UNL     1      -5.142  -2.615 129.934  0.00  0.00    +0.000 A 
ATOM      8  C   UNL     1      -6.321  -3.150 130.464  0.00  0.00    +0.000 A 
ATOM      9 CL   UNL     1      -6.507  -3.592 132.126  0.00  0.00    +0.000 Cl
ATOM     10  C   UNL     1      -7.449  -3.323 129.640  0.00  0.00    +0.000 A 
ATOM     11  C   UNL     1      -7.416  -2.960 128.293  0.00  0.00    +0.000 A 
ATOM     12  N   UNL     1      -8.521  -3.137 127.465  0.00  0.00    +0.000 N 
ATOM     13  H   UNL     1      -7.114  -2.759 124.651  0.00  0.00    +0.000 HD
ATOM     14  H   UNL     1      -9.337  -3.648 127.767  0.00  0.00    +0.000 HD
ENDROOT
BRANCH   7  15
ATOM     15  S   UNL     1      -3.673  -2.436 130.909  0.00  0.00    +0.000 S 
ATOM     16  O   UNL     1      -3.823  -1.259 131.741  0.00  0.00    +0.000 OA
ATOM     17  O   UNL     1      -3.335  -3.723 131.459  0.00  0.00    +0.000 OA
BRANCH  15  18
ATOM     18  N   UNL     1      -2.514  -2.111 129.755  0.00  0.00    +0.000 NA
ATOM     19  H   UNL     1      -2.672  -2.534 128.843  0.00  0.00    +0.000 HD
ATOM     20  H   UNL     1      -1.570  -1.968 130.099  0.00  0.00    +0.000 HD
ENDBRANCH  15  18
ENDBRANCH   7  15
BRANCH   1  22
ATOM     21  C   UNL     1      -9.203  -3.282 123.910  0.00  0.00    +0.000 C 
ATOM     22  C   UNL     1      -9.677  -2.850 125.288  0.00  0.00    +0.000 C 
ENDBRANCH   1  22
TORSDOF 3
ENDMDL
