MODEL 1
REMARK VINA RESULT:      -6.7      0.000      0.000
REMARK  Name = Rabeprazole
REMARK  10 active torsions:
REMARK  status: ('A' for Active; 'I' for Inactive)
REMARK    1  A    between atoms: C_1  and  O_2
REMARK    2  A    between atoms: O_2  and  C_3
REMARK    3  A    between atoms: C_3  and  C_4
REMARK    4  A    between atoms: C_4  and  C_5
REMARK    5  A    between atoms: C_5  and  O_6
REMARK    6  A    between atoms: O_6  and  C_7
REMARK    7  A    between atoms: C_8  and  C_9
REMARK    8  A    between atoms: C_10  and  C_11
REMARK    9  A    between atoms: C_11  and  S_12
REMARK   10  A    between atoms: S_12  and  C_14
REMARK                            x       y       z     vdW  Elec       q    Type
REMARK                         _______ _______ _______ _____ _____    ______ ____
ROOT
ATOM      1  C   UNL     1      -8.902  -1.559 125.982  0.00  0.00    +0.000 A 
ATOM      2  C   UNL     1      -8.788  -0.168 125.914  0.00  0.00    +0.000 A 
ATOM      3  C   UNL     1      -9.628   0.545 124.912  0.00  0.00    +0.000 C 
ATOM      4  C   UNL     1      -7.976   0.517 126.863  0.00  0.00    +0.000 A 
ATOM      5  N   UNL     1      -7.308  -0.180 127.827  0.00  0.00    +0.000 NA
ATOM      6  C   UNL     1      -7.489  -1.524 127.891  0.00  0.00    +0.000 A 
ATOM      7  C   UNL     1      -8.284  -2.243 127.017  0.00  0.00    +0.000 A 
ENDROOT
BRANCH   1   8
ATOM      8  O   UNL     1      -9.727  -2.281 125.153  0.00  0.00    +0.000 OA
BRANCH   8   9
ATOM      9  C   UNL     1      -9.066  -3.215 124.289  0.00  0.00    +0.000 C 
BRANCH   9  10
ATOM     10  C   UNL     1      -8.857  -2.572 122.932  0.00  0.00    +0.000 C 
BRANCH  10  11
ATOM     11  C   UNL     1      -7.436  -2.036 122.856  0.00  0.00    +0.000 C 
BRANCH  11  13
ATOM     12  C   UNL     1      -5.585  -2.053 124.282  0.00  0.00    +0.000 C 
ATOM     13  O   UNL     1      -6.583  -2.846 123.650  0.00  0.00    +0.000 OA
ENDBRANCH  11  13
ENDBRANCH  10  11
ENDBRANCH   9  10
ENDBRANCH   8   9
ENDBRANCH   1   8
BRANCH   4  14
ATOM     14  C   UNL     1      -7.765   2.047 126.936  0.00  0.00    +0.000 C 
BRANCH  14  15
ATOM     15  S   UNL     1      -6.260   2.632 126.198  0.00  0.00    +0.000 S 
ATOM     16  O   UNL     1      -5.135   1.638 126.139  0.00  0.00    +0.000 OA
BRANCH  15  17
ATOM     17  C   UNL     1      -6.429   3.166 124.636  0.00  0.00    +0.000 A 
ATOM     18  N   UNL     1      -7.432   3.037 123.804  0.00  0.00    +0.000 NA
ATOM     19  C   UNL     1      -6.904   3.503 122.632  0.00  0.00    +0.000 A 
ATOM     20  C   UNL     1      -7.456   3.449 121.358  0.00  0.00    +0.000 A 
ATOM     21  C   UNL     1      -6.696   3.957 120.301  0.00  0.00    +0.000 A 
ATOM     22  C   UNL     1      -5.432   4.527 120.513  0.00  0.00    +0.000 A 
ATOM     23  C   UNL     1      -4.864   4.594 121.782  0.00  0.00    +0.000 A 
ATOM     24  C   UNL     1      -5.634   4.053 122.798  0.00  0.00    +0.000 A 
ATOM     25  N   UNL     1      -5.388   3.871 124.112  0.00  0.00    +0.000 N 
ATOM     26  H   UNL     1      -4.541   4.100 124.630  0.00  0.00    +0.000 HD
ENDBRANCH  15  17
ENDBRANCH  14  15
ENDBRANCH   4  14
TORSDOF 8
ENDMDL
MODEL 2
REMARK VINA RESULT:      -6.6      1.735      2.466
REMARK  Name = Rabeprazole
REMARK  10 active torsions:
REMARK  status: ('A' for Active; 'I' for Inactive)
REMARK    1  A    between atoms: C_1  and  O_2
REMARK    2  A    between atoms: O_2  and  C_3
REMARK    3  A    between atoms: C_3  and  C_4
REMARK    4  A    between atoms: C_4  and  C_5
REMARK    5  A    between atoms: C_5  and  O_6
REMARK    6  A    between atoms: O_6  and  C_7
REMARK    7  A    between atoms: C_8  and  C_9
REMARK    8  A    between atoms: C_10  and  C_11
REMARK    9  A    between atoms: C_11  and  S_12
REMARK   10  A    between atoms: S_12  and  C_14
REMARK                            x       y       z     vdW  Elec       q    Type
REMARK                         _______ _______ _______ _____ _____    ______ ____
ROOT
ATOM      1  C   UNL     1      -7.215  -1.348 126.910  0.00  0.00    +0.000 A 
ATOM      2  C   UNL     1      -6.875  -0.192 126.202  0.00  0.00    +0.000 A 
ATOM      3  C   UNL     1      -6.488  -0.348 124.771  0.00  0.00    +0.000 C 
ATOM      4  C   UNL     1      -7.016   1.080 126.825  0.00  0.00    +0.000 A 
ATOM      5  N   UNL     1      -7.475   1.171 128.106  0.00  0.00    +0.000 NA
ATOM      6  C   UNL     1      -7.845   0.029 128.739  0.00  0.00    +0.000 A 
ATOM      7  C   UNL     1      -7.756  -1.233 128.180  0.00  0.00    +0.000 A 
ENDROOT
BRANCH   1   8
ATOM      8  O   UNL     1      -7.179  -2.603 126.350  0.00  0.00    +0.000 OA
BRANCH   8   9
ATOM      9  C   UNL     1      -8.448  -3.129 125.939  0.00  0.00    +0.000 C 
BRANCH   9  10
ATOM     10  C   UNL     1      -8.258  -3.951 124.679  0.00  0.00    +0.000 C 
BRANCH  10  11
ATOM     11  C   UNL     1      -8.899  -3.217 123.512  0.00  0.00    +0.000 C 
BRANCH  11  13
ATOM     12  C   UNL     1      -9.485  -1.028 122.937  0.00  0.00    +0.000 C 
ATOM     13  O   UNL     1      -9.469  -2.001 123.975  0.00  0.00    +0.000 OA
ENDBRANCH  11  13
ENDBRANCH  10  11
ENDBRANCH   9  10
ENDBRANCH   8   9
ENDBRANCH   1   8
BRANCH   4  14
ATOM     14  C   UNL     1      -6.706   2.448 126.172  0.00  0.00    +0.000 C 
BRANCH  14  15
ATOM     15  S   UNL     1      -7.962   3.056 125.076  0.00  0.00    +0.000 S 
ATOM     16  O   UNL     1      -8.591   4.362 125.469  0.00  0.00    +0.000 OA
BRANCH  15  17
ATOM     17  C   UNL     1      -7.449   3.292 123.514  0.00  0.00    +0.000 A 
ATOM     18  N   UNL     1      -6.239   3.447 123.039  0.00  0.00    +0.000 NA
ATOM     19  C   UNL     1      -6.477   3.792 121.737  0.00  0.00    +0.000 A 
ATOM     20  C   UNL     1      -5.569   4.244 120.787  0.00  0.00    +0.000 A 
ATOM     21  C   UNL     1      -6.067   4.579 119.524  0.00  0.00    +0.000 A 
ATOM     22  C   UNL     1      -7.427   4.442 119.211  0.00  0.00    +0.000 A 
ATOM     23  C   UNL     1      -8.351   3.987 120.147  0.00  0.00    +0.000 A 
ATOM     24  C   UNL     1      -7.825   3.694 121.394  0.00  0.00    +0.000 A 
ATOM     25  N   UNL     1      -8.410   3.312 122.549  0.00  0.00    +0.000 N 
ATOM     26  H   UNL     1      -9.401   3.170 122.733  0.00  0.00    +0.000 HD
ENDBRANCH  15  17
ENDBRANCH  14  15
ENDBRANCH   4  14
TORSDOF 8
ENDMDL
MODEL 3
REMARK VINA RESULT:      -6.6      5.135      6.868
REMARK  Name = Rabeprazole
REMARK  10 active torsions:
REMARK  status: ('A' for Active; 'I' for Inactive)
REMARK    1  A    between atoms: C_1  and  O_2
REMARK    2  A    between atoms: O_2  and  C_3
REMARK    3  A    between atoms: C_3  and  C_4
REMARK    4  A    between atoms: C_4  and  C_5
REMARK    5  A    between atoms: C_5  and  O_6
REMARK    6  A    between atoms: O_6  and  C_7
REMARK    7  A    between atoms: C_8  and  C_9
REMARK    8  A    between atoms: C_10  and  C_11
REMARK    9  A    between atoms: C_11  and  S_12
REMARK   10  A    between atoms: S_12  and  C_14
REMARK                            x       y       z     vdW  Elec       q    Type
REMARK                         _______ _______ _______ _____ _____    ______ ____
ROOT
ATOM      1  C   UNL     1      -7.797  -1.019 129.629  0.00  0.00    +0.000 A 
ATOM      2  C   UNL     1      -7.906   0.353 129.389  0.00  0.00    +0.000 A 
ATOM      3  C   UNL     1      -7.972   0.803 127.970  0.00  0.00    +0.000 C 
ATOM      4  C   UNL     1      -8.062   1.248 130.486  0.00  0.00    +0.000 A 
ATOM      5  N   UNL     1      -8.098   0.769 131.763  0.00  0.00    +0.000 NA
ATOM      6  C   UNL     1      -8.043  -0.574 131.949  0.00  0.00    +0.000 A 
ATOM      7  C   UNL     1      -7.919  -1.496 130.924  0.00  0.00    +0.000 A 
ENDROOT
BRANCH   1   8
ATOM      8  O   UNL     1      -7.723  -1.949 128.619  0.00  0.00    +0.000 OA
BRANCH   8   9
ATOM      9  C   UNL     1      -8.280  -3.234 128.925  0.00  0.00    +0.000 C 
BRANCH   9  10
ATOM     10  C   UNL     1      -8.938  -3.798 127.680  0.00  0.00    +0.000 C 
BRANCH  10  11
ATOM     11  C   UNL     1      -8.639  -2.879 126.506  0.00  0.00    +0.000 C 
BRANCH  11  13
ATOM     12  C   UNL     1      -9.356  -3.186 124.303  0.00  0.00    +0.000 C 
ATOM     13  O   UNL     1      -9.754  -2.856 125.628  0.00  0.00    +0.000 OA
ENDBRANCH  11  13
ENDBRANCH  10  11
ENDBRANCH   9  10
ENDBRANCH   8   9
ENDBRANCH   1   8
BRANCH   4  14
ATOM     14  C   UNL     1      -8.218   2.783 130.388  0.00  0.00    +0.000 C 
BRANCH  14  15
ATOM     15  S   UNL     1      -9.632   3.448 131.228  0.00  0.00    +0.000 S 
ATOM     16  O   UNL     1      -9.395   3.906 132.639  0.00  0.00    +0.000 OA
BRANCH  15  17
ATOM     17  C   UNL     1     -10.322   4.756 130.475  0.00  0.00    +0.000 A 
ATOM     18  N   UNL     1      -9.967   5.383 129.381  0.00  0.00    +0.000 NA
ATOM     19  C   UNL     1     -10.792   6.474 129.387  0.00  0.00    +0.000 A 
ATOM     20  C   UNL     1     -10.753   7.586 128.556  0.00  0.00    +0.000 A 
ATOM     21  C   UNL     1     -11.684   8.602 128.789  0.00  0.00    +0.000 A 
ATOM     22  C   UNL     1     -12.645   8.497 129.806  0.00  0.00    +0.000 A 
ATOM     23  C   UNL     1     -12.704   7.388 130.645  0.00  0.00    +0.000 A 
ATOM     24  C   UNL     1     -11.745   6.419 130.402  0.00  0.00    +0.000 A 
ATOM     25  N   UNL     1     -11.448   5.269 131.043  0.00  0.00    +0.000 N 
ATOM     26  H   UNL     1     -11.888   4.884 131.877  0.00  0.00    +0.000 HD
ENDBRANCH  15  17
ENDBRANCH  14  15
ENDBRANCH   4  14
TORSDOF 8
ENDMDL
MODEL 4
REMARK VINA RESULT:      -6.6      5.312      7.157
REMARK  Name = Rabeprazole
REMARK  10 active torsions:
REMARK  status: ('A' for Active; 'I' for Inactive)
REMARK    1  A    between atoms: C_1  and  O_2
REMARK    2  A    between atoms: O_2  and  C_3
REMARK    3  A    between atoms: C_3  and  C_4
REMARK    4  A    between atoms: C_4  and  C_5
REMARK    5  A    between atoms: C_5  and  O_6
REMARK    6  A    between atoms: O_6  and  C_7
REMARK    7  A    between atoms: C_8  and  C_9
REMARK    8  A    between atoms: C_10  and  C_11
REMARK    9  A    between atoms: C_11  and  S_12
REMARK   10  A    between atoms: S_12  and  C_14
REMARK                            x       y       z     vdW  Elec       q    Type
REMARK                         _______ _______ _______ _____ _____    ______ ____
ROOT
ATOM      1  C   UNL     1      -8.096   2.791 127.842  0.00  0.00    +0.000 A 
ATOM      2  C   UNL     1      -8.246   3.283 129.141  0.00  0.00    +0.000 A 
ATOM      3  C   UNL     1      -9.321   2.689 129.985  0.00  0.00    +0.000 C 
ATOM      4  C   UNL     1      -7.313   4.235 129.644  0.00  0.00    +0.000 A 
ATOM      5  N   UNL     1      -6.284   4.668 128.860  0.00  0.00    +0.000 NA
ATOM      6  C   UNL     1      -6.144   4.125 127.624  0.00  0.00    +0.000 A 
ATOM      7  C   UNL     1      -6.999   3.179 127.089  0.00  0.00    +0.000 A 
ENDROOT
BRANCH   1   8
ATOM      8  O   UNL     1      -8.908   1.815 127.316  0.00  0.00    +0.000 OA
BRANCH   8   9
ATOM      9  C   UNL     1      -8.503   1.298 126.043  0.00  0.00    +0.000 C 
BRANCH   9  10
ATOM     10  C   UNL     1      -9.718   0.746 125.322  0.00  0.00    +0.000 C 
BRANCH  10  11
ATOM     11  C   UNL     1      -9.963   1.571 124.069  0.00  0.00    +0.000 C 
BRANCH  11  13
ATOM     12  C   UNL     1      -8.739   2.791 122.495  0.00  0.00    +0.000 C 
ATOM     13  O   UNL     1      -8.877   2.465 123.872  0.00  0.00    +0.000 OA
ENDBRANCH  11  13
ENDBRANCH  10  11
ENDBRANCH   9  10
ENDBRANCH   8   9
ENDBRANCH   1   8
BRANCH   4  14
ATOM     14  C   UNL     1      -7.327   4.856 131.060  0.00  0.00    +0.000 C 
BRANCH  14  15
ATOM     15  S   UNL     1      -7.823   6.558 131.126  0.00  0.00    +0.000 S 
ATOM     16  O   UNL     1      -6.786   7.556 130.693  0.00  0.00    +0.000 OA
BRANCH  15  17
ATOM     17  C   UNL     1      -9.158   6.917 130.207  0.00  0.00    +0.000 A 
ATOM     18  N   UNL     1      -9.347   7.874 129.332  0.00  0.00    +0.000 NA
ATOM     19  C   UNL     1     -10.685   7.769 129.067  0.00  0.00    +0.000 A 
ATOM     20  C   UNL     1     -11.487   8.636 128.335  0.00  0.00    +0.000 A 
ATOM     21  C   UNL     1     -12.848   8.334 128.241  0.00  0.00    +0.000 A 
ATOM     22  C   UNL     1     -13.389   7.186 128.839  0.00  0.00    +0.000 A 
ATOM     23  C   UNL     1     -12.600   6.303 129.572  0.00  0.00    +0.000 A 
ATOM     24  C   UNL     1     -11.264   6.653 129.667  0.00  0.00    +0.000 A 
ATOM     25  N   UNL     1     -10.236   6.097 130.343  0.00  0.00    +0.000 N 
ATOM     26  H   UNL     1     -10.254   5.281 130.952  0.00  0.00    +0.000 HD
ENDBRANCH  15  17
ENDBRANCH  14  15
ENDBRANCH   4  14
TORSDOF 8
ENDMDL
MODEL 5
REMARK VINA RESULT:      -6.5      4.931      7.480
REMARK  Name = Rabeprazole
REMARK  10 active torsions:
REMARK  status: ('A' for Active; 'I' for Inactive)
REMARK    1  A    between atoms: C_1  and  O_2
REMARK    2  A    between atoms: O_2  and  C_3
REMARK    3  A    between atoms: C_3  and  C_4
REMARK    4  A    between atoms: C_4  and  C_5
REMARK    5  A    between atoms: C_5  and  O_6
REMARK    6  A    between atoms: O_6  and  C_7
REMARK    7  A    between atoms: C_8  and  C_9
REMARK    8  A    between atoms: C_10  and  C_11
REMARK    9  A    between atoms: C_11  and  S_12
REMARK   10  A    between atoms: S_12  and  C_14
REMARK                            x       y       z     vdW  Elec       q    Type
REMARK                         _______ _______ _______ _____ _____    ______ ____
ROOT
ATOM      1  C   UNL     1      -5.741   4.462 125.315  0.00  0.00    +0.000 A 
ATOM      2  C   UNL     1      -6.874   4.265 126.109  0.00  0.00    +0.000 A 
ATOM      3  C   UNL     1      -8.201   4.573 125.505  0.00  0.00    +0.000 C 
ATOM      4  C   UNL     1      -6.735   3.682 127.400  0.00  0.00    +0.000 A 
ATOM      5  N   UNL     1      -5.503   3.323 127.863  0.00  0.00    +0.000 NA
ATOM      6  C   UNL     1      -4.436   3.481 127.040  0.00  0.00    +0.000 A 
ATOM      7  C   UNL     1      -4.509   4.016 125.766  0.00  0.00    +0.000 A 
ENDROOT
BRANCH   1   8
ATOM      8  O   UNL     1      -5.805   4.946 124.031  0.00  0.00    +0.000 OA
BRANCH   8   9
ATOM      9  C   UNL     1      -5.011   4.241 123.067  0.00  0.00    +0.000 C 
BRANCH   9  10
ATOM     10  C   UNL     1      -5.737   4.233 121.736  0.00  0.00    +0.000 C 
BRANCH  10  11
ATOM     11  C   UNL     1      -6.972   3.355 121.855  0.00  0.00    +0.000 C 
BRANCH  11  13
ATOM     12  C   UNL     1      -7.285   4.185 119.693  0.00  0.00    +0.000 C 
ATOM     13  O   UNL     1      -7.930   3.754 120.885  0.00  0.00    +0.000 OA
ENDBRANCH  11  13
ENDBRANCH  10  11
ENDBRANCH   9  10
ENDBRANCH   8   9
ENDBRANCH   1   8
BRANCH   4  14
ATOM     14  C   UNL     1      -7.887   3.379 128.386  0.00  0.00    +0.000 C 
BRANCH  14  15
ATOM     15  S   UNL     1      -8.159   4.620 129.625  0.00  0.00    +0.000 S 
ATOM     16  O   UNL     1      -6.989   5.519 129.913  0.00  0.00    +0.000 OA
BRANCH  15  17
ATOM     17  C   UNL     1      -9.410   5.658 129.290  0.00  0.00    +0.000 A 
ATOM     18  N   UNL     1      -9.663   6.352 128.208  0.00  0.00    +0.000 NA
ATOM     19  C   UNL     1     -10.700   7.149 128.607  0.00  0.00    +0.000 A 
ATOM     20  C   UNL     1     -11.276   8.216 127.927  0.00  0.00    +0.000 A 
ATOM     21  C   UNL     1     -12.305   8.912 128.567  0.00  0.00    +0.000 A 
ATOM     22  C   UNL     1     -12.765   8.537 129.838  0.00  0.00    +0.000 A 
ATOM     23  C   UNL     1     -12.205   7.468 130.533  0.00  0.00    +0.000 A 
ATOM     24  C   UNL     1     -11.168   6.824 129.878  0.00  0.00    +0.000 A 
ATOM     25  N   UNL     1     -10.351   5.820 130.260  0.00  0.00    +0.000 N 
ATOM     26  H   UNL     1     -10.335   5.329 131.153  0.00  0.00    +0.000 HD
ENDBRANCH  15  17
ENDBRANCH  14  15
ENDBRANCH   4  14
TORSDOF 8
ENDMDL
MODEL 6
REMARK VINA RESULT:      -6.5      2.864      4.120
REMARK  Name = Rabeprazole
REMARK  10 active torsions:
REMARK  status: ('A' for Active; 'I' for Inactive)
REMARK    1  A    between atoms: C_1  and  O_2
REMARK    2  A    between atoms: O_2  and  C_3
REMARK    3  A    between atoms: C_3  and  C_4
REMARK    4  A    between atoms: C_4  and  C_5
REMARK    5  A    between atoms: C_5  and  O_6
REMARK    6  A    between atoms: O_6  and  C_7
REMARK    7  A    between atoms: C_8  and  C_9
REMARK    8  A    between atoms: C_10  and  C_11
REMARK    9  A    between atoms: C_11  and  S_12
REMARK   10  A    between atoms: S_12  and  C_14
REMARK                            x       y       z     vdW  Elec       q    Type
REMARK                         _______ _______ _______ _____ _____    ______ ____
ROOT
ATOM      1  C   UNL     1      -7.095  -2.315 126.748  0.00  0.00    +0.000 A 
ATOM      2  C   UNL     1      -7.075  -1.490 125.620  0.00  0.00    +0.000 A 
ATOM      3  C   UNL     1      -5.775  -0.867 125.244  0.00  0.00    +0.000 C 
ATOM      4  C   UNL     1      -8.246  -1.366 124.819  0.00  0.00    +0.000 A 
ATOM      5  N   UNL     1      -9.382  -2.043 125.154  0.00  0.00    +0.000 NA
ATOM      6  C   UNL     1      -9.344  -2.875 126.225  0.00  0.00    +0.000 A 
ATOM      7  C   UNL     1      -8.231  -3.059 127.027  0.00  0.00    +0.000 A 
ENDROOT
BRANCH   1   8
ATOM      8  O   UNL     1      -5.984  -2.546 127.523  0.00  0.00    +0.000 OA
BRANCH   8   9
ATOM      9  C   UNL     1      -6.190  -2.447 128.938  0.00  0.00    +0.000 C 
BRANCH   9  10
ATOM     10  C   UNL     1      -5.334  -3.484 129.637  0.00  0.00    +0.000 C 
BRANCH  10  11
ATOM     11  C   UNL     1      -3.870  -3.116 129.457  0.00  0.00    +0.000 C 
BRANCH  11  13
ATOM     12  C   UNL     1      -4.074  -3.700 131.711  0.00  0.00    +0.000 C 
ATOM     13  O   UNL     1      -3.169  -3.363 130.668  0.00  0.00    +0.000 OA
ENDBRANCH  11  13
ENDBRANCH  10  11
ENDBRANCH   9  10
ENDBRANCH   8   9
ENDBRANCH   1   8
BRANCH   4  14
ATOM     14  C   UNL     1      -8.379  -0.516 123.534  0.00  0.00    +0.000 C 
BRANCH  14  15
ATOM     15  S   UNL     1      -8.955   1.142 123.790  0.00  0.00    +0.000 S 
ATOM     16  O   UNL     1      -8.665   1.731 125.141  0.00  0.00    +0.000 OA
BRANCH  15  17
ATOM     17  C   UNL     1      -8.348   2.250 122.712  0.00  0.00    +0.000 A 
ATOM     18  N   UNL     1      -8.947   2.903 121.748  0.00  0.00    +0.000 NA
ATOM     19  C   UNL     1      -7.899   3.501 121.103  0.00  0.00    +0.000 A 
ATOM     20  C   UNL     1      -7.911   4.188 119.896  0.00  0.00    +0.000 A 
ATOM     21  C   UNL     1      -6.692   4.674 119.416  0.00  0.00    +0.000 A 
ATOM     22  C   UNL     1      -5.499   4.502 120.133  0.00  0.00    +0.000 A 
ATOM     23  C   UNL     1      -5.467   3.821 121.347  0.00  0.00    +0.000 A 
ATOM     24  C   UNL     1      -6.689   3.329 121.774  0.00  0.00    +0.000 A 
ATOM     25  N   UNL     1      -7.031   2.569 122.836  0.00  0.00    +0.000 N 
ATOM     26  H   UNL     1      -6.419   2.185 123.555  0.00  0.00    +0.000 HD
ENDBRANCH  15  17
ENDBRANCH  14  15
ENDBRANCH   4  14
TORSDOF 8
ENDMDL
MODEL 7
REMARK VINA RESULT:      -6.4      6.069      8.789
REMARK  Name = Rabeprazole
REMARK  10 active torsions:
REMARK  status: ('A' for Active; 'I' for Inactive)
REMARK    1  A    between atoms: C_1  and  O_2
REMARK    2  A    between atoms: O_2  and  C_3
REMARK    3  A    between atoms: C_3  and  C_4
REMARK    4  A    between atoms: C_4  and  C_5
REMARK    5  A    between atoms: C_5  and  O_6
REMARK    6  A    between atoms: O_6  and  C_7
REMARK    7  A    between atoms: C_8  and  C_9
REMARK    8  A    between atoms: C_10  and  C_11
REMARK    9  A    between atoms: C_11  and  S_12
REMARK   10  A    between atoms: S_12  and  C_14
REMARK                            x       y       z     vdW  Elec       q    Type
REMARK                         _______ _______ _______ _____ _____    ______ ____
ROOT
ATOM      1  C   UNL     1      -5.654   3.746 128.326  0.00  0.00    +0.000 A 
ATOM      2  C   UNL     1      -6.134   3.710 129.637  0.00  0.00    +0.000 A 
ATOM      3  C   UNL     1      -5.136   3.568 130.734  0.00  0.00    +0.000 C 
ATOM      4  C   UNL     1      -7.521   3.919 129.884  0.00  0.00    +0.000 A 
ATOM      5  N   UNL     1      -8.377   4.148 128.846  0.00  0.00    +0.000 NA
ATOM      6  C   UNL     1      -7.862   4.229 127.594  0.00  0.00    +0.000 A 
ATOM      7  C   UNL     1      -6.522   4.061 127.292  0.00  0.00    +0.000 A 
ENDROOT
BRANCH   1   8
ATOM      8  O   UNL     1      -4.320   3.631 128.016  0.00  0.00    +0.000 OA
BRANCH   8   9
ATOM      9  C   UNL     1      -3.741   4.765 127.358  0.00  0.00    +0.000 C 
BRANCH   9  10
ATOM     10  C   UNL     1      -2.733   5.415 128.285  0.00  0.00    +0.000 C 
BRANCH  10  11
ATOM     11  C   UNL     1      -2.890   6.925 128.201  0.00  0.00    +0.000 C 
BRANCH  11  13
ATOM     12  C   UNL     1      -4.232   7.184 130.096  0.00  0.00    +0.000 C 
ATOM     13  O   UNL     1      -4.175   7.293 128.680  0.00  0.00    +0.000 OA
ENDBRANCH  11  13
ENDBRANCH  10  11
ENDBRANCH   9  10
ENDBRANCH   8   9
ENDBRANCH   1   8
BRANCH   4  14
ATOM     14  C   UNL     1      -8.202   3.933 131.272  0.00  0.00    +0.000 C 
BRANCH  14  15
ATOM     15  S   UNL     1      -8.480   5.547 131.955  0.00  0.00    +0.000 S 
ATOM     16  O   UNL     1      -7.297   6.474 131.937  0.00  0.00    +0.000 OA
BRANCH  15  17
ATOM     17  C   UNL     1      -9.693   6.403 131.212  0.00  0.00    +0.000 A 
ATOM     18  N   UNL     1     -10.959   6.515 131.525  0.00  0.00    +0.000 NA
ATOM     19  C   UNL     1     -11.472   7.178 130.444  0.00  0.00    +0.000 A 
ATOM     20  C   UNL     1     -12.805   7.426 130.139  0.00  0.00    +0.000 A 
ATOM     21  C   UNL     1     -13.082   8.091 128.942  0.00  0.00    +0.000 A 
ATOM     22  C   UNL     1     -12.058   8.520 128.086  0.00  0.00    +0.000 A 
ATOM     23  C   UNL     1     -10.716   8.286 128.376  0.00  0.00    +0.000 A 
ATOM     24  C   UNL     1     -10.484   7.598 129.555  0.00  0.00    +0.000 A 
ATOM     25  N   UNL     1      -9.347   7.132 130.115  0.00  0.00    +0.000 N 
ATOM     26  H   UNL     1      -8.398   7.193 129.750  0.00  0.00    +0.000 HD
ENDBRANCH  15  17
ENDBRANCH  14  15
ENDBRANCH   4  14
TORSDOF 8
ENDMDL
MODEL 8
REMARK VINA RESULT:      -6.2      7.424      9.897
REMARK  Name = Rabeprazole
REMARK  10 active torsions:
REMARK  status: ('A' for Active; 'I' for Inactive)
REMARK    1  A    between atoms: C_1  and  O_2
REMARK    2  A    between atoms: O_2  and  C_3
REMARK    3  A    between atoms: C_3  and  C_4
REMARK    4  A    between atoms: C_4  and  C_5
REMARK    5  A    between atoms: C_5  and  O_6
REMARK    6  A    between atoms: O_6  and  C_7
REMARK    7  A    between atoms: C_8  and  C_9
REMARK    8  A    between atoms: C_10  and  C_11
REMARK    9  A    between atoms: C_11  and  S_12
REMARK   10  A    between atoms: S_12  and  C_14
REMARK                            x       y       z     vdW  Elec       q    Type
REMARK                         _______ _______ _______ _____ _____    ______ ____
ROOT
ATOM      1  C   UNL     1      -5.267   5.938 130.036  0.00  0.00    +0.000 A 
ATOM      2  C   UNL     1      -6.347   5.542 130.828  0.00  0.00    +0.000 A 
ATOM      3  C   UNL     1      -7.217   6.611 131.394  0.00  0.00    +0.000 C 
ATOM      4  C   UNL     1      -6.642   4.156 130.972  0.00  0.00    +0.000 A 
ATOM      5  N   UNL     1      -5.872   3.221 130.345  0.00  0.00    +0.000 NA
ATOM      6  C   UNL     1      -4.866   3.649 129.542  0.00  0.00    +0.000 A 
ATOM      7  C   UNL     1      -4.545   4.980 129.341  0.00  0.00    +0.000 A 
ENDROOT
BRANCH   1   8
ATOM      8  O   UNL     1      -4.968   7.256 129.787  0.00  0.00    +0.000 OA
BRANCH   8   9
ATOM      9  C   UNL     1      -3.585   7.608 129.917  0.00  0.00    +0.000 C 
BRANCH   9  10
ATOM     10  C   UNL     1      -3.285   7.910 131.373  0.00  0.00    +0.000 C 
BRANCH  10  11
ATOM     11  C   UNL     1      -2.180   6.981 131.850  0.00  0.00    +0.000 C 
BRANCH  11  13
ATOM     12  C   UNL     1      -3.823   6.570 133.461  0.00  0.00    +0.000 C 
ATOM     13  O   UNL     1      -2.426   6.610 133.199  0.00  0.00    +0.000 OA
ENDBRANCH  11  13
ENDBRANCH  10  11
ENDBRANCH   9  10
ENDBRANCH   8   9
ENDBRANCH   1   8
BRANCH   4  14
ATOM     14  C   UNL     1      -7.811   3.559 131.791  0.00  0.00    +0.000 C 
BRANCH  14  15
ATOM     15  S   UNL     1      -9.275   3.202 130.855  0.00  0.00    +0.000 S 
ATOM     16  O   UNL     1     -10.313   2.375 131.560  0.00  0.00    +0.000 OA
BRANCH  15  17
ATOM     17  C   UNL     1     -10.097   4.546 130.332  0.00  0.00    +0.000 A 
ATOM     18  N   UNL     1      -9.881   5.315 129.294  0.00  0.00    +0.000 NA
ATOM     19  C   UNL     1     -10.752   6.348 129.508  0.00  0.00    +0.000 A 
ATOM     20  C   UNL     1     -10.847   7.550 128.818  0.00  0.00    +0.000 A 
ATOM     21  C   UNL     1     -11.797   8.475 129.257  0.00  0.00    +0.000 A 
ATOM     22  C   UNL     1     -12.647   8.198 130.338  0.00  0.00    +0.000 A 
ATOM     23  C   UNL     1     -12.571   6.998 131.039  0.00  0.00    +0.000 A 
ATOM     24  C   UNL     1     -11.597   6.120 130.593  0.00  0.00    +0.000 A 
ATOM     25  N   UNL     1     -11.184   4.923 131.060  0.00  0.00    +0.000 N 
ATOM     26  H   UNL     1     -11.521   4.419 131.878  0.00  0.00    +0.000 HD
ENDBRANCH  15  17
ENDBRANCH  14  15
ENDBRANCH   4  14
TORSDOF 8
ENDMDL
MODEL 9
REMARK VINA RESULT:      -6.2      2.485      6.490
REMARK  Name = Rabeprazole
REMARK  10 active torsions:
REMARK  status: ('A' for Active; 'I' for Inactive)
REMARK    1  A    between atoms: C_1  and  O_2
REMARK    2  A    between atoms: O_2  and  C_3
REMARK    3  A    between atoms: C_3  and  C_4
REMARK    4  A    between atoms: C_4  and  C_5
REMARK    5  A    between atoms: C_5  and  O_6
REMARK    6  A    between atoms: O_6  and  C_7
REMARK    7  A    between atoms: C_8  and  C_9
REMARK    8  A    between atoms: C_10  and  C_11
REMARK    9  A    between atoms: C_11  and  S_12
REMARK   10  A    between atoms: S_12  and  C_14
REMARK                            x       y       z     vdW  Elec       q    Type
REMARK                         _______ _______ _______ _____ _____    ______ ____
ROOT
ATOM      1  C   UNL     1      -7.374   2.155 123.407  0.00  0.00    +0.000 A 
ATOM      2  C   UNL     1      -7.054   2.344 124.754  0.00  0.00    +0.000 A 
ATOM      3  C   UNL     1      -5.657   2.745 125.082  0.00  0.00    +0.000 C 
ATOM      4  C   UNL     1      -8.080   2.260 125.738  0.00  0.00    +0.000 A 
ATOM      5  N   UNL     1      -9.365   1.991 125.369  0.00  0.00    +0.000 NA
ATOM      6  C   UNL     1      -9.643   1.867 124.047  0.00  0.00    +0.000 A 
ATOM      7  C   UNL     1      -8.697   1.964 123.042  0.00  0.00    +0.000 A 
ENDROOT
BRANCH   1   8
ATOM      8  O   UNL     1      -6.455   2.297 122.395  0.00  0.00    +0.000 OA
BRANCH   8   9
ATOM      9  C   UNL     1      -6.457   3.569 121.736  0.00  0.00    +0.000 C 
BRANCH   9  10
ATOM     10  C   UNL     1      -5.146   3.747 120.995  0.00  0.00    +0.000 C 
BRANCH  10  11
ATOM     11  C   UNL     1      -5.195   5.050 120.213  0.00  0.00    +0.000 C 
BRANCH  11  13
ATOM     12  C   UNL     1      -6.061   5.873 118.205  0.00  0.00    +0.000 C 
ATOM     13  O   UNL     1      -6.298   5.022 119.319  0.00  0.00    +0.000 OA
ENDBRANCH  11  13
ENDBRANCH  10  11
ENDBRANCH   9  10
ENDBRANCH   8   9
ENDBRANCH   1   8
BRANCH   4  14
ATOM     14  C   UNL     1      -7.894   2.466 127.259  0.00  0.00    +0.000 C 
BRANCH  14  15
ATOM     15  S   UNL     1      -7.232   1.069 128.129  0.00  0.00    +0.000 S 
ATOM     16  O   UNL     1      -7.985   0.652 129.360  0.00  0.00    +0.000 OA
BRANCH  15  17
ATOM     17  C   UNL     1      -7.124  -0.314 127.217  0.00  0.00    +0.000 A 
ATOM     18  N   UNL     1      -6.128  -0.777 126.503  0.00  0.00    +0.000 NA
ATOM     19  C   UNL     1      -6.704  -1.828 125.843  0.00  0.00    +0.000 A 
ATOM     20  C   UNL     1      -6.171  -2.593 124.813  0.00  0.00    +0.000 A 
ATOM     21  C   UNL     1      -6.979  -3.593 124.265  0.00  0.00    +0.000 A 
ATOM     22  C   UNL     1      -8.272  -3.840 124.748  0.00  0.00    +0.000 A 
ATOM     23  C   UNL     1      -8.822  -3.087 125.783  0.00  0.00    +0.000 A 
ATOM     24  C   UNL     1      -8.002  -2.087 126.279  0.00  0.00    +0.000 A 
ATOM     25  N   UNL     1      -8.214  -1.129 127.206  0.00  0.00    +0.000 N 
ATOM     26  H   UNL     1      -9.065  -0.945 127.735  0.00  0.00    +0.000 HD
ENDBRANCH  15  17
ENDBRANCH  14  15
ENDBRANCH   4  14
TORSDOF 8
ENDMDL
