MODEL 1
REMARK VINA RESULT:      -4.3      0.000      0.000
REMARK  Name = Racemethionine
REMARK  7 active torsions:
REMARK  status: ('A' for Active; 'I' for Inactive)
REMARK    1  A    between atoms: CE_1  and  SD_2
REMARK    2  A    between atoms: SD_2  and  CG_3
REMARK    3  A    between atoms: CG_3  and  CB_4
REMARK    4  A    between atoms: CB_4  and  CA_5
REMARK    5  A    between atoms: CA_5  and  N_6
REMARK    6  A    between atoms: CA_5  and  C_7
REMARK    7  A    between atoms: C_7  and  O_8
REMARK                            x       y       z     vdW  Elec       q    Type
REMARK                         _______ _______ _______ _____ _____    ______ ____
ROOT
ATOM      1  CA  MET A   1     -11.301   8.276 127.655  0.00  0.00    +0.000 C 
ENDROOT
BRANCH   1   2
ATOM      2  N   MET A   1     -10.097   8.280 128.504  0.00  0.00    +0.000 NA
ATOM      3  H1  MET A   1      -9.504   9.078 128.283  0.00  0.00    +0.000 HD
ATOM      4  H2  MET A   1      -9.542   7.438 128.375  0.00  0.00    +0.000 HD
ENDBRANCH   1   2
BRANCH   1   5
ATOM      5  C   MET A   1     -11.170   7.136 126.606  0.00  0.00    +0.000 C 
ATOM      6  OXT MET A   1     -10.110   6.565 126.368  0.00  0.00    +0.000 OA
BRANCH   5   7
ATOM      7  O   MET A   1     -12.293   6.770 125.950  0.00  0.00    +0.000 OA
ATOM      8  H   MET A   1     -12.984   7.441 125.810  0.00  0.00    +0.000 HD
ENDBRANCH   5   7
ENDBRANCH   1   5
BRANCH   1   9
ATOM      9  CB  MET A   1     -12.570   8.208 128.516  0.00  0.00    +0.000 C 
BRANCH   9  10
ATOM     10  CG  MET A   1     -12.702   6.924 129.343  0.00  0.00    +0.000 C 
BRANCH  10  12
ATOM     11  CE  MET A   1     -11.421   6.432 131.782  0.00  0.00    +0.000 C 
ATOM     12  SD  MET A   1     -12.788   7.406 131.101  0.00  0.00    +0.000 S 
ENDBRANCH  10  12
ENDBRANCH   9  10
ENDBRANCH   1   9
TORSDOF 6
ENDMDL
MODEL 2
REMARK VINA RESULT:      -4.1      1.816      2.342
REMARK  Name = Racemethionine
REMARK  7 active torsions:
REMARK  status: ('A' for Active; 'I' for Inactive)
REMARK    1  A    between atoms: CE_1  and  SD_2
REMARK    2  A    between atoms: SD_2  and  CG_3
REMARK    3  A    between atoms: CG_3  and  CB_4
REMARK    4  A    between atoms: CB_4  and  CA_5
REMARK    5  A    between atoms: CA_5  and  N_6
REMARK    6  A    between atoms: CA_5  and  C_7
REMARK    7  A    between atoms: C_7  and  O_8
REMARK                            x       y       z     vdW  Elec       q    Type
REMARK                         _______ _______ _______ _____ _____    ______ ____
ROOT
ATOM      1  CA  MET A   1     -11.096   7.985 128.014  0.00  0.00    +0.000 C 
ENDROOT
BRANCH   1   2
ATOM      2  N   MET A   1      -9.821   8.007 128.752  0.00  0.00    +0.000 NA
ATOM      3  H1  MET A   1      -9.974   7.804 129.738  0.00  0.00    +0.000 HD
ATOM      4  H2  MET A   1      -9.365   8.914 128.690  0.00  0.00    +0.000 HD
ENDBRANCH   1   2
BRANCH   1   5
ATOM      5  C   MET A   1     -10.947   7.042 126.786  0.00  0.00    +0.000 C 
ATOM      6  OXT MET A   1      -9.874   6.553 126.445  0.00  0.00    +0.000 OA
BRANCH   5   7
ATOM      7  O   MET A   1     -12.068   6.758 126.087  0.00  0.00    +0.000 OA
ATOM      8  H   MET A   1     -12.436   7.447 125.507  0.00  0.00    +0.000 HD
ENDBRANCH   5   7
ENDBRANCH   1   5
BRANCH   1   9
ATOM      9  CB  MET A   1     -12.259   7.632 128.952  0.00  0.00    +0.000 C 
BRANCH   9  10
ATOM     10  CG  MET A   1     -12.666   8.762 129.904  0.00  0.00    +0.000 C 
BRANCH  10  12
ATOM     11  CE  MET A   1     -13.611  11.386 130.133  0.00  0.00    +0.000 C 
ATOM     12  SD  MET A   1     -13.474  10.059 128.907  0.00  0.00    +0.000 S 
ENDBRANCH  10  12
ENDBRANCH   9  10
ENDBRANCH   1   9
TORSDOF 6
ENDMDL
MODEL 3
REMARK VINA RESULT:      -4.1      1.370      1.428
REMARK  Name = Racemethionine
REMARK  7 active torsions:
REMARK  status: ('A' for Active; 'I' for Inactive)
REMARK    1  A    between atoms: CE_1  and  SD_2
REMARK    2  A    between atoms: SD_2  and  CG_3
REMARK    3  A    between atoms: CG_3  and  CB_4
REMARK    4  A    between atoms: CB_4  and  CA_5
REMARK    5  A    between atoms: CA_5  and  N_6
REMARK    6  A    between atoms: CA_5  and  C_7
REMARK    7  A    between atoms: C_7  and  O_8
REMARK                            x       y       z     vdW  Elec       q    Type
REMARK                         _______ _______ _______ _____ _____    ______ ____
ROOT
ATOM      1  CA  MET A   1     -12.163   7.778 127.683  0.00  0.00    +0.000 C 
ENDROOT
BRANCH   1   2
ATOM      2  N   MET A   1     -11.919   9.048 128.390  0.00  0.00    +0.000 NA
ATOM      3  H1  MET A   1     -11.811   8.887 129.389  0.00  0.00    +0.000 HD
ATOM      4  H2  MET A   1     -12.685   9.703 128.262  0.00  0.00    +0.000 HD
ENDBRANCH   1   2
BRANCH   1   5
ATOM      5  C   MET A   1     -10.905   7.427 126.837  0.00  0.00    +0.000 C 
ATOM      6  OXT MET A   1     -10.022   6.672 127.233  0.00  0.00    +0.000 OA
BRANCH   5   7
ATOM      7  O   MET A   1     -10.814   7.985 125.610  0.00  0.00    +0.000 OA
ATOM      8  H   MET A   1      -9.932   8.230 125.279  0.00  0.00    +0.000 HD
ENDBRANCH   5   7
ENDBRANCH   1   5
BRANCH   1   9
ATOM      9  CB  MET A   1     -12.593   6.684 128.669  0.00  0.00    +0.000 C 
BRANCH   9  10
ATOM     10  CG  MET A   1     -12.989   7.205 130.055  0.00  0.00    +0.000 C 
BRANCH  10  12
ATOM     11  CE  MET A   1     -11.229   5.056 130.383  0.00  0.00    +0.000 C 
ATOM     12  SD  MET A   1     -11.791   6.538 131.258  0.00  0.00    +0.000 S 
ENDBRANCH  10  12
ENDBRANCH   9  10
ENDBRANCH   1   9
TORSDOF 6
ENDMDL
MODEL 4
REMARK VINA RESULT:      -4.1      1.683      2.030
REMARK  Name = Racemethionine
REMARK  7 active torsions:
REMARK  status: ('A' for Active; 'I' for Inactive)
REMARK    1  A    between atoms: CE_1  and  SD_2
REMARK    2  A    between atoms: SD_2  and  CG_3
REMARK    3  A    between atoms: CG_3  and  CB_4
REMARK    4  A    between atoms: CB_4  and  CA_5
REMARK    5  A    between atoms: CA_5  and  N_6
REMARK    6  A    between atoms: CA_5  and  C_7
REMARK    7  A    between atoms: C_7  and  O_8
REMARK                            x       y       z     vdW  Elec       q    Type
REMARK                         _______ _______ _______ _____ _____    ______ ____
ROOT
ATOM      1  CA  MET A   1     -10.741   7.658 127.716  0.00  0.00    +0.000 C 
ENDROOT
BRANCH   1   2
ATOM      2  N   MET A   1      -9.860   6.512 127.432  0.00  0.00    +0.000 NA
ATOM      3  H1  MET A   1      -9.684   6.434 126.432  0.00  0.00    +0.000 HD
ATOM      4  H2  MET A   1     -10.269   5.636 127.744  0.00  0.00    +0.000 HD
ENDBRANCH   1   2
BRANCH   1   5
ATOM      5  C   MET A   1     -12.165   7.340 127.176  0.00  0.00    +0.000 C 
ATOM      6  OXT MET A   1     -13.190   7.766 127.701  0.00  0.00    +0.000 OA
BRANCH   5   7
ATOM      7  O   MET A   1     -12.247   6.567 126.072  0.00  0.00    +0.000 OA
ATOM      8  H   MET A   1     -12.983   6.721 125.455  0.00  0.00    +0.000 HD
ENDBRANCH   5   7
ENDBRANCH   1   5
BRANCH   1   9
ATOM      9  CB  MET A   1     -10.691   8.023 129.206  0.00  0.00    +0.000 C 
BRANCH   9  10
ATOM     10  CG  MET A   1     -10.090   6.934 130.102  0.00  0.00    +0.000 C 
BRANCH  10  12
ATOM     11  CE  MET A   1     -12.649   7.297 131.174  0.00  0.00    +0.000 C 
ATOM     12  SD  MET A   1     -11.473   5.971 130.802  0.00  0.00    +0.000 S 
ENDBRANCH  10  12
ENDBRANCH   9  10
ENDBRANCH   1   9
TORSDOF 6
ENDMDL
MODEL 5
REMARK VINA RESULT:      -4.0      2.838      3.817
REMARK  Name = Racemethionine
REMARK  7 active torsions:
REMARK  status: ('A' for Active; 'I' for Inactive)
REMARK    1  A    between atoms: CE_1  and  SD_2
REMARK    2  A    between atoms: SD_2  and  CG_3
REMARK    3  A    between atoms: CG_3  and  CB_4
REMARK    4  A    between atoms: CB_4  and  CA_5
REMARK    5  A    between atoms: CA_5  and  N_6
REMARK    6  A    between atoms: CA_5  and  C_7
REMARK    7  A    between atoms: C_7  and  O_8
REMARK                            x       y       z     vdW  Elec       q    Type
REMARK                         _______ _______ _______ _____ _____    ______ ____
ROOT
ATOM      1  CA  MET A   1     -11.080   6.521 131.236  0.00  0.00    +0.000 C 
ENDROOT
BRANCH   1   2
ATOM      2  N   MET A   1     -10.769   6.223 132.645  0.00  0.00    +0.000 NA
ATOM      3  H1  MET A   1     -10.200   5.381 132.716  0.00  0.00    +0.000 HD
ATOM      4  H2  MET A   1     -11.611   6.074 133.194  0.00  0.00    +0.000 HD
ENDBRANCH   1   2
BRANCH   1   5
ATOM      5  C   MET A   1     -10.768   5.262 130.377  0.00  0.00    +0.000 C 
ATOM      6  OXT MET A   1     -10.074   5.299 129.365  0.00  0.00    +0.000 OA
BRANCH   5   7
ATOM      7  O   MET A   1     -11.287   4.087 130.795  0.00  0.00    +0.000 OA
ATOM      8  H   MET A   1     -10.673   3.381 131.062  0.00  0.00    +0.000 HD
ENDBRANCH   5   7
ENDBRANCH   1   5
BRANCH   1   9
ATOM      9  CB  MET A   1     -12.515   7.047 131.098  0.00  0.00    +0.000 C 
BRANCH   9  10
ATOM     10  CG  MET A   1     -12.994   7.201 129.650  0.00  0.00    +0.000 C 
BRANCH  10  12
ATOM     11  CE  MET A   1     -11.110   8.390 127.958  0.00  0.00    +0.000 C 
ATOM     12  SD  MET A   1     -12.467   8.847 129.067  0.00  0.00    +0.000 S 
ENDBRANCH  10  12
ENDBRANCH   9  10
ENDBRANCH   1   9
TORSDOF 6
ENDMDL
MODEL 6
REMARK VINA RESULT:      -3.8      3.075      3.550
REMARK  Name = Racemethionine
REMARK  7 active torsions:
REMARK  status: ('A' for Active; 'I' for Inactive)
REMARK    1  A    between atoms: CE_1  and  SD_2
REMARK    2  A    between atoms: SD_2  and  CG_3
REMARK    3  A    between atoms: CG_3  and  CB_4
REMARK    4  A    between atoms: CB_4  and  CA_5
REMARK    5  A    between atoms: CA_5  and  N_6
REMARK    6  A    between atoms: CA_5  and  C_7
REMARK    7  A    between atoms: C_7  and  O_8
REMARK                            x       y       z     vdW  Elec       q    Type
REMARK                         _______ _______ _______ _____ _____    ______ ____
ROOT
ATOM      1  CA  MET A   1     -12.229   8.787 129.381  0.00  0.00    +0.000 C 
ENDROOT
BRANCH   1   2
ATOM      2  N   MET A   1     -11.849   8.717 127.959  0.00  0.00    +0.000 NA
ATOM      3  H1  MET A   1     -12.677   8.725 127.366  0.00  0.00    +0.000 HD
ATOM      4  H2  MET A   1     -11.326   7.871 127.750  0.00  0.00    +0.000 HD
ENDBRANCH   1   2
BRANCH   1   5
ATOM      5  C   MET A   1     -13.144  10.028 129.594  0.00  0.00    +0.000 C 
ATOM      6  OXT MET A   1     -13.315  10.551 130.691  0.00  0.00    +0.000 OA
BRANCH   5   7
ATOM      7  O   MET A   1     -13.755  10.537 128.502  0.00  0.00    +0.000 OA
ATOM      8  H   MET A   1     -14.005   9.926 127.787  0.00  0.00    +0.000 HD
ENDBRANCH   5   7
ENDBRANCH   1   5
BRANCH   1   9
ATOM      9  CB  MET A   1     -12.840   7.458 129.844  0.00  0.00    +0.000 C 
BRANCH   9  10
ATOM     10  CG  MET A   1     -12.262   6.923 131.160  0.00  0.00    +0.000 C 
BRANCH  10  12
ATOM     11  CE  MET A   1      -9.483   6.737 130.896  0.00  0.00    +0.000 C 
ATOM     12  SD  MET A   1     -10.966   5.710 130.740  0.00  0.00    +0.000 S 
ENDBRANCH  10  12
ENDBRANCH   9  10
ENDBRANCH   1   9
TORSDOF 6
ENDMDL
MODEL 7
REMARK VINA RESULT:      -3.6     11.296     12.071
REMARK  Name = Racemethionine
REMARK  7 active torsions:
REMARK  status: ('A' for Active; 'I' for Inactive)
REMARK    1  A    between atoms: CE_1  and  SD_2
REMARK    2  A    between atoms: SD_2  and  CG_3
REMARK    3  A    between atoms: CG_3  and  CB_4
REMARK    4  A    between atoms: CB_4  and  CA_5
REMARK    5  A    between atoms: CA_5  and  N_6
REMARK    6  A    between atoms: CA_5  and  C_7
REMARK    7  A    between atoms: C_7  and  O_8
REMARK                            x       y       z     vdW  Elec       q    Type
REMARK                         _______ _______ _______ _____ _____    ______ ____
ROOT
ATOM      1  CA  MET A   1      -8.681  -2.790 123.564  0.00  0.00    +0.000 C 
ENDROOT
BRANCH   1   2
ATOM      2  N   MET A   1     -10.008  -3.415 123.430  0.00  0.00    +0.000 NA
ATOM      3  H1  MET A   1     -10.691  -2.739 123.093  0.00  0.00    +0.000 HD
ATOM      4  H2  MET A   1     -10.345  -3.779 124.317  0.00  0.00    +0.000 HD
ENDBRANCH   1   2
BRANCH   1   5
ATOM      5  C   MET A   1      -8.863  -1.335 124.085  0.00  0.00    +0.000 C 
ATOM      6  OXT MET A   1      -8.423  -0.353 123.494  0.00  0.00    +0.000 OA
BRANCH   5   7
ATOM      7  O   MET A   1      -9.552  -1.175 125.236  0.00  0.00    +0.000 OA
ATOM      8  H   MET A   1      -9.304  -0.440 125.823  0.00  0.00    +0.000 HD
ENDBRANCH   5   7
ENDBRANCH   1   5
BRANCH   1   9
ATOM      9  CB  MET A   1      -7.755  -3.663 124.422  0.00  0.00    +0.000 C 
BRANCH   9  10
ATOM     10  CG  MET A   1      -6.481  -2.955 124.895  0.00  0.00    +0.000 C 
BRANCH  10  12
ATOM     11  CE  MET A   1      -4.437  -4.464 123.723  0.00  0.00    +0.000 C 
ATOM     12  SD  MET A   1      -5.323  -2.902 123.486  0.00  0.00    +0.000 S 
ENDBRANCH  10  12
ENDBRANCH   9  10
ENDBRANCH   1   9
TORSDOF 6
ENDMDL
MODEL 8
REMARK VINA RESULT:      -3.5      3.195      4.086
REMARK  Name = Racemethionine
REMARK  7 active torsions:
REMARK  status: ('A' for Active; 'I' for Inactive)
REMARK    1  A    between atoms: CE_1  and  SD_2
REMARK    2  A    between atoms: SD_2  and  CG_3
REMARK    3  A    between atoms: CG_3  and  CB_4
REMARK    4  A    between atoms: CB_4  and  CA_5
REMARK    5  A    between atoms: CA_5  and  N_6
REMARK    6  A    between atoms: CA_5  and  C_7
REMARK    7  A    between atoms: C_7  and  O_8
REMARK                            x       y       z     vdW  Elec       q    Type
REMARK                         _______ _______ _______ _____ _____    ______ ____
ROOT
ATOM      1  CA  MET A   1     -10.382   6.573 129.738  0.00  0.00    +0.000 C 
ENDROOT
BRANCH   1   2
ATOM      2  N   MET A   1      -9.052   5.938 129.701  0.00  0.00    +0.000 NA
ATOM      3  H1  MET A   1      -9.054   5.071 130.233  0.00  0.00    +0.000 HD
ATOM      4  H2  MET A   1      -8.336   6.542 130.095  0.00  0.00    +0.000 HD
ENDBRANCH   1   2
BRANCH   1   5
ATOM      5  C   MET A   1     -10.943   6.475 131.185  0.00  0.00    +0.000 C 
ATOM      6  OXT MET A   1     -12.138   6.345 131.432  0.00  0.00    +0.000 OA
BRANCH   5   7
ATOM      7  O   MET A   1     -10.049   6.527 132.197  0.00  0.00    +0.000 OA
ATOM      8  H   MET A   1     -10.166   7.209 132.881  0.00  0.00    +0.000 HD
ENDBRANCH   5   7
ENDBRANCH   1   5
BRANCH   1   9
ATOM      9  CB  MET A   1     -10.317   7.998 129.173  0.00  0.00    +0.000 C 
BRANCH   9  10
ATOM     10  CG  MET A   1     -11.189   8.225 127.933  0.00  0.00    +0.000 C 
BRANCH  10  12
ATOM     11  CE  MET A   1     -13.728   7.066 128.128  0.00  0.00    +0.000 C 
ATOM     12  SD  MET A   1     -12.875   8.617 128.509  0.00  0.00    +0.000 S 
ENDBRANCH  10  12
ENDBRANCH   9  10
ENDBRANCH   1   9
TORSDOF 6
ENDMDL
MODEL 9
REMARK VINA RESULT:      -3.5      6.768      8.210
REMARK  Name = Racemethionine
REMARK  7 active torsions:
REMARK  status: ('A' for Active; 'I' for Inactive)
REMARK    1  A    between atoms: CE_1  and  SD_2
REMARK    2  A    between atoms: SD_2  and  CG_3
REMARK    3  A    between atoms: CG_3  and  CB_4
REMARK    4  A    between atoms: CB_4  and  CA_5
REMARK    5  A    between atoms: CA_5  and  N_6
REMARK    6  A    between atoms: CA_5  and  C_7
REMARK    7  A    between atoms: C_7  and  O_8
REMARK                            x       y       z     vdW  Elec       q    Type
REMARK                         _______ _______ _______ _____ _____    ______ ____
ROOT
ATOM      1  CA  MET A   1      -6.561   4.484 125.327  0.00  0.00    +0.000 C 
ENDROOT
BRANCH   1   2
ATOM      2  N   MET A   1      -6.248   5.865 124.918  0.00  0.00    +0.000 NA
ATOM      3  H1  MET A   1      -6.477   6.520 125.663  0.00  0.00    +0.000 HD
ATOM      4  H2  MET A   1      -6.771   6.141 124.092  0.00  0.00    +0.000 HD
ENDBRANCH   1   2
BRANCH   1   5
ATOM      5  C   MET A   1      -8.084   4.385 125.628  0.00  0.00    +0.000 C 
ATOM      6  OXT MET A   1      -8.658   3.318 125.829  0.00  0.00    +0.000 OA
BRANCH   5   7
ATOM      7  O   MET A   1      -8.780   5.542 125.674  0.00  0.00    +0.000 OA
ATOM      8  H   MET A   1      -9.629   5.550 126.148  0.00  0.00    +0.000 HD
ENDBRANCH   5   7
ENDBRANCH   1   5
BRANCH   1   9
ATOM      9  CB  MET A   1      -6.050   3.481 124.284  0.00  0.00    +0.000 C 
BRANCH   9  10
ATOM     10  CG  MET A   1      -6.789   3.537 122.942  0.00  0.00    +0.000 C 
BRANCH  10  12
ATOM     11  CE  MET A   1      -6.627   4.004 120.188  0.00  0.00    +0.000 C 
ATOM     12  SD  MET A   1      -5.580   4.023 121.666  0.00  0.00    +0.000 S 
ENDBRANCH  10  12
ENDBRANCH   9  10
ENDBRANCH   1   9
TORSDOF 6
ENDMDL
