MODEL 1
REMARK VINA RESULT:      -5.7      0.000      0.000
REMARK  Name = Racephedrine
REMARK  6 active torsions:
REMARK  status: ('A' for Active; 'I' for Inactive)
REMARK    1  A    between atoms: C_1  and  N_2
REMARK    2  A    between atoms: N_2  and  C_3
REMARK    3  A    between atoms: C_3  and  C_4
REMARK    4  A    between atoms: C_3  and  C_5
REMARK    5  A    between atoms: C_5  and  O_6
REMARK    6  A    between atoms: C_5  and  C_7
REMARK                            x       y       z     vdW  Elec       q    Type
REMARK                         _______ _______ _______ _____ _____    ______ ____
ROOT
ATOM      1  C   UNL     1     -11.838   5.933 130.556  0.00  0.00    +0.000 C 
ENDROOT
BRANCH   1   2
ATOM      2  C   UNL     1     -12.494   7.024 129.730  0.00  0.00    +0.000 A 
ATOM      3  C   UNL     1     -12.318   8.379 130.060  0.00  0.00    +0.000 A 
ATOM      4  C   UNL     1     -12.889   9.380 129.277  0.00  0.00    +0.000 A 
ATOM      5  C   UNL     1     -13.607   9.042 128.136  0.00  0.00    +0.000 A 
ATOM      6  C   UNL     1     -13.780   7.703 127.788  0.00  0.00    +0.000 A 
ATOM      7  C   UNL     1     -13.234   6.697 128.588  0.00  0.00    +0.000 A 
ENDBRANCH   1   2
BRANCH   1   8
ATOM      8  C   UNL     1     -10.298   5.883 130.319  0.00  0.00    +0.000 C 
ATOM      9  C   UNL     1      -9.542   6.136 131.625  0.00  0.00    +0.000 C 
BRANCH   8  11
ATOM     10  C   UNL     1     -10.380   3.461 130.534  0.00  0.00    +0.000 C 
ATOM     11  N   UNL     1      -9.898   4.584 129.746  0.00  0.00    +0.000 NA
ATOM     12  H   UNL     1     -10.208   4.499 128.781  0.00  0.00    +0.000 HD
ENDBRANCH   8  11
ENDBRANCH   1   8
BRANCH   1  13
ATOM     13  O   UNL     1     -12.124   6.161 131.942  0.00  0.00    +0.000 OA
ATOM     14  H   UNL     1     -12.708   5.443 132.238  0.00  0.00    +0.000 HD
ENDBRANCH   1  13
TORSDOF 4
ENDMDL
MODEL 2
REMARK VINA RESULT:      -5.5      2.205      4.475
REMARK  Name = Racephedrine
REMARK  6 active torsions:
REMARK  status: ('A' for Active; 'I' for Inactive)
REMARK    1  A    between atoms: C_1  and  N_2
REMARK    2  A    between atoms: N_2  and  C_3
REMARK    3  A    between atoms: C_3  and  C_4
REMARK    4  A    between atoms: C_3  and  C_5
REMARK    5  A    between atoms: C_5  and  O_6
REMARK    6  A    between atoms: C_5  and  C_7
REMARK                            x       y       z     vdW  Elec       q    Type
REMARK                         _______ _______ _______ _____ _____    ______ ____
ROOT
ATOM      1  C   UNL     1     -11.611   8.009 128.845  0.00  0.00    +0.000 C 
ENDROOT
BRANCH   1   2
ATOM      2  C   UNL     1     -10.883   7.332 129.992  0.00  0.00    +0.000 A 
ATOM      3  C   UNL     1      -9.478   7.292 130.027  0.00  0.00    +0.000 A 
ATOM      4  C   UNL     1      -8.812   6.704 131.100  0.00  0.00    +0.000 A 
ATOM      5  C   UNL     1      -9.538   6.187 132.167  0.00  0.00    +0.000 A 
ATOM      6  C   UNL     1     -10.932   6.230 132.153  0.00  0.00    +0.000 A 
ATOM      7  C   UNL     1     -11.602   6.792 131.065  0.00  0.00    +0.000 A 
ENDBRANCH   1   2
BRANCH   1   8
ATOM      8  C   UNL     1     -12.484   6.996 128.043  0.00  0.00    +0.000 C 
ATOM      9  C   UNL     1     -13.883   7.564 127.798  0.00  0.00    +0.000 C 
BRANCH   8  11
ATOM     10  C   UNL     1     -10.913   7.679 126.315  0.00  0.00    +0.000 C 
ATOM     11  N   UNL     1     -11.844   6.654 126.759  0.00  0.00    +0.000 NA
ATOM     12  H   UNL     1     -11.378   5.751 126.811  0.00  0.00    +0.000 HD
ENDBRANCH   8  11
ENDBRANCH   1   8
BRANCH   1  13
ATOM     13  O   UNL     1     -12.424   9.067 129.367  0.00  0.00    +0.000 OA
ATOM     14  H   UNL     1     -11.853   9.845 129.473  0.00  0.00    +0.000 HD
ENDBRANCH   1  13
TORSDOF 4
ENDMDL
MODEL 3
REMARK VINA RESULT:      -5.3      2.286      4.880
REMARK  Name = Racephedrine
REMARK  6 active torsions:
REMARK  status: ('A' for Active; 'I' for Inactive)
REMARK    1  A    between atoms: C_1  and  N_2
REMARK    2  A    between atoms: N_2  and  C_3
REMARK    3  A    between atoms: C_3  and  C_4
REMARK    4  A    between atoms: C_3  and  C_5
REMARK    5  A    between atoms: C_5  and  O_6
REMARK    6  A    between atoms: C_5  and  C_7
REMARK                            x       y       z     vdW  Elec       q    Type
REMARK                         _______ _______ _______ _____ _____    ______ ____
ROOT
ATOM      1  C   UNL     1     -11.586   7.137 129.643  0.00  0.00    +0.000 C 
ENDROOT
BRANCH   1   2
ATOM      2  C   UNL     1     -10.446   6.760 130.571  0.00  0.00    +0.000 A 
ATOM      3  C   UNL     1      -9.121   7.113 130.261  0.00  0.00    +0.000 A 
ATOM      4  C   UNL     1      -8.081   6.800 131.134  0.00  0.00    +0.000 A 
ATOM      5  C   UNL     1      -8.356   6.167 132.341  0.00  0.00    +0.000 A 
ATOM      6  C   UNL     1      -9.667   5.821 132.669  0.00  0.00    +0.000 A 
ATOM      7  C   UNL     1     -10.707   6.108 131.782  0.00  0.00    +0.000 A 
ENDBRANCH   1   2
BRANCH   1   8
ATOM      8  C   UNL     1     -11.192   8.314 128.700  0.00  0.00    +0.000 C 
ATOM      9  C   UNL     1     -11.128   7.844 127.246  0.00  0.00    +0.000 C 
BRANCH   8  11
ATOM     10  C   UNL     1     -13.475   9.082 128.354  0.00  0.00    +0.000 C 
ATOM     11  N   UNL     1     -12.146   9.432 128.829  0.00  0.00    +0.000 NA
ATOM     12  H   UNL     1     -12.189   9.767 129.789  0.00  0.00    +0.000 HD
ENDBRANCH   8  11
ENDBRANCH   1   8
BRANCH   1  13
ATOM     13  O   UNL     1     -11.965   5.987 128.877  0.00  0.00    +0.000 OA
ATOM     14  H   UNL     1     -11.241   5.344 128.943  0.00  0.00    +0.000 HD
ENDBRANCH   1  13
TORSDOF 4
ENDMDL
MODEL 4
REMARK VINA RESULT:      -5.2      2.104      2.607
REMARK  Name = Racephedrine
REMARK  6 active torsions:
REMARK  status: ('A' for Active; 'I' for Inactive)
REMARK    1  A    between atoms: C_1  and  N_2
REMARK    2  A    between atoms: N_2  and  C_3
REMARK    3  A    between atoms: C_3  and  C_4
REMARK    4  A    between atoms: C_3  and  C_5
REMARK    5  A    between atoms: C_5  and  O_6
REMARK    6  A    between atoms: C_5  and  C_7
REMARK                            x       y       z     vdW  Elec       q    Type
REMARK                         _______ _______ _______ _____ _____    ______ ____
ROOT
ATOM      1  C   UNL     1     -10.357   7.203 130.363  0.00  0.00    +0.000 C 
ENDROOT
BRANCH   1   2
ATOM      2  C   UNL     1     -11.206   7.128 129.107  0.00  0.00    +0.000 A 
ATOM      3  C   UNL     1     -12.593   6.914 129.189  0.00  0.00    +0.000 A 
ATOM      4  C   UNL     1     -13.375   6.886 128.037  0.00  0.00    +0.000 A 
ATOM      5  C   UNL     1     -12.790   7.108 126.796  0.00  0.00    +0.000 A 
ATOM      6  C   UNL     1     -11.417   7.334 126.698  0.00  0.00    +0.000 A 
ATOM      7  C   UNL     1     -10.626   7.334 127.849  0.00  0.00    +0.000 A 
ENDBRANCH   1   2
BRANCH   1   8
ATOM      8  C   UNL     1     -10.665   6.021 131.333  0.00  0.00    +0.000 C 
ATOM      9  C   UNL     1      -9.980   4.739 130.857  0.00  0.00    +0.000 C 
BRANCH   8  11
ATOM     10  C   UNL     1      -9.016   5.645 133.083  0.00  0.00    +0.000 C 
ATOM     11  N   UNL     1     -10.234   6.345 132.706  0.00  0.00    +0.000 NA
ATOM     12  H   UNL     1     -10.117   7.349 132.826  0.00  0.00    +0.000 HD
ENDBRANCH   8  11
ENDBRANCH   1   8
BRANCH   1  13
ATOM     13  O   UNL     1      -8.973   7.199 129.992  0.00  0.00    +0.000 OA
ATOM     14  H   UNL     1      -8.899   6.713 129.155  0.00  0.00    +0.000 HD
ENDBRANCH   1  13
TORSDOF 4
ENDMDL
MODEL 5
REMARK VINA RESULT:      -5.1     10.070     11.420
REMARK  Name = Racephedrine
REMARK  6 active torsions:
REMARK  status: ('A' for Active; 'I' for Inactive)
REMARK    1  A    between atoms: C_1  and  N_2
REMARK    2  A    between atoms: N_2  and  C_3
REMARK    3  A    between atoms: C_3  and  C_4
REMARK    4  A    between atoms: C_3  and  C_5
REMARK    5  A    between atoms: C_5  and  O_6
REMARK    6  A    between atoms: C_5  and  C_7
REMARK                            x       y       z     vdW  Elec       q    Type
REMARK                         _______ _______ _______ _____ _____    ______ ____
ROOT
ATOM      1  C   UNL     1      -8.372  -1.663 125.202  0.00  0.00    +0.000 C 
ENDROOT
BRANCH   1   2
ATOM      2  C   UNL     1      -8.381  -2.239 126.606  0.00  0.00    +0.000 A 
ATOM      3  C   UNL     1      -8.963  -3.492 126.865  0.00  0.00    +0.000 A 
ATOM      4  C   UNL     1      -8.935  -4.036 128.147  0.00  0.00    +0.000 A 
ATOM      5  C   UNL     1      -8.293  -3.355 129.174  0.00  0.00    +0.000 A 
ATOM      6  C   UNL     1      -7.700  -2.116 128.932  0.00  0.00    +0.000 A 
ATOM      7  C   UNL     1      -7.751  -1.556 127.654  0.00  0.00    +0.000 A 
ENDBRANCH   1   2
BRANCH   1   8
ATOM      8  C   UNL     1      -8.070  -2.760 124.135  0.00  0.00    +0.000 C 
ATOM      9  C   UNL     1      -9.313  -3.049 123.291  0.00  0.00    +0.000 C 
BRANCH   8  11
ATOM     10  C   UNL     1      -5.667  -2.429 123.942  0.00  0.00    +0.000 C 
ATOM     11  N   UNL     1      -6.952  -2.351 123.265  0.00  0.00    +0.000 NA
ATOM     12  H   UNL     1      -6.934  -2.900 122.409  0.00  0.00    +0.000 HD
ENDBRANCH   8  11
ENDBRANCH   1   8
BRANCH   1  13
ATOM     13  O   UNL     1      -9.639  -1.046 124.942  0.00  0.00    +0.000 OA
ATOM     14  H   UNL     1     -10.327  -1.683 125.193  0.00  0.00    +0.000 HD
ENDBRANCH   1  13
TORSDOF 4
ENDMDL
MODEL 6
REMARK VINA RESULT:      -5.0      2.075      2.357
REMARK  Name = Racephedrine
REMARK  6 active torsions:
REMARK  status: ('A' for Active; 'I' for Inactive)
REMARK    1  A    between atoms: C_1  and  N_2
REMARK    2  A    between atoms: N_2  and  C_3
REMARK    3  A    between atoms: C_3  and  C_4
REMARK    4  A    between atoms: C_3  and  C_5
REMARK    5  A    between atoms: C_5  and  O_6
REMARK    6  A    between atoms: C_5  and  C_7
REMARK                            x       y       z     vdW  Elec       q    Type
REMARK                         _______ _______ _______ _____ _____    ______ ____
ROOT
ATOM      1  C   UNL     1      -9.863   6.786 130.924  0.00  0.00    +0.000 C 
ENDROOT
BRANCH   1   2
ATOM      2  C   UNL     1     -10.903   7.259 129.925  0.00  0.00    +0.000 A 
ATOM      3  C   UNL     1     -10.526   8.002 128.793  0.00  0.00    +0.000 A 
ATOM      4  C   UNL     1     -11.478   8.400 127.857  0.00  0.00    +0.000 A 
ATOM      5  C   UNL     1     -12.808   8.029 128.019  0.00  0.00    +0.000 A 
ATOM      6  C   UNL     1     -13.196   7.282 129.131  0.00  0.00    +0.000 A 
ATOM      7  C   UNL     1     -12.249   6.906 130.085  0.00  0.00    +0.000 A 
ENDBRANCH   1   2
BRANCH   1   8
ATOM      8  C   UNL     1     -10.170   5.344 131.431  0.00  0.00    +0.000 C 
ATOM      9  C   UNL     1      -9.172   4.342 130.848  0.00  0.00    +0.000 C 
BRANCH   8  11
ATOM     10  C   UNL     1      -9.206   4.292 133.402  0.00  0.00    +0.000 C 
ATOM     11  N   UNL     1     -10.140   5.289 132.905  0.00  0.00    +0.000 NA
ATOM     12  H   UNL     1      -9.926   6.202 133.301  0.00  0.00    +0.000 HD
ENDBRANCH   8  11
ENDBRANCH   1   8
BRANCH   1  13
ATOM     13  O   UNL     1      -8.569   6.836 130.310  0.00  0.00    +0.000 OA
ATOM     14  H   UNL     1      -8.704   7.011 129.365  0.00  0.00    +0.000 HD
ENDBRANCH   1  13
TORSDOF 4
ENDMDL
MODEL 7
REMARK VINA RESULT:      -4.9      1.944      2.440
REMARK  Name = Racephedrine
REMARK  6 active torsions:
REMARK  status: ('A' for Active; 'I' for Inactive)
REMARK    1  A    between atoms: C_1  and  N_2
REMARK    2  A    between atoms: N_2  and  C_3
REMARK    3  A    between atoms: C_3  and  C_4
REMARK    4  A    between atoms: C_3  and  C_5
REMARK    5  A    between atoms: C_5  and  O_6
REMARK    6  A    between atoms: C_5  and  C_7
REMARK                            x       y       z     vdW  Elec       q    Type
REMARK                         _______ _______ _______ _____ _____    ______ ____
ROOT
ATOM      1  C   UNL     1      -9.706   6.178 129.562  0.00  0.00    +0.000 C 
ENDROOT
BRANCH   1   2
ATOM      2  C   UNL     1     -10.999   6.862 129.160  0.00  0.00    +0.000 A 
ATOM      3  C   UNL     1     -10.980   8.074 128.448  0.00  0.00    +0.000 A 
ATOM      4  C   UNL     1     -12.169   8.679 128.046  0.00  0.00    +0.000 A 
ATOM      5  C   UNL     1     -13.385   8.063 128.314  0.00  0.00    +0.000 A 
ATOM      6  C   UNL     1     -13.421   6.854 129.008  0.00  0.00    +0.000 A 
ATOM      7  C   UNL     1     -12.233   6.260 129.437  0.00  0.00    +0.000 A 
ENDBRANCH   1   2
BRANCH   1   8
ATOM      8  C   UNL     1      -9.090   6.824 130.841  0.00  0.00    +0.000 C 
ATOM      9  C   UNL     1      -9.147   5.850 132.019  0.00  0.00    +0.000 C 
BRANCH   8  11
ATOM     10  C   UNL     1      -6.764   6.627 131.527  0.00  0.00    +0.000 C 
ATOM     11  N   UNL     1      -7.697   7.244 130.598  0.00  0.00    +0.000 NA
ATOM     12  H   UNL     1      -7.420   7.052 129.638  0.00  0.00    +0.000 HD
ENDBRANCH   8  11
ENDBRANCH   1   8
BRANCH   1  13
ATOM     13  O   UNL     1      -9.961   4.785 129.778  0.00  0.00    +0.000 OA
ATOM     14  H   UNL     1      -9.556   4.545 130.627  0.00  0.00    +0.000 HD
ENDBRANCH   1  13
TORSDOF 4
ENDMDL
MODEL 8
REMARK VINA RESULT:      -4.9      9.847     11.175
REMARK  Name = Racephedrine
REMARK  6 active torsions:
REMARK  status: ('A' for Active; 'I' for Inactive)
REMARK    1  A    between atoms: C_1  and  N_2
REMARK    2  A    between atoms: N_2  and  C_3
REMARK    3  A    between atoms: C_3  and  C_4
REMARK    4  A    between atoms: C_3  and  C_5
REMARK    5  A    between atoms: C_5  and  O_6
REMARK    6  A    between atoms: C_5  and  C_7
REMARK                            x       y       z     vdW  Elec       q    Type
REMARK                         _______ _______ _______ _____ _____    ______ ____
ROOT
ATOM      1  C   UNL     1      -8.963  -1.942 125.232  0.00  0.00    +0.000 C 
ENDROOT
BRANCH   1   2
ATOM      2  C   UNL     1      -8.614  -2.401 126.635  0.00  0.00    +0.000 A 
ATOM      3  C   UNL     1      -7.857  -1.583 127.492  0.00  0.00    +0.000 A 
ATOM      4  C   UNL     1      -7.570  -1.990 128.793  0.00  0.00    +0.000 A 
ATOM      5  C   UNL     1      -8.068  -3.198 129.266  0.00  0.00    +0.000 A 
ATOM      6  C   UNL     1      -8.831  -4.017 128.433  0.00  0.00    +0.000 A 
ATOM      7  C   UNL     1      -9.095  -3.624 127.119  0.00  0.00    +0.000 A 
ENDBRANCH   1   2
BRANCH   1   8
ATOM      8  C   UNL     1      -7.686  -1.728 124.365  0.00  0.00    +0.000 C 
ATOM      9  C   UNL     1      -7.028  -3.068 124.031  0.00  0.00    +0.000 C 
BRANCH   8  11
ATOM     10  C   UNL     1      -8.654   0.277 123.382  0.00  0.00    +0.000 C 
ATOM     11  N   UNL     1      -8.011  -1.001 123.123  0.00  0.00    +0.000 NA
ATOM     12  H   UNL     1      -7.183  -0.870 122.547  0.00  0.00    +0.000 HD
ENDBRANCH   8  11
ENDBRANCH   1   8
BRANCH   1  13
ATOM     13  O   UNL     1      -9.824  -2.913 124.624  0.00  0.00    +0.000 OA
ATOM     14  H   UNL     1     -10.489  -2.427 124.110  0.00  0.00    +0.000 HD
ENDBRANCH   1  13
TORSDOF 4
ENDMDL
MODEL 9
REMARK VINA RESULT:      -4.9      9.917     11.585
REMARK  Name = Racephedrine
REMARK  6 active torsions:
REMARK  status: ('A' for Active; 'I' for Inactive)
REMARK    1  A    between atoms: C_1  and  N_2
REMARK    2  A    between atoms: N_2  and  C_3
REMARK    3  A    between atoms: C_3  and  C_4
REMARK    4  A    between atoms: C_3  and  C_5
REMARK    5  A    between atoms: C_5  and  O_6
REMARK    6  A    between atoms: C_5  and  C_7
REMARK                            x       y       z     vdW  Elec       q    Type
REMARK                         _______ _______ _______ _____ _____    ______ ____
ROOT
ATOM      1  C   UNL     1      -8.674  -3.426 125.840  0.00  0.00    +0.000 C 
ENDROOT
BRANCH   1   2
ATOM      2  C   UNL     1      -7.871  -2.975 124.635  0.00  0.00    +0.000 A 
ATOM      3  C   UNL     1      -8.496  -2.325 123.557  0.00  0.00    +0.000 A 
ATOM      4  C   UNL     1      -7.749  -1.877 122.469  0.00  0.00    +0.000 A 
ATOM      5  C   UNL     1      -6.369  -2.038 122.463  0.00  0.00    +0.000 A 
ATOM      6  C   UNL     1      -5.731  -2.670 123.530  0.00  0.00    +0.000 A 
ATOM      7  C   UNL     1      -6.481  -3.146 124.608  0.00  0.00    +0.000 A 
ENDBRANCH   1   2
BRANCH   1   8
ATOM      8  C   UNL     1      -8.008  -2.972 127.175  0.00  0.00    +0.000 C 
ATOM      9  C   UNL     1      -8.032  -1.448 127.299  0.00  0.00    +0.000 C 
BRANCH   8  11
ATOM     10  C   UNL     1      -8.147  -3.115 129.600  0.00  0.00    +0.000 C 
ATOM     11  N   UNL     1      -8.686  -3.584 128.333  0.00  0.00    +0.000 NA
ATOM     12  H   UNL     1      -9.690  -3.426 128.296  0.00  0.00    +0.000 HD
ENDBRANCH   8  11
ENDBRANCH   1   8
BRANCH   1  13
ATOM     13  O   UNL     1     -10.003  -2.899 125.739  0.00  0.00    +0.000 OA
ATOM     14  H   UNL     1      -9.951  -1.947 125.923  0.00  0.00    +0.000 HD
ENDBRANCH   1  13
TORSDOF 4
ENDMDL
